./LICBII_from_xyz.cif_generated_by_CrystalShift
_symmetry_cell_setting triclinic
_symmetry_space_group_name_H-M 'P 1'
loop_
_symmetry_equiv_pos_site_id
_symmetry_equiv_pos_as_xyz
1 x,y,z
_cell_length_a 24.215000
_cell_length_b 8.967000
_cell_length_c 15.006000
_cell_angle_alpha 90.000000
_cell_angle_beta 115.570000
_cell_angle_gamma 90.000000
_cell_volume 2939.215014
loop_
_atom_site_label
_atom_site_type_symbol
_atom_site_fract_x
_atom_site_fract_y
_atom_site_fract_z
Cl1 Cl 0.009800 1.102800 0.391400
N2 N 0.263600 0.988700 0.459100
C3 C 0.095400 0.947100 0.364500
C4 C 0.084600 1.064600 0.411000
C5 C 0.131400 1.156100 0.475200
C6 C 0.190100 1.126400 0.492200
C7 C 0.203800 1.007600 0.443200
C8 C 0.156100 0.916100 0.378700
C9 C 0.171300 0.799100 0.329200
C10 C 0.231400 0.783900 0.343500
C11 C 0.276200 0.882100 0.410800
C12 C 0.341900 0.872000 0.427300
C13 C 0.358300 0.730500 0.390200
C14 C 0.310100 0.696200 0.286800
C15 C 0.249300 0.667600 0.289200
C16 C 0.122400 0.697000 0.263700
C17 C 0.118600 0.552200 0.292600
C18 C 0.071300 0.460900 0.234200
C19 C 0.027400 0.511400 0.145900
C20 C 0.030700 0.652900 0.115600
C21 C 0.078100 0.746200 0.173700
H22 H 0.064000 0.886000 0.324000
H23 H 0.121000 1.238000 0.504000
H24 H 0.223000 1.190000 0.535000
H25 H 0.354000 0.963000 0.397000
H26 H 0.365000 0.889000 0.491000
H27 H 0.397000 0.743000 0.397000
H28 H 0.357000 0.631000 0.434000
H29 H 0.307000 0.785000 0.243000
H30 H 0.330000 0.611000 0.266000
H31 H 0.219000 0.651000 0.222000
H32 H 0.249000 0.568000 0.318000
H33 H 0.147000 0.520000 0.351000
H34 H 0.071000 0.360000 0.251000
H35 H -0.007000 0.445000 0.105000
H36 H 0.002000 0.695000 0.053000
H37 H 0.078000 0.839000 0.151000
Cl38 Cl 0.990200 1.102800 0.108600
N39 N 0.736400 0.988700 0.040900
C40 C 0.904600 0.947100 0.135500
C41 C 0.915400 1.064600 0.089000
C42 C 0.868600 1.156100 0.024800
C43 C 0.809900 1.126400 0.007800
C44 C 0.796200 1.007600 0.056800
C45 C 0.843900 0.916100 0.121300
C46 C 0.828700 0.799100 0.170800
C47 C 0.768600 0.783900 0.156500
C48 C 0.723800 0.882100 0.089200
C49 C 0.658100 0.872000 0.072700
C50 C 0.641700 0.730500 0.109800
C51 C 0.689900 0.696200 0.213200
C52 C 0.750700 0.667600 0.210800
C53 C 0.877600 0.697000 0.236300
C54 C 0.881400 0.552200 0.207400
C55 C 0.928700 0.460900 0.265800
C56 C 0.972600 0.511400 0.354100
C57 C 0.969300 0.652900 0.384400
C58 C 0.921900 0.746200 0.326300
H59 H 0.936000 0.886000 0.176000
H60 H 0.879000 1.238000 -0.004000
H61 H 0.777000 1.190000 -0.035000
H62 H 0.646000 0.963000 0.103000
H63 H 0.635000 0.889000 0.009000
H64 H 0.603000 0.743000 0.103000
H65 H 0.643000 0.631000 0.066000
H66 H 0.693000 0.785000 0.257000
H67 H 0.670000 0.611000 0.234000
H68 H 0.781000 0.651000 0.278000
H69 H 0.751000 0.568000 0.182000
H70 H 0.853000 0.520000 0.149000
H71 H 0.929000 0.360000 0.249000
H72 H 1.007000 0.445000 0.395000
H73 H 0.998000 0.695000 0.447000
H74 H 0.922000 0.839000 0.349000
Cl75 Cl 0.509800 0.602800 0.391400
N76 N 0.763600 0.488700 0.459100
C77 C 0.595400 0.447100 0.364500
C78 C 0.584600 0.564600 0.411000
C79 C 0.631400 0.656100 0.475200
C80 C 0.690100 0.626400 0.492200
C81 C 0.703800 0.507600 0.443200
C82 C 0.656100 0.416100 0.378700
C83 C 0.671300 0.299100 0.329200
C84 C 0.731400 0.283900 0.343500
C85 C 0.776200 0.382100 0.410800
C86 C 0.841900 0.372000 0.427300
C87 C 0.858300 0.230500 0.390200
C88 C 0.810100 0.196200 0.286800
C89 C 0.749300 0.167600 0.289200
C90 C 0.622400 0.197000 0.263700
C91 C 0.618600 0.052200 0.292600
C92 C 0.571300 -0.039100 0.234200
C93 C 0.527400 0.011400 0.145900
C94 C 0.530700 0.152900 0.115600
C95 C 0.578100 0.246200 0.173700
H96 H 0.564000 0.386000 0.324000
H97 H 0.621000 0.738000 0.504000
H98 H 0.723000 0.690000 0.535000
H99 H 0.854000 0.463000 0.397000
H100 H 0.865000 0.389000 0.491000
H101 H 0.897000 0.243000 0.397000
H102 H 0.857000 0.131000 0.434000
H103 H 0.807000 0.285000 0.243000
H104 H 0.830000 0.111000 0.266000
H105 H 0.719000 0.151000 0.222000
H106 H 0.749000 0.068000 0.318000
H107 H 0.647000 0.020000 0.351000
H108 H 0.571000 -0.140000 0.251000
H109 H 0.493000 -0.055000 0.105000
H110 H 0.502000 0.195000 0.053000
H111 H 0.578000 0.339000 0.151000
Cl112 Cl 0.490200 0.602800 0.108600
N113 N 0.236400 0.488700 0.040900
C114 C 0.404600 0.447100 0.135500
C115 C 0.415400 0.564600 0.089000
C116 C 0.368600 0.656100 0.024800
C117 C 0.309900 0.626400 0.007800
C118 C 0.296200 0.507600 0.056800
C119 C 0.343900 0.416100 0.121300
C120 C 0.328700 0.299100 0.170800
C121 C 0.268600 0.283900 0.156500
C122 C 0.223800 0.382100 0.089200
C123 C 0.158100 0.372000 0.072700
C124 C 0.141700 0.230500 0.109800
C125 C 0.189900 0.196200 0.213200
C126 C 0.250700 0.167600 0.210800
C127 C 0.377600 0.197000 0.236300
C128 C 0.381400 0.052200 0.207400
C129 C 0.428700 -0.039100 0.265800
C130 C 0.472600 0.011400 0.354100
C131 C 0.469300 0.152900 0.384400
C132 C 0.421900 0.246200 0.326300
H133 H 0.436000 0.386000 0.176000
H134 H 0.379000 0.738000 -0.004000
H135 H 0.277000 0.690000 -0.035000
H136 H 0.146000 0.463000 0.103000
H137 H 0.135000 0.389000 0.009000
H138 H 0.103000 0.243000 0.103000
H139 H 0.143000 0.131000 0.066000
H140 H 0.193000 0.285000 0.257000
H141 H 0.170000 0.111000 0.234000
H142 H 0.281000 0.151000 0.278000
H143 H 0.251000 0.068000 0.182000
H144 H 0.353000 0.020000 0.149000
H145 H 0.429000 -0.140000 0.249000
H146 H 0.507000 -0.055000 0.395000
H147 H 0.498000 0.195000 0.447000
H148 H 0.422000 0.339000 0.349000
Cl149 Cl 0.990200 -0.102800 0.608600
N150 N 0.736400 0.011300 0.540900
C151 C 0.904600 0.052900 0.635500
C152 C 0.915400 -0.064600 0.589000
C153 C 0.868600 -0.156100 0.524800
C154 C 0.809900 -0.126400 0.507800
C155 C 0.796200 -0.007600 0.556800
C156 C 0.843900 0.083900 0.621300
C157 C 0.828700 0.200900 0.670800
C158 C 0.768600 0.216100 0.656500
C159 C 0.723800 0.117900 0.589200
C160 C 0.658100 0.128000 0.572700
C161 C 0.641700 0.269500 0.609800
C162 C 0.689900 0.303800 0.713200
C163 C 0.750700 0.332400 0.710800
C164 C 0.877600 0.303000 0.736300
C165 C 0.881400 0.447800 0.707400
C166 C 0.928700 0.539100 0.765800
C167 C 0.972600 0.488600 0.854100
C168 C 0.969300 0.347100 0.884400
C169 C 0.921900 0.253800 0.826300
H170 H 0.936000 0.114000 0.676000
H171 H 0.879000 -0.238000 0.496000
H172 H 0.777000 -0.190000 0.465000
H173 H 0.646000 0.037000 0.603000
H174 H 0.635000 0.111000 0.509000
H175 H 0.603000 0.257000 0.603000
H176 H 0.643000 0.369000 0.566000
H177 H 0.693000 0.215000 0.757000
H178 H 0.670000 0.389000 0.734000
H179 H 0.781000 0.349000 0.778000
H180 H 0.751000 0.432000 0.682000
H181 H 0.853000 0.480000 0.649000
H182 H 0.929000 0.640000 0.749000
H183 H 1.007000 0.555000 0.895000
H184 H 0.998000 0.305000 0.947000
H185 H 0.922000 0.161000 0.849000
Cl186 Cl 0.009800 -0.102800 0.891400
N187 N 0.263600 0.011300 0.959100
C188 C 0.095400 0.052900 0.864500
C189 C 0.084600 -0.064600 0.911000
C190 C 0.131400 -0.156100 0.975200
C191 C 0.190100 -0.126400 0.992200
C192 C 0.203800 -0.007600 0.943200
C193 C 0.156100 0.083900 0.878700
C194 C 0.171300 0.200900 0.829200
C195 C 0.231400 0.216100 0.843500
C196 C 0.276200 0.117900 0.910800
C197 C 0.341900 0.128000 0.927300
C198 C 0.358300 0.269500 0.890200
C199 C 0.310100 0.303800 0.786800
C200 C 0.249300 0.332400 0.789200
C201 C 0.122400 0.303000 0.763700
C202 C 0.118600 0.447800 0.792600
C203 C 0.071300 0.539100 0.734200
C204 C 0.027400 0.488600 0.645900
C205 C 0.030700 0.347100 0.615600
C206 C 0.078100 0.253800 0.673700
H207 H 0.064000 0.114000 0.824000
H208 H 0.121000 -0.238000 1.004000
H209 H 0.223000 -0.190000 1.035000
H210 H 0.354000 0.037000 0.897000
H211 H 0.365000 0.111000 0.991000
H212 H 0.397000 0.257000 0.897000
H213 H 0.357000 0.369000 0.934000
H214 H 0.307000 0.215000 0.743000
H215 H 0.330000 0.389000 0.766000
H216 H 0.219000 0.349000 0.722000
H217 H 0.249000 0.432000 0.818000
H218 H 0.147000 0.480000 0.851000
H219 H 0.071000 0.640000 0.751000
H220 H -0.007000 0.555000 0.605000
H221 H 0.002000 0.305000 0.553000
H222 H 0.078000 0.161000 0.651000
Cl223 Cl 0.490200 0.397200 0.608600
N224 N 0.236400 0.511300 0.540900
C225 C 0.404600 0.552900 0.635500
C226 C 0.415400 0.435400 0.589000
C227 C 0.368600 0.343900 0.524800
C228 C 0.309900 0.373600 0.507800
C229 C 0.296200 0.492400 0.556800
C230 C 0.343900 0.583900 0.621300
C231 C 0.328700 0.700900 0.670800
C232 C 0.268600 0.716100 0.656500
C233 C 0.223800 0.617900 0.589200
C234 C 0.158100 0.628000 0.572700
C235 C 0.141700 0.769500 0.609800
C236 C 0.189900 0.803800 0.713200
C237 C 0.250700 0.832400 0.710800
C238 C 0.377600 0.803000 0.736300
C239 C 0.381400 0.947800 0.707400
C240 C 0.428700 1.039100 0.765800
C241 C 0.472600 0.988600 0.854100
C242 C 0.469300 0.847100 0.884400
C243 C 0.421900 0.753800 0.826300
H244 H 0.436000 0.614000 0.676000
H245 H 0.379000 0.262000 0.496000
H246 H 0.277000 0.310000 0.465000
H247 H 0.146000 0.537000 0.603000
H248 H 0.135000 0.611000 0.509000
H249 H 0.103000 0.757000 0.603000
H250 H 0.143000 0.869000 0.566000
H251 H 0.193000 0.715000 0.757000
H252 H 0.170000 0.889000 0.734000
H253 H 0.281000 0.849000 0.778000
H254 H 0.251000 0.932000 0.682000
H255 H 0.353000 0.980000 0.649000
H256 H 0.429000 1.140000 0.749000
H257 H 0.507000 1.055000 0.895000
H258 H 0.498000 0.805000 0.947000
H259 H 0.422000 0.661000 0.849000
Cl260 Cl 0.509800 0.397200 0.891400
N261 N 0.763600 0.511300 0.959100
C262 C 0.595400 0.552900 0.864500
C263 C 0.584600 0.435400 0.911000
C264 C 0.631400 0.343900 0.975200
C265 C 0.690100 0.373600 0.992200
C266 C 0.703800 0.492400 0.943200
C267 C 0.656100 0.583900 0.878700
C268 C 0.671300 0.700900 0.829200
C269 C 0.731400 0.716100 0.843500
C270 C 0.776200 0.617900 0.910800
C271 C 0.841900 0.628000 0.927300
C272 C 0.858300 0.769500 0.890200
C273 C 0.810100 0.803800 0.786800
C274 C 0.749300 0.832400 0.789200
C275 C 0.622400 0.803000 0.763700
C276 C 0.618600 0.947800 0.792600
C277 C 0.571300 1.039100 0.734200
C278 C 0.527400 0.988600 0.645900
C279 C 0.530700 0.847100 0.615600
C280 C 0.578100 0.753800 0.673700
H281 H 0.564000 0.614000 0.824000
H282 H 0.621000 0.262000 1.004000
H283 H 0.723000 0.310000 1.035000
H284 H 0.854000 0.537000 0.897000
H285 H 0.865000 0.611000 0.991000
H286 H 0.897000 0.757000 0.897000
H287 H 0.857000 0.869000 0.934000
H288 H 0.807000 0.715000 0.743000
H289 H 0.830000 0.889000 0.766000
H290 H 0.719000 0.849000 0.722000
H291 H 0.749000 0.932000 0.818000
H292 H 0.647000 0.980000 0.851000
H293 H 0.571000 1.140000 0.751000
H294 H 0.493000 1.055000 0.605000
H295 H 0.502000 0.805000 0.553000
H296 H 0.578000 0.661000 0.651000

#END
