./LICFUA_from_xyz.cif_generated_by_CrystalShift
_symmetry_cell_setting triclinic
_symmetry_space_group_name_H-M 'P 1'
loop_
_symmetry_equiv_pos_site_id
_symmetry_equiv_pos_as_xyz
1 x,y,z
_cell_length_a 15.166900
_cell_length_b 5.766600
_cell_length_c 23.367100
_cell_angle_alpha 90.000000
_cell_angle_beta 107.222000
_cell_angle_gamma 90.000000
_cell_volume 1952.089611
loop_
_atom_site_label
_atom_site_type_symbol
_atom_site_fract_x
_atom_site_fract_y
_atom_site_fract_z
C1 C 0.879390 0.496900 0.554860
H2 H 0.850400 0.382800 0.527700
C3 C 0.924140 0.670500 0.536720
H4 H 0.925100 0.676700 0.497100
C5 C 0.969110 0.841000 0.577200
H6 H 0.999900 0.960400 0.564300
C7 C 0.968560 0.834700 0.635760
H8 H 0.999200 0.949500 0.662200
C9 C 0.922050 0.656300 0.656400
C10 C 0.919710 0.643800 0.717130
C11 C 0.871530 0.465700 0.732840
C12 C 0.823110 0.299500 0.690830
H13 H 0.789200 0.183900 0.702500
C14 C 0.826260 0.309100 0.633510
H15 H 0.795200 0.197700 0.606200
C16 C 0.875780 0.485000 0.614660
C17 C 0.964200 0.826900 0.763050
H18 H 0.946100 0.978200 0.744100
C19 C 1.069250 0.823000 0.785620
C20 C 1.121720 0.644200 0.774290
H21 H 1.092800 0.520500 0.750600
C22 C 1.217430 0.645600 0.797790
H23 H 1.252200 0.523600 0.789900
C24 C 1.259690 0.827500 0.832400
C25 C 1.209400 1.008600 0.844240
H26 H 1.238800 1.132500 0.867700
C27 C 1.114590 1.005000 0.820890
H28 H 1.080300 1.127600 0.829000
C29 C 0.926840 0.580500 0.834640
H30 H 0.989300 0.517200 0.842600
C31 C 0.899120 0.556400 0.891140
C32 C 0.922970 0.726200 0.934770
H33 H 0.954900 0.856700 0.928500
C34 C 0.900160 0.705100 0.987610
H35 H 0.916400 0.820500 1.016600
C36 C 0.853320 0.512400 0.996670
C37 C 0.829230 0.340300 0.954350
H38 H 0.797800 0.209600 0.961100
C39 C 0.852020 0.363000 0.901700
H40 H 0.835500 0.246900 0.872900
Cl41 Cl 1.379290 0.833060 0.862130
Cl42 Cl 0.823880 0.482390 1.062780
N43 N 0.928600 0.814500 0.815410
O44 O 0.864790 0.435200 0.789700
H45 H 0.872300 0.876000 0.807600
C46 C 0.620610 -0.003100 0.945140
H47 H 0.649600 -0.117200 0.972300
C48 C 0.575860 0.170500 0.963280
H49 H 0.574900 0.176700 1.002900
C50 C 0.530890 0.341000 0.922800
H51 H 0.500100 0.460400 0.935700
C52 C 0.531440 0.334700 0.864240
H53 H 0.500800 0.449500 0.837800
C54 C 0.577950 0.156300 0.843600
C55 C 0.580290 0.143800 0.782870
C56 C 0.628470 -0.034300 0.767160
C57 C 0.676890 -0.200500 0.809170
H58 H 0.710800 -0.316100 0.797500
C59 C 0.673740 -0.190900 0.866490
H60 H 0.704800 -0.302300 0.893800
C61 C 0.624220 -0.015000 0.885340
C62 C 0.535800 0.326900 0.736950
H63 H 0.553900 0.478200 0.755900
C64 C 0.430750 0.323000 0.714380
C65 C 0.378280 0.144200 0.725710
H66 H 0.407200 0.020500 0.749400
C67 C 0.282570 0.145600 0.702210
H68 H 0.247800 0.023600 0.710100
C69 C 0.240310 0.327500 0.667600
C70 C 0.290600 0.508600 0.655760
H71 H 0.261200 0.632500 0.632300
C72 C 0.385410 0.505000 0.679110
H73 H 0.419700 0.627600 0.671000
C74 C 0.573160 0.080500 0.665360
H75 H 0.510700 0.017200 0.657400
C76 C 0.600880 0.056400 0.608860
C77 C 0.577030 0.226200 0.565230
H78 H 0.545100 0.356700 0.571500
C79 C 0.599840 0.205100 0.512390
H80 H 0.583600 0.320500 0.483400
C81 C 0.646680 0.012400 0.503330
C82 C 0.670770 -0.159700 0.545650
H83 H 0.702200 -0.290400 0.538900
C84 C 0.647980 -0.137000 0.598300
H85 H 0.664500 -0.253100 0.627100
Cl86 Cl 0.120710 0.333060 0.637870
Cl87 Cl 0.676120 -0.017610 0.437220
N88 N 0.571400 0.314500 0.684590
O89 O 0.635210 -0.064800 0.710300
H90 H 0.627700 0.376000 0.692400
C91 C 0.120610 0.503100 0.445140
H92 H 0.149600 0.617200 0.472300
C93 C 0.075860 0.329500 0.463280
H94 H 0.074900 0.323300 0.502900
C95 C 0.030890 0.159000 0.422800
H96 H 0.000100 0.039600 0.435700
C97 C 0.031440 0.165300 0.364240
H98 H 0.000800 0.050500 0.337800
C99 C 0.077950 0.343700 0.343600
C100 C 0.080290 0.356200 0.282870
C101 C 0.128470 0.534300 0.267160
C102 C 0.176890 0.700500 0.309170
H103 H 0.210800 0.816100 0.297500
C104 C 0.173740 0.690900 0.366490
H105 H 0.204800 0.802300 0.393800
C106 C 0.124220 0.515000 0.385340
C107 C 0.035800 0.173100 0.236950
H108 H 0.053900 0.021800 0.255900
C109 C -0.069250 0.177000 0.214380
C110 C -0.121720 0.355800 0.225710
H111 H -0.092800 0.479500 0.249400
C112 C -0.217430 0.354400 0.202210
H113 H -0.252200 0.476400 0.210100
C114 C -0.259690 0.172500 0.167600
C115 C -0.209400 -0.008600 0.155760
H116 H -0.238800 -0.132500 0.132300
C117 C -0.114590 -0.005000 0.179110
H118 H -0.080300 -0.127600 0.171000
C119 C 0.073160 0.419500 0.165360
H120 H 0.010700 0.482800 0.157400
C121 C 0.100880 0.443600 0.108860
C122 C 0.077030 0.273800 0.065230
H123 H 0.045100 0.143300 0.071500
C124 C 0.099840 0.294900 0.012390
H125 H 0.083600 0.179500 -0.016600
C126 C 0.146680 0.487600 0.003330
C127 C 0.170770 0.659700 0.045650
H128 H 0.202200 0.790400 0.038900
C129 C 0.147980 0.637000 0.098300
H130 H 0.164500 0.753100 0.127100
Cl131 Cl -0.379290 0.166940 0.137870
Cl132 Cl 0.176120 0.517610 -0.062780
N133 N 0.071400 0.185500 0.184590
O134 O 0.135210 0.564800 0.210300
H135 H 0.127700 0.124000 0.192400
C136 C 0.379390 1.003100 0.054860
H137 H 0.350400 1.117200 0.027700
C138 C 0.424140 0.829500 0.036720
H139 H 0.425100 0.823300 -0.002900
C140 C 0.469110 0.659000 0.077200
H141 H 0.499900 0.539600 0.064300
C142 C 0.468560 0.665300 0.135760
H143 H 0.499200 0.550500 0.162200
C144 C 0.422050 0.843700 0.156400
C145 C 0.419710 0.856200 0.217130
C146 C 0.371530 1.034300 0.232840
C147 C 0.323110 1.200500 0.190830
H148 H 0.289200 1.316100 0.202500
C149 C 0.326260 1.190900 0.133510
H150 H 0.295200 1.302300 0.106200
C151 C 0.375780 1.015000 0.114660
C152 C 0.464200 0.673100 0.263050
H153 H 0.446100 0.521800 0.244100
C154 C 0.569250 0.677000 0.285620
C155 C 0.621720 0.855800 0.274290
H156 H 0.592800 0.979500 0.250600
C157 C 0.717430 0.854400 0.297790
H158 H 0.752200 0.976400 0.289900
C159 C 0.759690 0.672500 0.332400
C160 C 0.709400 0.491400 0.344240
H161 H 0.738800 0.367500 0.367700
C162 C 0.614590 0.495000 0.320890
H163 H 0.580300 0.372400 0.329000
C164 C 0.426840 0.919500 0.334640
H165 H 0.489300 0.982800 0.342600
C166 C 0.399120 0.943600 0.391140
C167 C 0.422970 0.773800 0.434770
H168 H 0.454900 0.643300 0.428500
C169 C 0.400160 0.794900 0.487610
H170 H 0.416400 0.679500 0.516600
C171 C 0.353320 0.987600 0.496670
C172 C 0.329230 1.159700 0.454350
H173 H 0.297800 1.290400 0.461100
C174 C 0.352020 1.137000 0.401700
H175 H 0.335500 1.253100 0.372900
Cl176 Cl 0.879290 0.666940 0.362130
Cl177 Cl 0.323880 1.017610 0.562780
N178 N 0.428600 0.685500 0.315410
O179 O 0.364790 1.064800 0.289700
H180 H 0.372300 0.624000 0.307600

#END
