./LICFUZ_from_xyz.cif_generated_by_CrystalShift
_symmetry_cell_setting triclinic
_symmetry_space_group_name_H-M 'P 1'
loop_
_symmetry_equiv_pos_site_id
_symmetry_equiv_pos_as_xyz
1 x,y,z
_cell_length_a 5.958000
_cell_length_b 12.298400
_cell_length_c 11.916800
_cell_angle_alpha 90.000000
_cell_angle_beta 90.185000
_cell_angle_gamma 90.000000
_cell_volume 873.185478
loop_
_atom_site_label
_atom_site_type_symbol
_atom_site_fract_x
_atom_site_fract_y
_atom_site_fract_z
C1 C 0.040700 0.185690 0.154060
C2 C 0.063200 0.071870 0.148660
C3 C -0.095200 0.005370 0.198910
H4 H -0.079300 -0.071400 0.195200
C5 C -0.276100 0.050250 0.254240
H6 H -0.384500 0.004100 0.287900
C7 C -0.300700 0.162270 0.261020
H8 H -0.425100 0.192900 0.299400
C9 C -0.142900 0.228680 0.211550
H10 H -0.159500 0.305300 0.216700
C11 C 0.288100 -0.080050 0.091690
H12 H 0.302400 -0.105500 0.169300
H13 H 0.427600 -0.095000 0.051200
H14 H 0.163400 -0.118000 0.054900
C15 C 0.201500 0.256880 0.097540
H16 H 0.315000 0.225300 0.052200
C17 C 0.352400 0.426380 0.051860
C18 C 0.297400 0.536130 0.041020
H19 H 0.158100 0.561400 0.069500
C20 C 0.559100 0.391270 0.010140
H21 H 0.600900 0.317000 0.017100
N22 N 0.193860 0.359690 0.107390
O23 O 0.245470 0.034540 0.091210
C24 C 0.959300 0.814310 -0.154060
C25 C 0.936800 0.928130 -0.148660
C26 C 1.095200 0.994630 -0.198910
H27 H 1.079300 1.071400 -0.195200
C28 C 1.276100 0.949750 -0.254240
H29 H 1.384500 0.995900 -0.287900
C30 C 1.300700 0.837730 -0.261020
H31 H 1.425100 0.807100 -0.299400
C32 C 1.142900 0.771320 -0.211550
H33 H 1.159500 0.694700 -0.216700
C34 C 0.711900 1.080050 -0.091690
H35 H 0.697600 1.105500 -0.169300
H36 H 0.572400 1.095000 -0.051200
H37 H 0.836600 1.118000 -0.054900
C38 C 0.798500 0.743120 -0.097540
H39 H 0.685000 0.774700 -0.052200
C40 C 0.647600 0.573620 -0.051860
C41 C 0.702600 0.463870 -0.041020
H42 H 0.841900 0.438600 -0.069500
C43 C 0.440900 0.608730 -0.010140
H44 H 0.399100 0.683000 -0.017100
N45 N 0.806140 0.640310 -0.107390
O46 O 0.754530 0.965460 -0.091210
C47 C 0.040700 0.185690 1.154060
C48 C 0.063200 0.071870 1.148660
C49 C -0.095200 0.005370 1.198910
H50 H -0.079300 -0.071400 1.195200
C51 C -0.276100 0.050250 1.254240
H52 H -0.384500 0.004100 1.287900
C53 C -0.300700 0.162270 1.261020
H54 H -0.425100 0.192900 1.299400
C55 C -0.142900 0.228680 1.211550
H56 H -0.159500 0.305300 1.216700
C57 C 0.288100 -0.080050 1.091690
H58 H 0.302400 -0.105500 1.169300
H59 H 0.427600 -0.095000 1.051200
H60 H 0.163400 -0.118000 1.054900
C61 C 0.201500 0.256880 1.097540
H62 H 0.315000 0.225300 1.052200
C63 C 0.352400 0.426380 1.051860
C64 C 0.297400 0.536130 1.041020
H65 H 0.158100 0.561400 1.069500
C66 C 0.559100 0.391270 1.010140
H67 H 0.600900 0.317000 1.017100
N68 N 0.193860 0.359690 1.107390
O69 O 0.245470 0.034540 1.091210
C70 C 0.959300 0.814310 0.845940
C71 C 0.936800 0.928130 0.851340
C72 C 1.095200 0.994630 0.801090
H73 H 1.079300 1.071400 0.804800
C74 C 1.276100 0.949750 0.745760
H75 H 1.384500 0.995900 0.712100
C76 C 1.300700 0.837730 0.738980
H77 H 1.425100 0.807100 0.700600
C78 C 1.142900 0.771320 0.788450
H79 H 1.159500 0.694700 0.783300
C80 C 0.711900 1.080050 0.908310
H81 H 0.697600 1.105500 0.830700
H82 H 0.572400 1.095000 0.948800
H83 H 0.836600 1.118000 0.945100
C84 C 0.798500 0.743120 0.902460
H85 H 0.685000 0.774700 0.947800
C86 C 0.647600 0.573620 0.948140
C87 C 0.702600 0.463870 0.958980
H88 H 0.841900 0.438600 0.930500
C89 C 0.440900 0.608730 0.989860
H90 H 0.399100 0.683000 0.982900
N91 N 0.806140 0.640310 0.892610
O92 O 0.754530 0.965460 0.908790
C93 C 0.459300 -0.314310 0.345940
C94 C 0.436800 -0.428130 0.351340
C95 C 0.595200 -0.494630 0.301090
H96 H 0.579300 -0.571400 0.304800
C97 C 0.776100 -0.449750 0.245760
H98 H 0.884500 -0.495900 0.212100
C99 C 0.800700 -0.337730 0.238980
H100 H 0.925100 -0.307100 0.200600
C101 C 0.642900 -0.271320 0.288450
H102 H 0.659500 -0.194700 0.283300
C103 C 0.211900 -0.580050 0.408310
H104 H 0.197600 -0.605500 0.330700
H105 H 0.072400 -0.595000 0.448800
H106 H 0.336600 -0.618000 0.445100
C107 C 0.298500 -0.243120 0.402460
H108 H 0.185000 -0.274700 0.447800
C109 C 0.147600 -0.073620 0.448140
C110 C 0.202600 0.036130 0.458980
H111 H 0.341900 0.061400 0.430500
C112 C -0.059100 -0.108730 0.489860
H113 H -0.100900 -0.183000 0.482900
N114 N 0.306140 -0.140310 0.392610
O115 O 0.254530 -0.465460 0.408790
C116 C -0.459300 0.314310 0.654060
C117 C -0.436800 0.428130 0.648660
C118 C -0.595200 0.494630 0.698910
H119 H -0.579300 0.571400 0.695200
C120 C -0.776100 0.449750 0.754240
H121 H -0.884500 0.495900 0.787900
C122 C -0.800700 0.337730 0.761020
H123 H -0.925100 0.307100 0.799400
C124 C -0.642900 0.271320 0.711550
H125 H -0.659500 0.194700 0.716700
C126 C -0.211900 0.580050 0.591690
H127 H -0.197600 0.605500 0.669300
H128 H -0.072400 0.595000 0.551200
H129 H -0.336600 0.618000 0.554900
C130 C -0.298500 0.243120 0.597540
H131 H -0.185000 0.274700 0.552200
C132 C -0.147600 0.073620 0.551860
C133 C -0.202600 -0.036130 0.541020
H134 H -0.341900 -0.061400 0.569500
C135 C 0.059100 0.108730 0.510140
H136 H 0.100900 0.183000 0.517100
N137 N -0.306140 0.140310 0.607390
O138 O -0.254530 0.465460 0.591210
C139 C 0.459300 0.685690 0.345940
C140 C 0.436800 0.571870 0.351340
C141 C 0.595200 0.505370 0.301090
H142 H 0.579300 0.428600 0.304800
C143 C 0.776100 0.550250 0.245760
H144 H 0.884500 0.504100 0.212100
C145 C 0.800700 0.662270 0.238980
H146 H 0.925100 0.692900 0.200600
C147 C 0.642900 0.728680 0.288450
H148 H 0.659500 0.805300 0.283300
C149 C 0.211900 0.419950 0.408310
H150 H 0.197600 0.394500 0.330700
H151 H 0.072400 0.405000 0.448800
H152 H 0.336600 0.382000 0.445100
C153 C 0.298500 0.756880 0.402460
H154 H 0.185000 0.725300 0.447800
C155 C 0.147600 0.926380 0.448140
C156 C 0.202600 1.036130 0.458980
H157 H 0.341900 1.061400 0.430500
C158 C -0.059100 0.891270 0.489860
H159 H -0.100900 0.817000 0.482900
N160 N 0.306140 0.859690 0.392610
O161 O 0.254530 0.534540 0.408790
C162 C -0.459300 1.314310 0.654060
C163 C -0.436800 1.428130 0.648660
C164 C -0.595200 1.494630 0.698910
H165 H -0.579300 1.571400 0.695200
C166 C -0.776100 1.449750 0.754240
H167 H -0.884500 1.495900 0.787900
C168 C -0.800700 1.337730 0.761020
H169 H -0.925100 1.307100 0.799400
C170 C -0.642900 1.271320 0.711550
H171 H -0.659500 1.194700 0.716700
C172 C -0.211900 1.580050 0.591690
H173 H -0.197600 1.605500 0.669300
H174 H -0.072400 1.595000 0.551200
H175 H -0.336600 1.618000 0.554900
C176 C -0.298500 1.243120 0.597540
H177 H -0.185000 1.274700 0.552200
C178 C -0.147600 1.073620 0.551860
C179 C -0.202600 0.963870 0.541020
H180 H -0.341900 0.938600 0.569500
C181 C 0.059100 1.108730 0.510140
H182 H 0.100900 1.183000 0.517100
N183 N -0.306140 1.140310 0.607390
O184 O -0.254530 1.465460 0.591210
C185 C 1.459300 -0.314310 0.345940
C186 C 1.436800 -0.428130 0.351340
C187 C 1.595200 -0.494630 0.301090
H188 H 1.579300 -0.571400 0.304800
C189 C 1.776100 -0.449750 0.245760
H190 H 1.884500 -0.495900 0.212100
C191 C 1.800700 -0.337730 0.238980
H192 H 1.925100 -0.307100 0.200600
C193 C 1.642900 -0.271320 0.288450
H194 H 1.659500 -0.194700 0.283300
C195 C 1.211900 -0.580050 0.408310
H196 H 1.197600 -0.605500 0.330700
H197 H 1.072400 -0.595000 0.448800
H198 H 1.336600 -0.618000 0.445100
C199 C 1.298500 -0.243120 0.402460
H200 H 1.185000 -0.274700 0.447800
C201 C 1.147600 -0.073620 0.448140
C202 C 1.202600 0.036130 0.458980
H203 H 1.341900 0.061400 0.430500
C204 C 0.940900 -0.108730 0.489860
H205 H 0.899100 -0.183000 0.482900
N206 N 1.306140 -0.140310 0.392610
O207 O 1.254530 -0.465460 0.408790
C208 C 0.540700 0.314310 0.654060
C209 C 0.563200 0.428130 0.648660
C210 C 0.404800 0.494630 0.698910
H211 H 0.420700 0.571400 0.695200
C212 C 0.223900 0.449750 0.754240
H213 H 0.115500 0.495900 0.787900
C214 C 0.199300 0.337730 0.761020
H215 H 0.074900 0.307100 0.799400
C216 C 0.357100 0.271320 0.711550
H217 H 0.340500 0.194700 0.716700
C218 C 0.788100 0.580050 0.591690
H219 H 0.802400 0.605500 0.669300
H220 H 0.927600 0.595000 0.551200
H221 H 0.663400 0.618000 0.554900
C222 C 0.701500 0.243120 0.597540
H223 H 0.815000 0.274700 0.552200
C224 C 0.852400 0.073620 0.551860
C225 C 0.797400 -0.036130 0.541020
H226 H 0.658100 -0.061400 0.569500
C227 C 1.059100 0.108730 0.510140
H228 H 1.100900 0.183000 0.517100
N229 N 0.693860 0.140310 0.607390
O230 O 0.745470 0.465460 0.591210
C231 C 1.459300 0.685690 0.345940
C232 C 1.436800 0.571870 0.351340
C233 C 1.595200 0.505370 0.301090
H234 H 1.579300 0.428600 0.304800
C235 C 1.776100 0.550250 0.245760
H236 H 1.884500 0.504100 0.212100
C237 C 1.800700 0.662270 0.238980
H238 H 1.925100 0.692900 0.200600
C239 C 1.642900 0.728680 0.288450
H240 H 1.659500 0.805300 0.283300
C241 C 1.211900 0.419950 0.408310
H242 H 1.197600 0.394500 0.330700
H243 H 1.072400 0.405000 0.448800
H244 H 1.336600 0.382000 0.445100
C245 C 1.298500 0.756880 0.402460
H246 H 1.185000 0.725300 0.447800
C247 C 1.147600 0.926380 0.448140
C248 C 1.202600 1.036130 0.458980
H249 H 1.341900 1.061400 0.430500
C250 C 0.940900 0.891270 0.489860
H251 H 0.899100 0.817000 0.482900
N252 N 1.306140 0.859690 0.392610
O253 O 1.254530 0.534540 0.408790
C254 C 0.540700 1.314310 0.654060
C255 C 0.563200 1.428130 0.648660
C256 C 0.404800 1.494630 0.698910
H257 H 0.420700 1.571400 0.695200
C258 C 0.223900 1.449750 0.754240
H259 H 0.115500 1.495900 0.787900
C260 C 0.199300 1.337730 0.761020
H261 H 0.074900 1.307100 0.799400
C262 C 0.357100 1.271320 0.711550
H263 H 0.340500 1.194700 0.716700
C264 C 0.788100 1.580050 0.591690
H265 H 0.802400 1.605500 0.669300
H266 H 0.927600 1.595000 0.551200
H267 H 0.663400 1.618000 0.554900
C268 C 0.701500 1.243120 0.597540
H269 H 0.815000 1.274700 0.552200
C270 C 0.852400 1.073620 0.551860
C271 C 0.797400 0.963870 0.541020
H272 H 0.658100 0.938600 0.569500
C273 C 1.059100 1.108730 0.510140
H274 H 1.100900 1.183000 0.517100
N275 N 0.693860 1.140310 0.607390
O276 O 0.745470 1.465460 0.591210

#END
