./LICGOU_from_xyz.cif_generated_by_CrystalShift
_symmetry_cell_setting triclinic
_symmetry_space_group_name_H-M 'P 1'
loop_
_symmetry_equiv_pos_site_id
_symmetry_equiv_pos_as_xyz
1 x,y,z
_cell_length_a 12.471700
_cell_length_b 5.085900
_cell_length_c 21.041200
_cell_angle_alpha 90.000000
_cell_angle_beta 105.243000
_cell_angle_gamma 90.000000
_cell_volume 1287.686156
loop_
_atom_site_label
_atom_site_type_symbol
_atom_site_fract_x
_atom_site_fract_y
_atom_site_fract_z
O1 O 0.249120 0.241100 0.383750
O2 O 0.387960 0.656400 0.332480
N3 N 0.439110 0.363400 0.535770
C4 C 0.418700 0.332300 0.470380
C5 C 0.480000 0.470200 0.434470
C6 C 0.328800 0.137300 0.439720
C7 C 0.176700 0.431300 0.393680
C8 C 0.158700 0.496900 0.453170
C9 C 0.081000 0.690000 0.455100
C10 C 0.023300 0.815300 0.399000
C11 C 0.042600 0.749500 0.340700
C12 C 0.118200 0.558100 0.337660
C13 C 0.460000 0.443800 0.361220
C14 C 0.347700 0.656500 0.264730
C15 C 0.270700 0.847600 0.238850
C16 C 0.226600 0.864900 0.171470
C17 C 0.260100 0.691200 0.130120
C18 C 0.336500 0.500400 0.155990
C19 C 0.381900 0.481000 0.223640
H20 H 0.363100 -0.019500 0.426400
H21 H 0.290600 0.083300 0.472800
H22 H 0.198400 0.412600 0.492000
H23 H 0.067800 0.735400 0.495700
H24 H -0.029100 0.945700 0.401000
H25 H 0.003700 0.835900 0.302000
H26 H 0.130200 0.512900 0.296800
H27 H 0.530300 0.455000 0.348800
H28 H 0.425000 0.274400 0.346200
H29 H 0.248000 0.966500 0.267000
H30 H 0.173700 0.995200 0.153800
H31 H 0.230500 0.703900 0.084300
H32 H 0.358400 0.381000 0.127700
H33 H 0.435000 0.351000 0.241200
O34 O 0.750880 0.758900 0.616250
O35 O 0.612040 0.343600 0.667520
N36 N 0.560890 0.636600 0.464230
C37 C 0.581300 0.667700 0.529620
C38 C 0.520000 0.529800 0.565530
C39 C 0.671200 0.862700 0.560280
C40 C 0.823300 0.568700 0.606320
C41 C 0.841300 0.503100 0.546830
C42 C 0.919000 0.310000 0.544900
C43 C 0.976700 0.184700 0.601000
C44 C 0.957400 0.250500 0.659300
C45 C 0.881800 0.441900 0.662340
C46 C 0.540000 0.556200 0.638780
C47 C 0.652300 0.343500 0.735270
C48 C 0.729300 0.152400 0.761150
C49 C 0.773400 0.135100 0.828530
C50 C 0.739900 0.308800 0.869880
C51 C 0.663500 0.499600 0.844010
C52 C 0.618100 0.519000 0.776360
H53 H 0.636900 1.019500 0.573600
H54 H 0.709400 0.916700 0.527200
H55 H 0.801600 0.587400 0.508000
H56 H 0.932200 0.264600 0.504300
H57 H 1.029100 0.054300 0.599000
H58 H 0.996300 0.164100 0.698000
H59 H 0.869800 0.487100 0.703200
H60 H 0.469700 0.545000 0.651200
H61 H 0.575000 0.725600 0.653800
H62 H 0.752000 0.033500 0.733000
H63 H 0.826300 0.004800 0.846200
H64 H 0.769500 0.296100 0.915700
H65 H 0.641600 0.619000 0.872300
H66 H 0.565000 0.649000 0.758800
O67 O 0.750880 -0.258900 0.116250
O68 O 0.612040 0.156400 0.167520
N69 N 0.560890 -0.136600 -0.035770
C70 C 0.581300 -0.167700 0.029620
C71 C 0.520000 -0.029800 0.065530
C72 C 0.671200 -0.362700 0.060280
C73 C 0.823300 -0.068700 0.106320
C74 C 0.841300 -0.003100 0.046830
C75 C 0.919000 0.190000 0.044900
C76 C 0.976700 0.315300 0.101000
C77 C 0.957400 0.249500 0.159300
C78 C 0.881800 0.058100 0.162340
C79 C 0.540000 -0.056200 0.138780
C80 C 0.652300 0.156500 0.235270
C81 C 0.729300 0.347600 0.261150
C82 C 0.773400 0.364900 0.328530
C83 C 0.739900 0.191200 0.369880
C84 C 0.663500 0.000400 0.344010
C85 C 0.618100 -0.019000 0.276360
H86 H 0.636900 -0.519500 0.073600
H87 H 0.709400 -0.416700 0.027200
H88 H 0.801600 -0.087400 0.008000
H89 H 0.932200 0.235400 0.004300
H90 H 1.029100 0.445700 0.099000
H91 H 0.996300 0.335900 0.198000
H92 H 0.869800 0.012900 0.203200
H93 H 0.469700 -0.045000 0.151200
H94 H 0.575000 -0.225600 0.153800
H95 H 0.752000 0.466500 0.233000
H96 H 0.826300 0.495200 0.346200
H97 H 0.769500 0.203900 0.415700
H98 H 0.641600 -0.119000 0.372300
H99 H 0.565000 -0.149000 0.258800
O100 O 0.249120 0.258900 -0.116250
O101 O 0.387960 -0.156400 -0.167520
N102 N 0.439110 0.136600 0.035770
C103 C 0.418700 0.167700 -0.029620
C104 C 0.480000 0.029800 -0.065530
C105 C 0.328800 0.362700 -0.060280
C106 C 0.176700 0.068700 -0.106320
C107 C 0.158700 0.003100 -0.046830
C108 C 0.081000 -0.190000 -0.044900
C109 C 0.023300 -0.315300 -0.101000
C110 C 0.042600 -0.249500 -0.159300
C111 C 0.118200 -0.058100 -0.162340
C112 C 0.460000 0.056200 -0.138780
C113 C 0.347700 -0.156500 -0.235270
C114 C 0.270700 -0.347600 -0.261150
C115 C 0.226600 -0.364900 -0.328530
C116 C 0.260100 -0.191200 -0.369880
C117 C 0.336500 -0.000400 -0.344010
C118 C 0.381900 0.019000 -0.276360
H119 H 0.363100 0.519500 -0.073600
H120 H 0.290600 0.416700 -0.027200
H121 H 0.198400 0.087400 -0.008000
H122 H 0.067800 -0.235400 -0.004300
H123 H -0.029100 -0.445700 -0.099000
H124 H 0.003700 -0.335900 -0.198000
H125 H 0.130200 -0.012900 -0.203200
H126 H 0.530300 0.045000 -0.151200
H127 H 0.425000 0.225600 -0.153800
H128 H 0.248000 -0.466500 -0.233000
H129 H 0.173700 -0.495200 -0.346200
H130 H 0.230500 -0.203900 -0.415700
H131 H 0.358400 0.119000 -0.372300
H132 H 0.435000 0.149000 -0.258800
O133 O 0.750880 -0.258900 1.116250
O134 O 0.612040 0.156400 1.167520
N135 N 0.560890 -0.136600 0.964230
C136 C 0.581300 -0.167700 1.029620
C137 C 0.520000 -0.029800 1.065530
C138 C 0.671200 -0.362700 1.060280
C139 C 0.823300 -0.068700 1.106320
C140 C 0.841300 -0.003100 1.046830
C141 C 0.919000 0.190000 1.044900
C142 C 0.976700 0.315300 1.101000
C143 C 0.957400 0.249500 1.159300
C144 C 0.881800 0.058100 1.162340
C145 C 0.540000 -0.056200 1.138780
C146 C 0.652300 0.156500 1.235270
C147 C 0.729300 0.347600 1.261150
C148 C 0.773400 0.364900 1.328530
C149 C 0.739900 0.191200 1.369880
C150 C 0.663500 0.000400 1.344010
C151 C 0.618100 -0.019000 1.276360
H152 H 0.636900 -0.519500 1.073600
H153 H 0.709400 -0.416700 1.027200
H154 H 0.801600 -0.087400 1.008000
H155 H 0.932200 0.235400 1.004300
H156 H 1.029100 0.445700 1.099000
H157 H 0.996300 0.335900 1.198000
H158 H 0.869800 0.012900 1.203200
H159 H 0.469700 -0.045000 1.151200
H160 H 0.575000 -0.225600 1.153800
H161 H 0.752000 0.466500 1.233000
H162 H 0.826300 0.495200 1.346200
H163 H 0.769500 0.203900 1.415700
H164 H 0.641600 -0.119000 1.372300
H165 H 0.565000 -0.149000 1.258800
O166 O 0.249120 0.258900 0.883750
O167 O 0.387960 -0.156400 0.832480
N168 N 0.439110 0.136600 1.035770
C169 C 0.418700 0.167700 0.970380
C170 C 0.480000 0.029800 0.934470
C171 C 0.328800 0.362700 0.939720
C172 C 0.176700 0.068700 0.893680
C173 C 0.158700 0.003100 0.953170
C174 C 0.081000 -0.190000 0.955100
C175 C 0.023300 -0.315300 0.899000
C176 C 0.042600 -0.249500 0.840700
C177 C 0.118200 -0.058100 0.837660
C178 C 0.460000 0.056200 0.861220
C179 C 0.347700 -0.156500 0.764730
C180 C 0.270700 -0.347600 0.738850
C181 C 0.226600 -0.364900 0.671470
C182 C 0.260100 -0.191200 0.630120
C183 C 0.336500 -0.000400 0.655990
C184 C 0.381900 0.019000 0.723640
H185 H 0.363100 0.519500 0.926400
H186 H 0.290600 0.416700 0.972800
H187 H 0.198400 0.087400 0.992000
H188 H 0.067800 -0.235400 0.995700
H189 H -0.029100 -0.445700 0.901000
H190 H 0.003700 -0.335900 0.802000
H191 H 0.130200 -0.012900 0.796800
H192 H 0.530300 0.045000 0.848800
H193 H 0.425000 0.225600 0.846200
H194 H 0.248000 -0.466500 0.767000
H195 H 0.173700 -0.495200 0.653800
H196 H 0.230500 -0.203900 0.584300
H197 H 0.358400 0.119000 0.627700
H198 H 0.435000 0.149000 0.741200
O199 O 0.750880 0.741100 0.116250
O200 O 0.612040 1.156400 0.167520
N201 N 0.560890 0.863400 -0.035770
C202 C 0.581300 0.832300 0.029620
C203 C 0.520000 0.970200 0.065530
C204 C 0.671200 0.637300 0.060280
C205 C 0.823300 0.931300 0.106320
C206 C 0.841300 0.996900 0.046830
C207 C 0.919000 1.190000 0.044900
C208 C 0.976700 1.315300 0.101000
C209 C 0.957400 1.249500 0.159300
C210 C 0.881800 1.058100 0.162340
C211 C 0.540000 0.943800 0.138780
C212 C 0.652300 1.156500 0.235270
C213 C 0.729300 1.347600 0.261150
C214 C 0.773400 1.364900 0.328530
C215 C 0.739900 1.191200 0.369880
C216 C 0.663500 1.000400 0.344010
C217 C 0.618100 0.981000 0.276360
H218 H 0.636900 0.480500 0.073600
H219 H 0.709400 0.583300 0.027200
H220 H 0.801600 0.912600 0.008000
H221 H 0.932200 1.235400 0.004300
H222 H 1.029100 1.445700 0.099000
H223 H 0.996300 1.335900 0.198000
H224 H 0.869800 1.012900 0.203200
H225 H 0.469700 0.955000 0.151200
H226 H 0.575000 0.774400 0.153800
H227 H 0.752000 1.466500 0.233000
H228 H 0.826300 1.495200 0.346200
H229 H 0.769500 1.203900 0.415700
H230 H 0.641600 0.881000 0.372300
H231 H 0.565000 0.851000 0.258800
O232 O 0.249120 1.258900 -0.116250
O233 O 0.387960 0.843600 -0.167520
N234 N 0.439110 1.136600 0.035770
C235 C 0.418700 1.167700 -0.029620
C236 C 0.480000 1.029800 -0.065530
C237 C 0.328800 1.362700 -0.060280
C238 C 0.176700 1.068700 -0.106320
C239 C 0.158700 1.003100 -0.046830
C240 C 0.081000 0.810000 -0.044900
C241 C 0.023300 0.684700 -0.101000
C242 C 0.042600 0.750500 -0.159300
C243 C 0.118200 0.941900 -0.162340
C244 C 0.460000 1.056200 -0.138780
C245 C 0.347700 0.843500 -0.235270
C246 C 0.270700 0.652400 -0.261150
C247 C 0.226600 0.635100 -0.328530
C248 C 0.260100 0.808800 -0.369880
C249 C 0.336500 0.999600 -0.344010
C250 C 0.381900 1.019000 -0.276360
H251 H 0.363100 1.519500 -0.073600
H252 H 0.290600 1.416700 -0.027200
H253 H 0.198400 1.087400 -0.008000
H254 H 0.067800 0.764600 -0.004300
H255 H -0.029100 0.554300 -0.099000
H256 H 0.003700 0.664100 -0.198000
H257 H 0.130200 0.987100 -0.203200
H258 H 0.530300 1.045000 -0.151200
H259 H 0.425000 1.225600 -0.153800
H260 H 0.248000 0.533500 -0.233000
H261 H 0.173700 0.504800 -0.346200
H262 H 0.230500 0.796100 -0.415700
H263 H 0.358400 1.119000 -0.372300
H264 H 0.435000 1.149000 -0.258800
O265 O 0.750880 0.741100 1.116250
O266 O 0.612040 1.156400 1.167520
N267 N 0.560890 0.863400 0.964230
C268 C 0.581300 0.832300 1.029620
C269 C 0.520000 0.970200 1.065530
C270 C 0.671200 0.637300 1.060280
C271 C 0.823300 0.931300 1.106320
C272 C 0.841300 0.996900 1.046830
C273 C 0.919000 1.190000 1.044900
C274 C 0.976700 1.315300 1.101000
C275 C 0.957400 1.249500 1.159300
C276 C 0.881800 1.058100 1.162340
C277 C 0.540000 0.943800 1.138780
C278 C 0.652300 1.156500 1.235270
C279 C 0.729300 1.347600 1.261150
C280 C 0.773400 1.364900 1.328530
C281 C 0.739900 1.191200 1.369880
C282 C 0.663500 1.000400 1.344010
C283 C 0.618100 0.981000 1.276360
H284 H 0.636900 0.480500 1.073600
H285 H 0.709400 0.583300 1.027200
H286 H 0.801600 0.912600 1.008000
H287 H 0.932200 1.235400 1.004300
H288 H 1.029100 1.445700 1.099000
H289 H 0.996300 1.335900 1.198000
H290 H 0.869800 1.012900 1.203200
H291 H 0.469700 0.955000 1.151200
H292 H 0.575000 0.774400 1.153800
H293 H 0.752000 1.466500 1.233000
H294 H 0.826300 1.495200 1.346200
H295 H 0.769500 1.203900 1.415700
H296 H 0.641600 0.881000 1.372300
H297 H 0.565000 0.851000 1.258800
O298 O 0.249120 1.258900 0.883750
O299 O 0.387960 0.843600 0.832480
N300 N 0.439110 1.136600 1.035770
C301 C 0.418700 1.167700 0.970380
C302 C 0.480000 1.029800 0.934470
C303 C 0.328800 1.362700 0.939720
C304 C 0.176700 1.068700 0.893680
C305 C 0.158700 1.003100 0.953170
C306 C 0.081000 0.810000 0.955100
C307 C 0.023300 0.684700 0.899000
C308 C 0.042600 0.750500 0.840700
C309 C 0.118200 0.941900 0.837660
C310 C 0.460000 1.056200 0.861220
C311 C 0.347700 0.843500 0.764730
C312 C 0.270700 0.652400 0.738850
C313 C 0.226600 0.635100 0.671470
C314 C 0.260100 0.808800 0.630120
C315 C 0.336500 0.999600 0.655990
C316 C 0.381900 1.019000 0.723640
H317 H 0.363100 1.519500 0.926400
H318 H 0.290600 1.416700 0.972800
H319 H 0.198400 1.087400 0.992000
H320 H 0.067800 0.764600 0.995700
H321 H -0.029100 0.554300 0.901000
H322 H 0.003700 0.664100 0.802000
H323 H 0.130200 0.987100 0.796800
H324 H 0.530300 1.045000 0.848800
H325 H 0.425000 1.225600 0.846200
H326 H 0.248000 0.533500 0.767000
H327 H 0.173700 0.504800 0.653800
H328 H 0.230500 0.796100 0.584300
H329 H 0.358400 1.119000 0.627700
H330 H 0.435000 1.149000 0.741200

#END
