./LICGEK_from_xyz.cif_generated_by_CrystalShift
_symmetry_cell_setting triclinic
_symmetry_space_group_name_H-M 'P 1'
loop_
_symmetry_equiv_pos_site_id
_symmetry_equiv_pos_as_xyz
1 x,y,z
_cell_length_a 4.121600
_cell_length_b 15.247400
_cell_length_c 11.075100
_cell_angle_alpha 90.000000
_cell_angle_beta 90.707000
_cell_angle_gamma 90.000000
_cell_volume 695.947106
loop_
_atom_site_label
_atom_site_type_symbol
_atom_site_fract_x
_atom_site_fract_y
_atom_site_fract_z
C1 C 0.763300 -0.135190 0.670860
C2 C 0.640800 -0.213700 0.623290
H3 H 0.523600 -0.213800 0.548900
C4 C 0.691900 -0.291000 0.685550
C5 C 0.859000 -0.292520 0.796230
H6 H 0.888800 -0.345900 0.839100
C7 C 0.979900 -0.214520 0.841800
H8 H 1.094300 -0.214500 0.916800
C9 C 0.936700 -0.136420 0.779890
H10 H 1.025300 -0.083600 0.811700
C11 C 0.708200 -0.051080 0.609490
H12 H 0.824400 -0.000700 0.636300
I13 I 0.512430 -0.408847 0.613685
N14 N 0.508400 -0.043820 0.521130
C15 C 0.236700 0.135190 0.329140
C16 C 0.359200 0.213700 0.376710
H17 H 0.476400 0.213800 0.451100
C18 C 0.308100 0.291000 0.314450
C19 C 0.141000 0.292520 0.203770
H20 H 0.111200 0.345900 0.160900
C21 C 0.020100 0.214520 0.158200
H22 H -0.094300 0.214500 0.083200
C23 C 0.063300 0.136420 0.220110
H24 H -0.025300 0.083600 0.188300
C25 C 0.291800 0.051080 0.390510
H26 H 0.175600 0.000700 0.363700
I27 I 0.487570 0.408847 0.386315
N28 N 0.491600 0.043820 0.478870
C29 C 0.763300 0.864810 0.670860
C30 C 0.640800 0.786300 0.623290
H31 H 0.523600 0.786200 0.548900
C32 C 0.691900 0.709000 0.685550
C33 C 0.859000 0.707480 0.796230
H34 H 0.888800 0.654100 0.839100
C35 C 0.979900 0.785480 0.841800
H36 H 1.094300 0.785500 0.916800
C37 C 0.936700 0.863580 0.779890
H38 H 1.025300 0.916400 0.811700
C39 C 0.708200 0.948920 0.609490
H40 H 0.824400 0.999300 0.636300
I41 I 0.512430 0.591153 0.613685
N42 N 0.508400 0.956180 0.521130
C43 C 0.236700 1.135190 0.329140
C44 C 0.359200 1.213700 0.376710
H45 H 0.476400 1.213800 0.451100
C46 C 0.308100 1.291000 0.314450
C47 C 0.141000 1.292520 0.203770
H48 H 0.111200 1.345900 0.160900
C49 C 0.020100 1.214520 0.158200
H50 H -0.094300 1.214500 0.083200
C51 C 0.063300 1.136420 0.220110
H52 H -0.025300 1.083600 0.188300
C53 C 0.291800 1.051080 0.390510
H54 H 0.175600 1.000700 0.363700
I55 I 0.487570 1.408847 0.386315
N56 N 0.491600 1.043820 0.478870
C57 C 0.236700 0.364810 -0.170860
C58 C 0.359200 0.286300 -0.123290
H59 H 0.476400 0.286200 -0.048900
C60 C 0.308100 0.209000 -0.185550
C61 C 0.141000 0.207480 -0.296230
H62 H 0.111200 0.154100 -0.339100
C63 C 0.020100 0.285480 -0.341800
H64 H -0.094300 0.285500 -0.416800
C65 C 0.063300 0.363580 -0.279890
H66 H -0.025300 0.416400 -0.311700
C67 C 0.291800 0.448920 -0.109490
H68 H 0.175600 0.499300 -0.136300
I69 I 0.487570 0.091153 -0.113685
N70 N 0.491600 0.456180 -0.021130
C71 C 0.763300 0.635190 0.170860
C72 C 0.640800 0.713700 0.123290
H73 H 0.523600 0.713800 0.048900
C74 C 0.691900 0.791000 0.185550
C75 C 0.859000 0.792520 0.296230
H76 H 0.888800 0.845900 0.339100
C77 C 0.979900 0.714520 0.341800
H78 H 1.094300 0.714500 0.416800
C79 C 0.936700 0.636420 0.279890
H80 H 1.025300 0.583600 0.311700
C81 C 0.708200 0.551080 0.109490
H82 H 0.824400 0.500700 0.136300
I83 I 0.512430 0.908847 0.113685
N84 N 0.508400 0.543820 0.021130
C85 C 0.236700 0.364810 0.829140
C86 C 0.359200 0.286300 0.876710
H87 H 0.476400 0.286200 0.951100
C88 C 0.308100 0.209000 0.814450
C89 C 0.141000 0.207480 0.703770
H90 H 0.111200 0.154100 0.660900
C91 C 0.020100 0.285480 0.658200
H92 H -0.094300 0.285500 0.583200
C93 C 0.063300 0.363580 0.720110
H94 H -0.025300 0.416400 0.688300
C95 C 0.291800 0.448920 0.890510
H96 H 0.175600 0.499300 0.863700
I97 I 0.487570 0.091153 0.886315
N98 N 0.491600 0.456180 0.978870
C99 C 0.763300 0.635190 1.170860
C100 C 0.640800 0.713700 1.123290
H101 H 0.523600 0.713800 1.048900
C102 C 0.691900 0.791000 1.185550
C103 C 0.859000 0.792520 1.296230
H104 H 0.888800 0.845900 1.339100
C105 C 0.979900 0.714520 1.341800
H106 H 1.094300 0.714500 1.416800
C107 C 0.936700 0.636420 1.279890
H108 H 1.025300 0.583600 1.311700
C109 C 0.708200 0.551080 1.109490
H110 H 0.824400 0.500700 1.136300
I111 I 0.512430 0.908847 1.113685
N112 N 0.508400 0.543820 1.021130

#END
