./LICHIP_from_xyz.cif_generated_by_CrystalShift
_symmetry_cell_setting triclinic
_symmetry_space_group_name_H-M 'P 1'
loop_
_symmetry_equiv_pos_site_id
_symmetry_equiv_pos_as_xyz
1 x,y,z
_cell_length_a 9.397000
_cell_length_b 18.314000
_cell_length_c 7.399000
_cell_angle_alpha 90.000000
_cell_angle_beta 90.000000
_cell_angle_gamma 90.000000
_cell_volume 1273.343173
loop_
_atom_site_label
_atom_site_type_symbol
_atom_site_fract_x
_atom_site_fract_y
_atom_site_fract_z
N1 N 0.915300 0.426670 0.987700
N2 N 1.103800 0.674130 0.897200
H3 H 1.176100 0.702700 0.905800
H4 H 1.027400 0.689000 0.844800
N5 N 0.660000 0.255460 0.836400
C6 C 0.788800 0.445100 0.923800
C7 C 0.752100 0.518230 0.888600
H8 H 0.659700 0.529300 0.853000
C9 C 0.849500 0.573420 0.905600
C10 C 0.991000 0.554830 0.958600
C11 C 1.110400 0.603440 0.968300
C12 C 1.235500 0.581780 1.051400
C13 C 1.249200 0.509510 1.112400
H14 H 1.332300 0.495500 1.171100
C15 C 1.144200 0.459550 1.088000
H16 H 1.158500 0.411400 1.123200
C17 C 1.014000 0.480300 1.009700
C18 C 1.360000 0.633680 1.072900
H19 H 1.330100 0.675700 1.140500
H20 H 1.391500 0.649900 0.956100
H21 H 1.438600 0.611700 1.135400
C22 C 0.797400 0.650750 0.876100
H23 H 0.802100 0.663500 0.750400
H24 H 0.856100 0.684200 0.942700
H25 H 0.700900 0.653600 0.918100
C26 C 0.686900 0.384120 0.896800
C27 C 0.738900 0.315040 0.856300
H28 H 0.836800 0.310100 0.842000
C29 C 0.519500 0.263430 0.863000
H30 H 0.461900 0.222200 0.855700
C31 C 0.456800 0.329300 0.900300
H32 H 0.358700 0.332600 0.914900
C33 C 0.540500 0.390260 0.915800
H34 H 0.499400 0.435500 0.939000
N35 N 0.584700 0.573330 0.487700
N36 N 0.396200 0.325870 0.397200
H37 H 0.323900 0.297300 0.405800
H38 H 0.472600 0.311000 0.344800
N39 N 0.840000 0.744540 0.336400
C40 C 0.711200 0.554900 0.423800
C41 C 0.747900 0.481770 0.388600
H42 H 0.840300 0.470700 0.353000
C43 C 0.650500 0.426580 0.405600
C44 C 0.509000 0.445170 0.458600
C45 C 0.389600 0.396560 0.468300
C46 C 0.264500 0.418220 0.551400
C47 C 0.250800 0.490490 0.612400
H48 H 0.167700 0.504500 0.671100
C49 C 0.355800 0.540450 0.588000
H50 H 0.341500 0.588600 0.623200
C51 C 0.486000 0.519700 0.509700
C52 C 0.140000 0.366320 0.572900
H53 H 0.169900 0.324300 0.640500
H54 H 0.108500 0.350100 0.456100
H55 H 0.061400 0.388300 0.635400
C56 C 0.702600 0.349250 0.376100
H57 H 0.697900 0.336500 0.250400
H58 H 0.643900 0.315800 0.442700
H59 H 0.799100 0.346400 0.418100
C60 C 0.813100 0.615880 0.396800
C61 C 0.761100 0.684960 0.356300
H62 H 0.663200 0.689900 0.342000
C63 C 0.980500 0.736570 0.363000
H64 H 1.038100 0.777800 0.355700
C65 C 1.043200 0.670700 0.400300
H66 H 1.141300 0.667400 0.414900
C67 C 0.959500 0.609740 0.415800
H68 H 1.000600 0.564500 0.439000
N69 N 0.415300 1.073330 0.012300
N70 N 0.603800 0.825870 0.102800
H71 H 0.676100 0.797300 0.094200
H72 H 0.527400 0.811000 0.155200
N73 N 0.160000 1.244540 0.163600
C74 C 0.288800 1.054900 0.076200
C75 C 0.252100 0.981770 0.111400
H76 H 0.159700 0.970700 0.147000
C77 C 0.349500 0.926580 0.094400
C78 C 0.491000 0.945170 0.041400
C79 C 0.610400 0.896560 0.031700
C80 C 0.735500 0.918220 -0.051400
C81 C 0.749200 0.990490 -0.112400
H82 H 0.832300 1.004500 -0.171100
C83 C 0.644200 1.040450 -0.088000
H84 H 0.658500 1.088600 -0.123200
C85 C 0.514000 1.019700 -0.009700
C86 C 0.860000 0.866320 -0.072900
H87 H 0.830100 0.824300 -0.140500
H88 H 0.891500 0.850100 0.043900
H89 H 0.938600 0.888300 -0.135400
C90 C 0.297400 0.849250 0.123900
H91 H 0.302100 0.836500 0.249600
H92 H 0.356100 0.815800 0.057300
H93 H 0.200900 0.846400 0.081900
C94 C 0.186900 1.115880 0.103200
C95 C 0.238900 1.184960 0.143700
H96 H 0.336800 1.189900 0.158000
C97 C 0.019500 1.236570 0.137000
H98 H -0.038100 1.277800 0.144300
C99 C -0.043200 1.170700 0.099700
H100 H -0.141300 1.167400 0.085100
C101 C 0.040500 1.109740 0.084200
H102 H -0.000600 1.064500 0.061000
N103 N 0.084700 -0.073330 0.512300
N104 N -0.103800 0.174130 0.602800
H105 H -0.176100 0.202700 0.594200
H106 H -0.027400 0.189000 0.655200
N107 N 0.340000 -0.244540 0.663600
C108 C 0.211200 -0.054900 0.576200
C109 C 0.247900 0.018230 0.611400
H110 H 0.340300 0.029300 0.647000
C111 C 0.150500 0.073420 0.594400
C112 C 0.009000 0.054830 0.541400
C113 C -0.110400 0.103440 0.531700
C114 C -0.235500 0.081780 0.448600
C115 C -0.249200 0.009510 0.387600
H116 H -0.332300 -0.004500 0.328900
C117 C -0.144200 -0.040450 0.412000
H118 H -0.158500 -0.088600 0.376800
C119 C -0.014000 -0.019700 0.490300
C120 C -0.360000 0.133680 0.427100
H121 H -0.330100 0.175700 0.359500
H122 H -0.391500 0.149900 0.543900
H123 H -0.438600 0.111700 0.364600
C124 C 0.202600 0.150750 0.623900
H125 H 0.197900 0.163500 0.749600
H126 H 0.143900 0.184200 0.557300
H127 H 0.299100 0.153600 0.581900
C128 C 0.313100 -0.115880 0.603200
C129 C 0.261100 -0.184960 0.643700
H130 H 0.163200 -0.189900 0.658000
C131 C 0.480500 -0.236570 0.637000
H132 H 0.538100 -0.277800 0.644300
C133 C 0.543200 -0.170700 0.599700
H134 H 0.641300 -0.167400 0.585100
C135 C 0.459500 -0.109740 0.584200
H136 H 0.500600 -0.064500 0.561000

#END
