
#######################################################################
#
#                 Cambridge Crystallographic Data Centre
#                                CCDC 
#
#######################################################################
#
# If this CIF has been generated from an entry in the Cambridge 
# Structural Database, then it will include bibliographic, chemical, 
# crystal, experimental, refinement or atomic coordinate data resulting 
# from the CCDC's data processing and validation procedures.
#
#######################################################################

data_LICLOA
_symmetry_cell_setting           triclinic
_symmetry_space_group_name_H-M   'P -1'
_symmetry_Int_Tables_number      2
_space_group_name_Hall           '-P 1'
loop_
_symmetry_equiv_pos_site_id
_symmetry_equiv_pos_as_xyz
1 x,y,z
2 -x,-y,-z
_cell_length_a                   9.8361(8)
_cell_length_b                   14.5798(11)
_cell_length_c                   15.6882(18)
_cell_angle_alpha                114.634(5)
_cell_angle_beta                 91.671(5)
_cell_angle_gamma                109.150(4)
_cell_volume                     1895.5
loop_
_atom_site_label
_atom_site_type_symbol
_atom_site_fract_x
_atom_site_fract_y
_atom_site_fract_z
C1 C 0.55296(15) 0.85783(11) 0.21519(10)
C2 C 0.54449(16) 0.89633(12) 0.32240(10)
C3 C 0.56852(15) 0.81860(13) 0.35246(11)
C4 C 0.57332(19) 0.82254(17) 0.44258(13)
H1 H 0.5555 0.8768 0.4934
C5 C 0.6060(2) 0.74176(19) 0.45342(15)
H2 H 0.6112 0.7424 0.5130
C6 C 0.6307(2) 0.66062(17) 0.37778(16)
H3 H 0.6524 0.6079 0.3877
C7 C 0.62428(17) 0.65530(14) 0.28703(13)
H4 H 0.6402 0.6001 0.2360
C8 C 0.59269(15) 0.73703(12) 0.27659(11)
C9 C 0.58243(15) 0.75280(11) 0.19020(10)
C10 C 0.68071(14) 0.93887(11) 0.19910(10)
C11 C 0.78315(16) 1.03183(12) 0.27394(11)
H5 H 0.7766 1.0449 0.3367
C12 C 0.89446(16) 1.10502(12) 0.25617(12)
C13 C 0.90607(16) 1.08965(13) 0.16355(13)
C14 C 0.80892(17) 0.99403(15) 0.08926(13)
H6 H 0.8185 0.9792 0.0266
C15 C 0.69789(16) 0.92019(13) 0.10664(11)
H7 H 0.6337 0.8570 0.0554
C16 C 0.40585(14) 0.83686(11) 0.16075(10)
C17 C 0.36875(15) 0.92657(11) 0.17767(12)
H8 H 0.4361 0.9963 0.2171
C18 C 0.23366(15) 0.91320(12) 0.13670(12)
C19 C 0.13207(15) 0.80957(12) 0.07486(11)
C20 C 0.17114(16) 0.72185(12) 0.05627(11)
H9 H 0.1057 0.6525 0.0142
C21 C 0.30604(16) 0.73411(11) 0.09878(10)
H10 H 0.3293 0.6733 0.0856
C22 C 0.2782(2) 1.10188(15) 0.2199(2)
H11 H 0.3012 1.1012 0.2795
H12 H 0.2286 1.1511 0.2290
H13 H 0.3671 1.1252 0.1978
C23 C 1.0072(3) 1.21191(18) 0.41949(15)
H14 H 0.9173 1.2157 0.4400
H15 H 1.0875 1.2780 0.4607
H16 H 1.0222 1.1513 0.4222
N1 N 1.01341(17) 1.16802(14) 0.14919(14)
H17 H 1.0222 1.1586 0.0921
H18 H 1.0714 1.2262 0.1974
N2 N -0.00122(14) 0.80086(12) 0.03260(11)
H19 H -0.0639 0.7381 -0.0074
H20 H -0.0207 0.8582 0.0465
O1 O 0.52413(15) 0.97792(11) 0.37306(9)
O2 O 0.59734(15) 0.69402(10) 0.11286(8)
O3 O 0.99923(14) 1.19844(10) 0.32549(10)
O4 O 0.18608(13) 0.99582(10) 0.15136(11)
C1 C 0.44704(15) 0.14217(11) 0.78481(10)
C2 C 0.45551(16) 0.10367(12) 0.67760(10)
C3 C 0.43148(15) 0.18140(13) 0.64754(11)
C4 C 0.42668(19) 0.17746(17) 0.55742(13)
H1 H 0.4445 0.1232 0.5066
C5 C 0.3940(2) 0.25824(19) 0.54658(15)
H2 H 0.3888 0.2576 0.4870
C6 C 0.3693(2) 0.33938(17) 0.62222(16)
H3 H 0.3476 0.3921 0.6123
C7 C 0.37572(17) 0.34470(14) 0.71297(13)
H4 H 0.3598 0.3999 0.7640
C8 C 0.40731(15) 0.26297(12) 0.72341(11)
C9 C 0.41757(15) 0.24720(11) 0.80980(10)
C10 C 0.31929(14) 0.06113(11) 0.80090(10)
C11 C 0.21685(16) -0.03183(12) 0.72606(11)
H5 H 0.2234 -0.0449 0.6633
C12 C 0.10554(16) -0.10502(12) 0.74383(12)
C13 C 0.09393(16) -0.08965(13) 0.83645(13)
C14 C 0.19108(17) 0.00597(15) 0.91074(13)
H6 H 0.1815 0.0208 0.9734
C15 C 0.30211(16) 0.07981(13) 0.89336(11)
H7 H 0.3663 0.1430 0.9446
C16 C 0.59415(14) 0.16314(11) 0.83925(10)
C17 C 0.63125(15) 0.07343(11) 0.82233(12)
H8 H 0.5639 0.0037 0.7829
C18 C 0.76634(15) 0.08680(12) 0.86330(12)
C19 C 0.86793(15) 0.19043(12) 0.92514(11)
C20 C 0.82886(16) 0.27815(12) 0.94373(11)
H9 H 0.8943 0.3475 0.9858
C21 C 0.69396(16) 0.26589(11) 0.90122(10)
H10 H 0.6707 0.3267 0.9144
C22 C 0.7218(2) -0.10188(15) 0.7801(2)
H11 H 0.6988 -0.1012 0.7205
H12 H 0.7714 -0.1511 0.7710
H13 H 0.6329 -0.1252 0.8022
C23 C -0.0072(3) -0.21191(18) 0.58051(15)
H14 H 0.0827 -0.2157 0.5600
H15 H -0.0875 -0.2780 0.5393
H16 H -0.0222 -0.1513 0.5778
N1 N -0.01341(17) -0.16802(14) 0.85081(14)
H17 H -0.0222 -0.1586 0.9079
H18 H -0.0714 -0.2262 0.8026
N2 N 1.00122(14) 0.19914(12) 0.96740(11)
H19 H 1.0639 0.2619 1.0074
H20 H 1.0207 0.1418 0.9535
O1 O 0.47587(15) 0.02208(11) 0.62694(9)
O2 O 0.40266(15) 0.30598(10) 0.88714(8)
O3 O 0.00077(14) -0.19844(10) 0.67451(10)
O4 O 0.81392(13) 0.00418(10) 0.84864(11)
C24 C 0.04210(14) 0.54944(10) 0.26526(9)
C25 C 0.13789(15) 0.66005(11) 0.35072(10)
C26 C 0.10715(15) 0.74735(11) 0.34004(11)
C27 C 0.1670(2) 0.85881(13) 0.40022(14)
H21 H 0.2390 0.8882 0.4541
C28 C 0.1147(3) 0.92344(15) 0.37633(18)
H22 H 0.1515 0.9981 0.4155
C29 C 0.0080(2) 0.87984(16) 0.29505(18)
H23 H -0.0251 0.9258 0.2811
C30 C -0.04889(18) 0.77012(14) 0.23529(14)
H24 H -0.1196 0.7409 0.1807
C31 C 0.00254(15) 0.70421(12) 0.25891(11)
C32 C -0.03822(15) 0.58552(11) 0.20628(10)
C33 C 0.14512(14) 0.49632(10) 0.21449(10)
C34 C 0.17977(15) 0.49147(11) 0.12828(10)
H25 H 0.1322 0.5161 0.0954
C35 C 0.28482(17) 0.45022(12) 0.09034(11)
H26 H 0.3061 0.4471 0.0320
C36 C 0.35880(16) 0.41349(12) 0.13808(11)
C37 C 0.32316(15) 0.41864(11) 0.22519(11)
C38 C 0.21820(15) 0.45822(11) 0.26210(10)
H27 H 0.1952 0.4598 0.3197
C39 C 0.3816(2) 0.39265(17) 0.35977(15)
H28 H 0.3149 0.4224 0.3887
H29 H 0.4342 0.3693 0.3911
C40 C -0.07160(14) 0.47615(11) 0.29752(9)
C41 C -0.08377(17) 0.50548(12) 0.39190(10)
H30 H -0.0244 0.5743 0.4388
C42 C -0.18332(17) 0.43373(14) 0.41781(11)
H31 H -0.1900 0.4558 0.4818
C43 C -0.27229(15) 0.33077(13) 0.35115(11)
C44 C -0.26496(14) 0.30212(12) 0.25430(10)
C45 C -0.16564(14) 0.37290(11) 0.22823(10)
H32 H -0.1610 0.3520 0.1640
C46 C -0.3675(2) 0.16563(14) 0.09404(12)
H33 H -0.3905 0.2157 0.0771
H34 H -0.4425 0.0944 0.0595
H35 H -0.2748 0.1634 0.0782
N3 N 0.46817(19) 0.37508(16) 0.10425(12)
N4 N -0.36964(14) 0.25635(13) 0.37600(10)
H36 H -0.3757 0.2742 0.4350
H37 H -0.4237 0.1926 0.3324
O5 O 0.22325(13) 0.67230(9) 0.41478(8)
O6 O -0.12135(14) 0.52605(10) 0.13013(9)
O7 O 0.40308(14) 0.38308(11) 0.26856(9)
O8 O -0.35988(12) 0.20002(10) 0.19312(8)
C24 C 0.95790(14) 0.45056(10) 0.73474(9)
C25 C 0.86211(15) 0.33995(11) 0.64928(10)
C26 C 0.89285(15) 0.25265(11) 0.65996(11)
C27 C 0.8330(2) 0.14119(13) 0.59978(14)
H21 H 0.7610 0.1118 0.5459
C28 C 0.8853(3) 0.07656(15) 0.62367(18)
H22 H 0.8485 0.0019 0.5845
C29 C 0.9920(2) 0.12016(16) 0.70495(18)
H23 H 1.0251 0.0742 0.7189
C30 C 1.04889(18) 0.22988(14) 0.76471(14)
H24 H 1.1196 0.2591 0.8193
C31 C 0.99746(15) 0.29579(12) 0.74109(11)
C32 C 1.03822(15) 0.41448(11) 0.79372(10)
C33 C 0.85488(14) 0.50368(10) 0.78551(10)
C34 C 0.82023(15) 0.50853(11) 0.87172(10)
H25 H 0.8678 0.4839 0.9046
C35 C 0.71518(17) 0.54978(12) 0.90966(11)
H26 H 0.6939 0.5529 0.9680
C36 C 0.64120(16) 0.58651(12) 0.86192(11)
C37 C 0.67684(15) 0.58136(11) 0.77481(11)
C38 C 0.78180(15) 0.54178(11) 0.73790(10)
H27 H 0.8048 0.5402 0.6803
C39 C 0.6184(2) 0.60735(17) 0.64023(15)
H28 H 0.6851 0.5776 0.6113
H29 H 0.5658 0.6307 0.6089
C40 C 1.07160(14) 0.52385(11) 0.70248(9)
C41 C 1.08377(17) 0.49452(12) 0.60810(10)
H30 H 1.0244 0.4257 0.5612
C42 C 1.18332(17) 0.56627(14) 0.58219(11)
H31 H 1.1900 0.5442 0.5182
C43 C 1.27229(15) 0.66923(13) 0.64885(11)
C44 C 1.26496(14) 0.69788(12) 0.74570(10)
C45 C 1.16564(14) 0.62710(11) 0.77177(10)
H32 H 1.1610 0.6480 0.8360
C46 C 1.3675(2) 0.83437(14) 0.90596(12)
H33 H 1.3905 0.7843 0.9229
H34 H 1.4425 0.9056 0.9405
H35 H 1.2748 0.8366 0.9218
N3 N 0.53183(19) 0.62492(16) 0.89575(12)
N4 N 1.36964(14) 0.74365(13) 0.62400(10)
H36 H 1.3757 0.7258 0.5650
H37 H 1.4237 0.8074 0.6676
O5 O 0.77675(13) 0.32770(9) 0.58522(8)
O6 O 1.12135(14) 0.47395(10) 0.86987(9)
O7 O 0.59692(14) 0.61692(11) 0.73144(9)
O8 O 1.35988(12) 0.79998(10) 0.80688(8)

#END
