
#######################################################################
#
#                 Cambridge Crystallographic Data Centre
#                                CCDC 
#
#######################################################################
#
# If this CIF has been generated from an entry in the Cambridge 
# Structural Database, then it will include bibliographic, chemical, 
# crystal, experimental, refinement or atomic coordinate data resulting 
# from the CCDC's data processing and validation procedures.
#
#######################################################################

data_LICMIT02
_symmetry_cell_setting           monoclinic
_symmetry_space_group_name_H-M   'P 21/a'
_symmetry_Int_Tables_number      14
_space_group_name_Hall           '-P 2yab'
loop_
_symmetry_equiv_pos_site_id
_symmetry_equiv_pos_as_xyz
1 x,y,z
2 1/2-x,1/2+y,-z
3 -x,-y,-z
4 1/2+x,1/2-y,z
_cell_length_a                   10.586(3)
_cell_length_b                   14.072(2)
_cell_length_c                   9.744(2)
_cell_angle_alpha                90
_cell_angle_beta                 113.89(1)
_cell_angle_gamma                90
_cell_volume                     1327.17
loop_
_atom_site_label
_atom_site_type_symbol
_atom_site_fract_x
_atom_site_fract_y
_atom_site_fract_z
O1 O 0.4200(2) 0.8593(2) 0.8438(3)
O2 O 0.6468(2) 1.0723(2) 0.6630(3)
N1 N 0.5131(3) 0.8987(2) 0.8081(3)
N2 N 0.6247(2) 1.0021(2) 0.7336(3)
C1 C 0.5047(3) 0.9869(2) 0.7507(3)
C2 C 0.6364(3) 0.8449(2) 0.8101(4)
C3 C 0.7313(3) 0.9288(2) 0.8140(4)
C4 C 0.6911(4) 0.7790(3) 0.9442(5)
C5 C 0.5861(5) 0.7895(3) 0.6642(4)
C6 C 0.8267(4) 0.9123(3) 0.7358(5)
C7 C 0.8113(4) 0.9687(3) 0.9711(4)
O3 O 0.2092(2) 0.9402(2) 0.6301(3)
O4 O 0.3797(3) 1.3142(2) 0.7394(3)
C8 C 0.3944(3) 1.0560(2) 0.7191(4)
C9 C 0.2554(3) 1.0314(2) 0.6617(4)
C10 C 0.1573(3) 1.1030(3) 0.629(64)
C11 C 0.1967(3) 1.1969(3) 0.6514(4)
C12 C 0.3345(3) 1.2218(2) 0.7094(4)
C13 C 0.4323(3) 1.1520(2) 0.7444(4)
H1 H 0.064(3) 1.085(2) 0.589(4)
H2 H 0.126(3) 1.242(2) 0.625(3)
H3 H 0.526(3) 1.166(2) 0.783(3)
H4 H 0.773(4) 0.754(3) 0.949(4)
H5 H 0.627(4) 0.727(3) 0.936(4)
H6 H 0.710(4) 0.814(3) 1.038(4)
H7 H 0.556(3) 0.833(2) 0.572(4)
H8 H 0.666(4) 0.755(3) 0.653(4)
H9 H 0.519(4) 0.746(3) 0.666(4)
H10 H 0.773(4) 0.898(3) 0.629(4)
H11 H 0.870(4) 0.966(3) 0.736(4)
H12 H 0.885(3) 0.857(2) 0.780(4)
H13 H 0.754(4) 0.976(2) 1.027(4)
H14 H 0.848(3) 1.031(2) 0.967(4)
H15 H 0.880(4) 0.921(3) 1.030(4)
H16 H 0.272(4) 0.904(3) 0.703(4)
H17 H 0.307(5) 1.352(4) 0.709(6)
O1 O 1.0800(2) 0.3593(2) 0.1562(3)
O2 O 0.8532(2) 0.5723(2) 0.3370(3)
N1 N 0.9869(3) 0.3987(2) 0.1919(3)
N2 N 0.8753(2) 0.5021(2) 0.2664(3)
C1 C 0.9953(3) 0.4869(2) 0.2493(3)
C2 C 0.8636(3) 0.3449(2) 0.1899(4)
C3 C 0.7687(3) 0.4288(2) 0.1860(4)
C4 C 0.8089(4) 0.2790(3) 0.0558(5)
C5 C 0.9139(5) 0.2895(3) 0.3358(4)
C6 C 0.6733(4) 0.4123(3) 0.2642(5)
C7 C 0.6887(4) 0.4687(3) 0.0289(4)
O3 O 1.2908(2) 0.4402(2) 0.3699(3)
O4 O 1.1203(3) 0.8142(2) 0.2606(3)
C8 C 1.1056(3) 0.5560(2) 0.2809(4)
C9 C 1.2446(3) 0.5314(2) 0.3383(4)
C10 C 1.3427(3) 0.6030(3) 0.371(64)
C11 C 1.3033(3) 0.6969(3) 0.3486(4)
C12 C 1.1655(3) 0.7218(2) 0.2906(4)
C13 C 1.0677(3) 0.6520(2) 0.2556(4)
H1 H 1.436(3) 0.585(2) 0.411(4)
H2 H 1.374(3) 0.742(2) 0.375(3)
H3 H 0.974(3) 0.666(2) 0.217(3)
H4 H 0.727(4) 0.254(3) 0.051(4)
H5 H 0.873(4) 0.227(3) 0.064(4)
H6 H 0.790(4) 0.314(3) -0.038(4)
H7 H 0.944(3) 0.333(2) 0.428(4)
H8 H 0.834(4) 0.255(3) 0.347(4)
H9 H 0.981(4) 0.246(3) 0.334(4)
H10 H 0.727(4) 0.398(3) 0.371(4)
H11 H 0.630(4) 0.466(3) 0.264(4)
H12 H 0.615(3) 0.357(2) 0.220(4)
H13 H 0.746(4) 0.476(2) -0.027(4)
H14 H 0.652(3) 0.531(2) 0.033(4)
H15 H 0.620(4) 0.421(3) -0.030(4)
H16 H 1.228(4) 0.404(3) 0.297(4)
H17 H 1.193(5) 0.852(4) 0.291(6)
O1 O 0.5800(2) 0.1407(2) 0.1562(3)
O2 O 0.3532(2) -0.0723(2) 0.3370(3)
N1 N 0.4869(3) 0.1013(2) 0.1919(3)
N2 N 0.3753(2) -0.0021(2) 0.2664(3)
C1 C 0.4953(3) 0.0131(2) 0.2493(3)
C2 C 0.3636(3) 0.1551(2) 0.1899(4)
C3 C 0.2687(3) 0.0712(2) 0.1860(4)
C4 C 0.3089(4) 0.2210(3) 0.0558(5)
C5 C 0.4139(5) 0.2105(3) 0.3358(4)
C6 C 0.1733(4) 0.0877(3) 0.2642(5)
C7 C 0.1887(4) 0.0313(3) 0.0289(4)
O3 O 0.7908(2) 0.0598(2) 0.3699(3)
O4 O 0.6203(3) -0.3142(2) 0.2606(3)
C8 C 0.6056(3) -0.0560(2) 0.2809(4)
C9 C 0.7446(3) -0.0314(2) 0.3383(4)
C10 C 0.8427(3) -0.1030(3) 0.371(64)
C11 C 0.8033(3) -0.1969(3) 0.3486(4)
C12 C 0.6655(3) -0.2218(2) 0.2906(4)
C13 C 0.5677(3) -0.1520(2) 0.2556(4)
H1 H 0.936(3) -0.085(2) 0.411(4)
H2 H 0.874(3) -0.242(2) 0.375(3)
H3 H 0.474(3) -0.166(2) 0.217(3)
H4 H 0.227(4) 0.246(3) 0.051(4)
H5 H 0.373(4) 0.273(3) 0.064(4)
H6 H 0.290(4) 0.186(3) -0.038(4)
H7 H 0.444(3) 0.167(2) 0.428(4)
H8 H 0.334(4) 0.245(3) 0.347(4)
H9 H 0.481(4) 0.254(3) 0.334(4)
H10 H 0.227(4) 0.102(3) 0.371(4)
H11 H 0.130(4) 0.034(3) 0.264(4)
H12 H 0.115(3) 0.143(2) 0.220(4)
H13 H 0.246(4) 0.024(2) -0.027(4)
H14 H 0.152(3) -0.031(2) 0.033(4)
H15 H 0.120(4) 0.079(3) -0.030(4)
H16 H 0.728(4) 0.096(3) 0.297(4)
H17 H 0.693(5) -0.352(4) 0.291(6)
O1 O -0.0800(2) 0.6407(2) 0.8438(3)
O2 O 0.1468(2) 0.4277(2) 0.6630(3)
N1 N 0.0131(3) 0.6013(2) 0.8081(3)
N2 N 0.1247(2) 0.4979(2) 0.7336(3)
C1 C 0.0047(3) 0.5131(2) 0.7507(3)
C2 C 0.1364(3) 0.6551(2) 0.8101(4)
C3 C 0.2313(3) 0.5712(2) 0.8140(4)
C4 C 0.1911(4) 0.7210(3) 0.9442(5)
C5 C 0.0861(5) 0.7105(3) 0.6642(4)
C6 C 0.3267(4) 0.5877(3) 0.7358(5)
C7 C 0.3113(4) 0.5313(3) 0.9711(4)
O3 O -0.2908(2) 0.5598(2) 0.6301(3)
O4 O -0.1203(3) 0.1858(2) 0.7394(3)
C8 C -0.1056(3) 0.4440(2) 0.7191(4)
C9 C -0.2446(3) 0.4686(2) 0.6617(4)
C10 C -0.3427(3) 0.3970(3) 0.629(64)
C11 C -0.3033(3) 0.3031(3) 0.6514(4)
C12 C -0.1655(3) 0.2782(2) 0.7094(4)
C13 C -0.0677(3) 0.3480(2) 0.7444(4)
H1 H -0.436(3) 0.415(2) 0.589(4)
H2 H -0.374(3) 0.258(2) 0.625(3)
H3 H 0.026(3) 0.334(2) 0.783(3)
H4 H 0.273(4) 0.746(3) 0.949(4)
H5 H 0.127(4) 0.773(3) 0.936(4)
H6 H 0.210(4) 0.686(3) 1.038(4)
H7 H 0.056(3) 0.667(2) 0.572(4)
H8 H 0.166(4) 0.745(3) 0.653(4)
H9 H 0.019(4) 0.754(3) 0.666(4)
H10 H 0.273(4) 0.602(3) 0.629(4)
H11 H 0.370(4) 0.534(3) 0.736(4)
H12 H 0.385(3) 0.643(2) 0.780(4)
H13 H 0.254(4) 0.524(2) 1.027(4)
H14 H 0.348(3) 0.469(2) 0.967(4)
H15 H 0.380(4) 0.579(3) 1.030(4)
H16 H -0.228(4) 0.596(3) 0.703(4)
H17 H -0.193(5) 0.148(4) 0.709(6)

#END
