./KACGIG_from_POSCAR.cif_generated_by_CrystalShift
_symmetry_cell_setting triclinic
_symmetry_space_group_name_H-M 'P 1'
loop_
_symmetry_equiv_pos_site_id
_symmetry_equiv_pos_as_xyz
1 x,y,z
_cell_length_a 6.756100
_cell_length_b 14.054000
_cell_length_c 16.203000
_cell_angle_alpha 83.924000
_cell_angle_beta 83.276000
_cell_angle_gamma 79.140000
_cell_volume 1494.985444
loop_
_atom_site_label
_atom_site_type_symbol
_atom_site_fract_x
_atom_site_fract_y
_atom_site_fract_z
H1 H 0.570300 0.232200 0.307700
H2 H 0.340100 0.232500 0.292900
H3 H 0.508100 0.494900 0.313400
H4 H 0.578200 0.434600 0.233500
H5 H 0.676800 0.398500 0.319000
H6 H 0.084400 0.386100 0.301600
H7 H 0.218200 0.433300 0.225800
H8 H 0.155400 0.486800 0.309800
H9 H 0.294900 0.341800 1.058700
H10 H 0.436100 0.276400 0.992000
H11 H 0.313900 0.226000 1.069900
H12 H 0.098900 0.441300 0.956600
H13 H 0.559700 0.895700 0.491200
H14 H -0.023300 0.395000 0.897000
H15 H 0.217300 0.386000 0.879000
H16 H -0.047300 0.216100 1.064500
H17 H -0.172600 0.282800 0.995100
H18 H -0.102100 0.331300 1.069100
H19 H -0.042200 0.959000 0.577000
H20 H 0.085400 0.894000 0.646500
H21 H 0.683700 1.078500 0.096300
H22 H 0.660000 1.052800 0.190300
H23 H -0.140000 0.879100 0.637800
H24 H 0.792400 0.640400 0.327800
H25 H 0.817400 0.535700 0.366500
H26 H 0.397900 -0.327200 1.274400
H27 H 0.804500 1.337500 -0.236300
H28 H 0.593300 1.349200 -0.178900
H29 H 0.602100 1.327200 -0.274400
H30 H 0.406700 -0.349200 1.178900
H31 H 0.195500 -0.337500 1.236300
H32 H 0.182600 0.464300 0.633500
H33 H 0.207600 0.359600 0.672200
H34 H 0.340000 -0.052800 0.809700
H35 H 0.316300 -0.078500 0.903700
H36 H 0.440300 0.104300 0.508800
H37 H 0.429700 0.767800 0.692300
H38 H 0.515100 0.718700 0.777800
H39 H 0.659900 0.767500 0.707100
H40 H 0.491900 0.505100 0.686600
H41 H 0.421800 0.565400 0.766500
H42 H 0.323200 0.601500 0.681000
H43 H 0.915600 0.613900 0.698400
H44 H 1.140000 0.120900 0.362200
H45 H 0.914600 0.106000 0.353500
H46 H 1.042200 0.041000 0.423000
H47 H 0.781800 0.566700 0.774200
H48 H 0.844600 0.513200 0.690200
H49 H 1.102100 0.668700 -0.069100
H50 H 1.172600 0.717200 0.004900
H51 H 1.047300 0.783900 -0.064500
H52 H 0.705100 0.658200 -0.058700
H53 H 0.782700 0.614000 0.121000
H54 H 1.023300 0.605000 0.103000
H55 H 0.901100 0.558700 0.043400
H56 H 0.563900 0.723600 0.008000
H57 H 0.686100 0.774000 -0.069900
H58 H 0.484900 0.281300 0.222200
C59 C 0.896000 0.613000 0.077300
C60 C 0.614700 0.631600 0.678300
C61 C 0.806100 0.576500 0.713400
C62 C 1.065000 0.720800 -0.031600
C63 C 0.867000 0.709400 0.021400
C64 C 1.014400 0.105600 0.392800
C65 C 0.447700 0.570300 0.705600
C66 C 0.931800 0.180800 0.454300
C67 C 0.838100 0.331100 0.486800
C68 C 0.709500 0.575700 0.525100
C69 C 0.548800 0.730600 0.717500
C70 C 0.646500 0.645800 0.586000
C71 C 0.724000 0.629900 0.446500
C72 C 0.663000 0.807000 0.405800
C73 C 0.451200 0.269400 0.282500
C74 C 0.552300 0.429700 0.294400
C75 C 0.193900 0.423500 0.286600
C76 C 0.385300 0.368400 0.321700
C77 C 0.310000 0.283000 1.029300
C78 C 0.104000 0.387000 0.922700
C79 C -0.065000 0.279200 1.031600
C80 C 0.133000 0.290600 0.978600
C81 C -0.014400 0.894400 0.607200
C82 C 0.068200 0.819200 0.545700
C83 C 0.161900 0.668900 0.513200
C84 C 0.290500 0.424300 0.474900
C85 C 0.596000 0.977800 0.379800
C86 C 0.353500 0.354200 0.414000
C87 C 0.276000 0.370100 0.553500
C88 C 0.337000 0.193000 0.594200
C89 C 0.404000 0.022200 0.620200
C90 C 0.293100 0.124000 0.722400
C91 C 0.183900 0.206900 0.919500
C92 C 0.265700 0.057400 0.872600
C93 C 0.706900 0.876000 0.277600
C94 C 0.816100 0.793100 0.080500
C95 C 0.217400 0.103600 0.944400
C96 C 0.734300 0.942600 0.127400
C97 C 0.782600 0.896400 0.055600
C98 C 0.325000 -0.314700 1.224300
C99 C 0.747200 1.082600 -0.107000
C100 C 0.713500 1.206600 -0.198700
C101 C 0.675000 1.314700 -0.224300
C102 C 0.286500 -0.206600 1.198700
C103 C 0.252800 -0.082600 1.107000
C104 C 0.690000 0.717000 -0.029300
N105 N 0.312400 -0.034500 0.860700
N106 N 0.095000 0.722100 0.577200
N107 N 0.104700 0.838300 0.468000
N108 N 0.198600 0.568100 0.527300
N109 N 0.255000 0.522800 0.458800
N110 N 0.379000 0.264900 0.451700
N111 N 0.329900 0.275300 0.537900
N112 N 0.401400 0.108100 0.562300
N113 N 0.346100 0.034200 0.700100
N114 N 0.286000 0.209900 0.672600
N115 N 0.249700 0.132600 0.807900
N116 N 0.784700 0.598500 0.372000
N117 N 0.687600 1.034500 0.139300
N118 N 0.905000 0.277900 0.422800
N119 N 0.205000 0.225500 0.840600
N120 N 0.213300 0.060700 1.025100
N121 N 0.895300 0.161700 0.532000
N122 N 0.801400 0.431900 0.472700
N123 N 0.745000 0.477200 0.541200
N124 N 0.252600 -0.035400 1.025800
N125 N 0.621000 0.735100 0.548300
N126 N 0.670100 0.724700 0.462100
N127 N 0.598600 0.891900 0.437700
N128 N 0.234700 -0.140300 1.251900
N129 N 0.653900 0.965800 0.299900
N130 N 0.714000 0.790100 0.327400
N131 N 0.750300 0.867400 0.192100
N132 N 0.292600 -0.176500 1.114500
N133 N 0.707400 1.176500 -0.114500
N134 N 0.795000 0.774500 0.159400
N135 N 0.786700 0.939300 -0.025100
N136 N 0.747400 1.035400 -0.025800
N137 N 0.765300 1.140300 -0.251900
N138 N 0.215300 0.401500 0.628000
O139 O 0.541900 1.056800 0.408600
O140 O 0.458100 -0.056800 0.591400
S141 S 0.815400 0.262130 0.579110
S142 S 0.202300 -0.031460 1.199410
S143 S 0.184600 0.737870 0.420890
S144 S 0.797700 1.031460 -0.199410

#END
