
#######################################################################
#
#                 Cambridge Crystallographic Data Centre
#                                CCDC 
#
#######################################################################
#
# If this CIF has been generated from an entry in the Cambridge 
# Structural Database, then it will include bibliographic, chemical, 
# crystal, experimental, refinement or atomic coordinate data resulting 
# from the CCDC's data processing and validation procedures.
#
#######################################################################

data_KACHAA
_symmetry_cell_setting           triclinic
_symmetry_space_group_name_H-M   'P -1'
_symmetry_Int_Tables_number      2
_space_group_name_Hall           '-P 1'
loop_
_symmetry_equiv_pos_site_id
_symmetry_equiv_pos_as_xyz
1 x,y,z
2 -x,-y,-z
_cell_length_a                   8.5023(2)
_cell_length_b                   9.1314(2)
_cell_length_c                   10.6477(2)
_cell_angle_alpha                71.5121(15)
_cell_angle_beta                 83.3557(16)
_cell_angle_gamma                72.1792(15)
_cell_volume                     746.224
loop_
_atom_site_label
_atom_site_type_symbol
_atom_site_fract_x
_atom_site_fract_y
_atom_site_fract_z
C1 C 0.6816(3) 1.0530(3) -0.1261(2)
C2 C 0.6576(4) 1.0418(4) -0.2490(3)
H1 H 0.7260 0.9566 -0.2771
C3 C 0.5345(4) 1.1547(4) -0.3297(3)
H2 H 0.5202 1.1453 -0.4118
C4 C 0.4329(4) 1.2805(4) -0.2899(3)
H3 H 0.3496 1.3572 -0.3447
C5 C 0.4550(4) 1.2931(4) -0.1680(3)
H4 H 0.3858 1.3786 -0.1406
C6 C 0.5769(4) 1.1820(3) -0.0872(3)
H5 H 0.5902 1.1924 -0.0053
C7 C 0.8104(3) 0.9280(3) -0.0433(2)
H6 H 0.8777 0.8495 -0.0797
C8 C 0.8414(3) 0.9151(3) 0.0805(2)
H7 H 0.7769 0.9949 0.1166
C9 C 0.9681(3) 0.7861(3) 0.1627(2)
C10 C 0.9907(3) 0.7574(3) 0.2929(2)
C11 C 0.8911(3) 0.8726(3) 0.3656(2)
C12 C 0.8303(4) 1.1425(3) 0.3735(3)
H8 H 0.9000 1.2106 0.3690
H9 H 0.8054 1.0948 0.4660
C13 C 0.6750(5) 1.2409(4) 0.3029(4)
H10 H 0.6993 1.2824 0.2103
H11 H 0.6228 1.3289 0.3384
H12 H 0.6021 1.1753 0.3141
C14 C 1.1152(3) 0.6190(3) 0.3717(2)
C15 C 1.2200(3) 0.4957(3) 0.3063(3)
H13 H 1.2390 0.3895 0.3704
H14 H 1.3265 0.5161 0.2819
O1 O 1.0687(2) 0.68413(19) 0.09321(16)
O2 O 0.8039(2) 0.8388(2) 0.46013(18)
O3 O 0.9177(2) 1.01551(19) 0.31406(16)
O4 O 1.1414(3) 0.6015(2) 0.48510(19)
O5 O 1.2584(3) 0.4356(3) 0.0799(2)
O6 O 0.9966(3) 0.4340(3) 0.2023(2)
S1 S 1.13432(10) 0.49451(8) 0.16597(7)
C1 C 0.3184(3) -0.0530(3) 1.1261(2)
C2 C 0.3424(4) -0.0418(4) 1.2490(3)
H1 H 0.2740 0.0434 1.2771
C3 C 0.4655(4) -0.1547(4) 1.3297(3)
H2 H 0.4798 -0.1453 1.4118
C4 C 0.5671(4) -0.2805(4) 1.2899(3)
H3 H 0.6504 -0.3572 1.3447
C5 C 0.5450(4) -0.2931(4) 1.1680(3)
H4 H 0.6142 -0.3786 1.1406
C6 C 0.4231(4) -0.1820(3) 1.0872(3)
H5 H 0.4098 -0.1924 1.0053
C7 C 0.1896(3) 0.0720(3) 1.0433(2)
H6 H 0.1223 0.1505 1.0797
C8 C 0.1586(3) 0.0849(3) 0.9195(2)
H7 H 0.2231 0.0051 0.8834
C9 C 0.0319(3) 0.2139(3) 0.8373(2)
C10 C 0.0093(3) 0.2426(3) 0.7071(2)
C11 C 0.1089(3) 0.1274(3) 0.6344(2)
C12 C 0.1697(4) -0.1425(3) 0.6265(3)
H8 H 0.1000 -0.2106 0.6310
H9 H 0.1946 -0.0948 0.5340
C13 C 0.3250(5) -0.2409(4) 0.6971(4)
H10 H 0.3007 -0.2824 0.7897
H11 H 0.3772 -0.3289 0.6616
H12 H 0.3979 -0.1753 0.6859
C14 C -0.1152(3) 0.3810(3) 0.6283(2)
C15 C -0.2200(3) 0.5043(3) 0.6937(3)
H13 H -0.2390 0.6105 0.6296
H14 H -0.3265 0.4839 0.7181
O1 O -0.0687(2) 0.31587(19) 0.90679(16)
O2 O 0.1961(2) 0.1612(2) 0.53987(18)
O3 O 0.0823(2) -0.01551(19) 0.68594(16)
O4 O -0.1414(3) 0.3985(2) 0.51490(19)
O5 O -0.2584(3) 0.5644(3) 0.9201(2)
O6 O 0.0034(3) 0.5660(3) 0.7977(2)
S1 S -0.13432(10) 0.50549(8) 0.83403(7)

#END
