./KACHOO_from_POSCAR.cif_generated_by_CrystalShift
_symmetry_cell_setting triclinic
_symmetry_space_group_name_H-M 'P 1'
loop_
_symmetry_equiv_pos_site_id
_symmetry_equiv_pos_as_xyz
1 x,y,z
_cell_length_a 14.359400
_cell_length_b 22.105900
_cell_length_c 8.826400
_cell_angle_alpha 90.000000
_cell_angle_beta 104.710000
_cell_angle_gamma 90.000000
_cell_volume 2709.910306
loop_
_atom_site_label
_atom_site_type_symbol
_atom_site_fract_x
_atom_site_fract_y
_atom_site_fract_z
H1 H 0.185000 0.477300 0.263400
H2 H 0.600300 0.339400 0.870500
H3 H 0.548500 0.383400 0.730300
H4 H 0.327400 0.056800 0.564400
H5 H 0.857200 0.273400 0.673700
H6 H 0.771700 0.256300 0.524600
H7 H 0.404300 0.089400 0.703700
H8 H 0.421000 0.020900 0.658700
H9 H 0.142800 0.773400 0.826300
H10 H 0.520000 0.085300 0.554900
H11 H 0.292700 0.610100 0.742300
H12 H 0.443100 0.052600 0.415500
H13 H 0.411900 0.585800 0.608500
H14 H 0.116100 0.403600 -0.069500
H15 H 0.417600 0.473900 0.576700
H16 H 0.032000 0.329100 -0.253300
H17 H 0.089200 0.227000 -0.164500
H18 H 0.417600 0.026100 0.076700
H19 H 0.411900 -0.085800 0.108500
H20 H 0.292700 -0.110100 0.242300
H21 H 0.729600 0.323600 0.762500
H22 H 0.741700 0.418300 0.890400
H23 H 0.089200 0.273000 0.335500
H24 H 0.681800 0.449800 0.732200
H25 H 0.032000 0.170900 0.246700
H26 H 0.869500 0.398200 0.776500
H27 H 0.116100 0.096400 0.430500
H28 H 0.809200 0.424700 0.612500
H29 H 0.443100 0.447400 0.915500
H30 H 0.520000 0.414700 1.054900
H31 H 0.815000 0.522700 0.736600
H32 H 0.421000 0.479100 1.158700
H33 H 0.404300 0.410600 1.203700
H34 H 0.327400 0.443200 1.064400
H35 H -0.024200 1.063500 -0.373500
H36 H 0.046700 1.097200 -0.229000
H37 H -0.053100 1.070000 -0.210700
H38 H 0.001800 0.971900 -0.234600
H39 H 0.072100 1.005500 -0.089400
H40 H 0.548500 0.116600 1.230300
H41 H 0.600300 0.160600 1.370500
H42 H 0.113400 0.994200 -0.389000
H43 H 0.674300 0.145600 1.100400
H44 H 0.729600 0.176400 1.262500
H45 H 0.185000 1.022700 -0.236600
H46 H 0.741700 0.081700 1.390400
H47 H 0.681800 0.050200 1.232200
H48 H 0.190800 0.924700 -0.112500
H49 H 0.869500 0.101800 1.276500
H50 H 0.809200 0.075300 1.112500
H51 H 0.130500 0.898200 -0.276500
H52 H 0.815000 -0.022700 1.236600
H53 H 0.886600 0.005800 1.389000
H54 H 0.318200 0.949800 -0.232200
H55 H 0.927900 -0.005500 1.089400
H56 H 0.998200 0.028100 1.234600
H57 H 0.258300 0.918300 -0.390400
H58 H 1.053100 -0.070000 1.210700
H59 H 0.953300 -0.097200 1.229000
H60 H 1.024200 -0.063500 1.373500
H61 H 0.228300 0.756300 0.975400
H62 H 0.270400 0.823600 -0.262500
H63 H 0.325700 0.854400 -0.100400
H64 H 0.142800 0.726600 0.326300
H65 H 0.228300 0.743700 0.475400
H66 H 0.399700 0.839400 -0.370500
H67 H 0.451500 0.883400 -0.230300
H68 H 0.857200 0.226600 0.173700
H69 H 0.771700 0.243700 0.024600
H70 H 0.672600 0.556800 -0.064400
H71 H 0.707300 1.110100 0.757700
H72 H 0.595700 0.589400 -0.203700
H73 H 0.588100 1.085800 0.891500
H74 H 0.579000 0.520900 -0.158700
H75 H 0.582400 0.973900 0.923300
H76 H 0.480000 0.585300 -0.054900
H77 H 0.556900 0.552600 0.084500
H78 H 0.883900 0.903600 0.569500
H79 H 0.968000 0.829100 0.753300
H80 H 0.910800 0.727000 0.664500
H81 H 0.886600 0.494200 0.889000
H82 H 0.582400 0.526100 0.423300
H83 H 0.910800 0.773000 1.164500
H84 H 0.588100 0.414200 0.391500
H85 H 0.968000 0.670900 1.253300
H86 H 0.707300 0.389900 0.257700
H87 H 0.883900 0.596400 1.069500
H88 H 0.927900 0.505500 0.589400
H89 H 0.556900 0.947400 0.584500
H90 H 0.480000 0.914700 0.445100
H91 H 0.998200 0.471900 0.734600
H92 H 0.579000 0.979100 0.341300
H93 H 0.595700 0.910600 0.296300
H94 H 0.672600 0.943200 0.435600
H95 H 1.053100 0.570000 0.710700
H96 H 0.953300 0.597200 0.729000
H97 H 1.024200 0.563500 0.873500
H98 H -0.024200 0.436500 0.126500
H99 H 0.046700 0.402800 0.271000
H100 H 0.451500 0.616600 0.269700
H101 H 0.399700 0.660600 0.129500
H102 H -0.053100 0.430000 0.289300
H103 H 0.325700 0.645600 0.399600
H104 H 0.270400 0.676400 0.237500
H105 H 0.001800 0.528100 0.265400
H106 H 0.258300 0.581700 0.109600
H107 H 0.318200 0.550200 0.267800
H108 H 0.072100 0.494500 0.410600
H109 H 0.130500 0.601800 0.223500
H110 H 0.190800 0.575300 0.387500
H111 H 0.113400 0.505800 0.111000
H112 H 0.674300 0.354400 0.600400
C113 C 0.134800 0.508480 0.226600
C114 C 0.049500 0.495000 0.294900
C115 C 0.178300 0.570730 0.272500
C116 C 0.271400 0.582730 0.225200
C117 C 0.000500 0.435900 0.240700
C118 C 0.315600 0.643670 0.284500
C119 C 0.411700 0.653590 0.243600
C120 C 0.437700 0.764150 0.271100
C121 C 0.842500 0.240100 0.063200
C122 C 0.201400 0.319800 0.067000
C123 C 0.533300 0.693740 0.466900
C124 C 0.581800 0.748570 0.548700
C125 C 0.545700 0.807180 0.483500
C126 C 0.999500 0.564100 0.759300
C127 C 0.604000 0.939590 0.382700
C128 C 0.549400 0.917620 0.498500
C129 C 0.950500 0.505000 0.705100
C130 C 0.694000 0.430300 0.282700
C131 C 0.872400 0.638590 1.055800
C132 C 0.627500 0.442600 0.356200
C133 C 0.920000 0.679670 1.160100
C134 C 0.625500 0.506600 0.373000
C135 C 0.886400 0.737500 1.107600
C136 C 0.689800 0.538240 0.312400
C137 C 0.703800 0.603850 0.304000
C138 C 0.657600 0.647590 0.202300
C139 C 0.816300 0.739700 0.969300
C140 C 0.764700 0.708870 0.388000
C141 C 0.816300 0.760300 0.469300
C142 C 0.886400 0.762500 0.607600
C143 C 0.764700 0.791130 0.888000
C144 C 0.920000 0.820330 0.660100
C145 C 0.691000 0.792200 0.751000
C146 C 0.872400 0.861410 0.555800
C147 C 0.657600 0.852410 0.702300
C148 C 0.549400 0.582380 -0.001500
C149 C 0.703800 0.896150 0.804000
C150 C 0.689800 0.961760 0.812400
C151 C 0.604000 0.560410 -0.117300
C152 C 0.625500 0.993400 0.873000
C153 C 0.627500 1.057400 0.856200
C154 C 0.694000 1.069700 0.782700
C155 C 0.545700 0.692820 -0.016500
C156 C 0.581800 0.751430 0.048700
C157 C 0.533300 0.806260 -0.033100
C158 C 0.437700 0.735850 -0.228900
C159 C 0.411700 0.846410 -0.256400
C160 C 0.261000 -0.006600 0.246000
C161 C 0.157500 0.740100 0.436800
C162 C 0.315600 0.856330 -0.215500
C163 C 0.798600 0.819800 0.433000
C164 C 0.157500 0.759900 0.936800
C165 C 0.271400 0.917270 -0.274800
C166 C 0.999500 -0.064100 1.259300
C167 C 0.950500 -0.005000 1.205100
C168 C 0.178300 0.929270 -0.227500
C169 C 0.865200 0.008480 1.273400
C170 C 0.821700 0.070730 1.227500
C171 C 0.134800 0.991520 -0.273400
C172 C 0.728600 0.082730 1.274800
C173 C 0.684400 0.143670 1.215500
C174 C 0.049500 1.005000 -0.205100
C175 C 0.588300 0.153590 1.256400
C176 C 0.562300 0.264150 1.228900
C177 C 0.000500 1.064100 -0.259300
C178 C 0.466700 0.193740 1.033100
C179 C 0.418200 0.248570 0.951300
C180 C 0.454300 0.307180 1.016500
C181 C 0.396000 0.439590 1.117300
C182 C 0.865200 0.491520 0.773400
C183 C 0.450600 0.417620 1.001500
C184 C 0.127600 0.138590 0.444200
C185 C 0.821700 0.429270 0.727500
C186 C 0.080000 0.179670 0.339900
C187 C 0.113600 0.237500 0.392400
C188 C 0.728600 0.417270 0.774800
C189 C 0.183700 0.239700 0.530700
C190 C 0.306000 -0.069700 0.217300
C191 C 0.235300 0.291130 0.612000
C192 C 0.372500 -0.057400 0.143800
C193 C 0.309000 0.292200 0.749000
C194 C 0.374500 0.006600 0.127000
C195 C 0.342400 0.352410 0.797700
C196 C 0.310200 0.038240 0.187600
C197 C 0.296200 0.103850 0.196000
C198 C 0.342400 0.147590 0.297700
C199 C 0.309000 0.207800 0.249000
C200 C 0.235300 0.208870 0.112000
C201 C 0.183700 0.260300 0.030700
C202 C 0.113600 0.262500 -0.107600
C203 C 0.296200 0.396150 0.696000
C204 C 0.080000 0.320330 -0.160100
C205 C 0.310200 0.461760 0.687600
C206 C 0.127600 0.361410 -0.055800
C207 C 0.374500 0.493400 0.627000
C208 C 0.450600 0.082380 0.501500
C209 C 0.372500 0.557400 0.643800
C210 C 0.306000 0.569700 0.717300
C211 C 0.396000 0.060410 0.617300
C212 C 0.739000 0.493400 0.254000
C213 C 0.842500 0.259900 0.563200
C214 C 0.261000 0.506600 0.746000
C215 C 0.454300 0.192820 0.516500
C216 C 0.418200 0.251430 0.451300
C217 C 0.466700 0.306260 0.533100
C218 C 0.562300 0.235850 0.728900
C219 C 0.588300 0.346410 0.756400
C220 C 0.201400 0.180200 0.567000
C221 C 0.739000 1.006600 0.754000
C222 C 0.684400 0.356330 0.715500
C223 C 0.691000 0.707800 0.251000
C224 C 0.798600 0.680200 0.933000
N225 N 0.521030 0.185830 0.646500
N226 N 0.415650 0.141990 0.435300
N227 N 0.348640 0.258780 0.325500
N228 N 0.348640 0.241220 0.825500
N229 N 0.415650 0.358010 0.935300
N230 N 0.521030 0.314170 1.146500
N231 N 0.534860 0.205310 1.171800
N232 N 0.651360 0.741220 0.674500
N233 N 0.584350 0.858010 0.564700
N234 N 0.465140 0.794690 -0.171800
N235 N 0.478970 0.685830 -0.146500
N236 N 0.584350 0.641990 0.064700
N237 N 0.651360 0.758780 0.174500
N238 N 0.478970 0.814170 0.353500
N239 N 0.465140 0.705310 0.328200
N240 N 0.534860 0.294690 0.671800
O241 O 0.622430 0.269300 1.353900
O242 O 0.622430 0.230700 0.853900
O243 O 0.446890 0.356860 0.482800
O244 O 0.553110 0.856860 0.017200
O245 O 0.377570 0.730700 -0.353900
O246 O 0.446890 0.143140 0.982800
O247 O 0.553110 0.643140 0.517200
O248 O 0.377570 0.769300 0.146100
S249 S 0.248600 -0.013620 0.262700
S250 S 0.903700 0.750500 0.634900
S251 S 0.248600 0.513620 0.762700
S252 S 0.792340 0.666770 0.901200
S253 S 0.789370 0.863010 0.955990
S254 S 0.751400 1.013620 0.737300
S255 S 0.210630 0.136990 0.044010
S256 S 0.207660 0.333230 0.098800
S257 S 0.903700 0.749500 1.134900
S258 S 0.751400 0.486380 0.237300
S259 S 0.789370 0.636990 0.455990
S260 S 0.388100 0.007300 0.101400
S261 S 0.611900 0.507300 0.398600
S262 S 0.207660 0.166770 0.598800
S263 S 0.388100 0.492700 0.601400
S264 S 0.096300 0.249500 0.365100
S265 S 0.210630 0.363010 0.544010
S266 S 0.792340 0.833230 0.401200
S267 S 0.611900 0.992700 0.898600
S268 S 0.096300 0.250500 -0.134900
Cl269 Cl 0.883710 0.313790 0.452670
Cl270 Cl 0.105540 0.689650 0.945730
Cl271 Cl 0.116290 0.813790 1.047330
Cl272 Cl 0.105540 0.810350 0.445730
Cl273 Cl 0.116290 0.686210 0.547330
Cl274 Cl 0.894460 0.310350 0.054270
Cl275 Cl 0.883710 0.186210 -0.047330
Cl276 Cl 0.894460 0.189650 0.554270

#END
