./KACJAA_from_POSCAR.cif_generated_by_CrystalShift
_symmetry_cell_setting triclinic
_symmetry_space_group_name_H-M 'P 1'
loop_
_symmetry_equiv_pos_site_id
_symmetry_equiv_pos_as_xyz
1 x,y,z
_cell_length_a 6.830000
_cell_length_b 6.830000
_cell_length_c 46.829000
_cell_angle_alpha 90.000000
_cell_angle_beta 90.000000
_cell_angle_gamma 90.000000
_cell_volume 2184.521338
loop_
_atom_site_label
_atom_site_type_symbol
_atom_site_fract_x
_atom_site_fract_y
_atom_site_fract_z
H1 H 0.710900 -0.105100 0.282900
H2 H 1.209400 -0.030800 0.233000
H3 H 1.030800 -0.209400 0.267000
H4 H 1.105100 0.289100 0.217100
H5 H 0.401500 0.640400 0.221900
H6 H 0.438800 0.721800 0.189600
H7 H 0.582200 0.790900 0.215600
H8 H 0.861400 0.853500 0.194700
H9 H 1.123000 0.957400 0.163200
H10 H 1.257400 0.754100 0.129000
H11 H 1.146400 0.437200 0.123400
H12 H 0.876900 0.308300 0.154300
H13 H 0.394900 0.789100 0.532900
H14 H 0.191700 0.376900 -0.095700
H15 H 0.062800 0.646400 -0.126600
H16 H -0.254100 0.757400 -0.121000
H17 H -0.457400 0.623000 -0.086800
H18 H -0.353500 0.361400 -0.055300
H19 H -0.290900 0.082200 -0.034400
H20 H -0.221800 -0.061200 -0.060400
H21 H -0.140400 -0.098500 -0.028100
H22 H 0.210900 0.605100 -0.032900
H23 H 0.530800 0.709400 -0.017000
H24 H 0.290600 0.469200 0.517000
H25 H 1.098500 1.140400 0.528100
H26 H 1.061200 1.221800 0.560400
H27 H 0.917800 1.290900 0.534400
H28 H 0.623100 0.808300 0.595700
H29 H 0.353600 0.937200 0.626600
H30 H 0.242600 1.254100 0.621000
H31 H 0.377000 1.457400 0.586800
H32 H 0.638600 1.353500 0.555300
H33 H 0.469200 0.290600 0.483000
H34 H 0.361400 -0.353500 0.055300
H35 H 0.623000 -0.457400 0.086800
H36 H 0.757400 -0.254100 0.121000
H37 H 0.646400 0.062800 0.126600
H38 H 0.376900 0.191700 0.095700
H39 H 0.789100 0.394900 0.467100
H40 H 0.082200 -0.290900 0.034400
H41 H -0.061200 -0.221800 0.060400
H42 H -0.098500 -0.140400 0.028100
H43 H 1.140400 1.098500 0.471900
H44 H 1.221800 1.061200 0.439600
H45 H 0.709400 0.530800 0.017000
H46 H 0.605100 0.210900 0.032900
H47 H 0.359600 0.598500 0.278100
H48 H 1.290900 0.917800 0.465600
H49 H 0.278200 0.561200 0.310400
H50 H 1.353500 0.638600 0.444700
H51 H 1.457400 0.377000 0.413200
H52 H 1.254100 0.242600 0.379000
H53 H 0.937200 0.353600 0.373400
H54 H 0.808300 0.623100 0.404300
H55 H 0.146500 0.138600 0.305300
H56 H 0.289100 1.105100 0.782900
H57 H -0.030800 1.209400 0.767000
H58 H 0.640400 0.401500 0.778100
H59 H 0.721800 0.438800 0.810400
H60 H 0.191700 0.376900 0.904300
H61 H 0.062800 0.646400 0.873400
H62 H -0.254100 0.757400 0.879000
H63 H -0.457400 0.623000 0.913200
H64 H -0.353500 0.361400 0.944700
H65 H -0.290900 0.082200 0.965600
H66 H -0.221800 -0.061200 0.939600
H67 H -0.140400 -0.098500 0.971900
H68 H 0.210900 0.605100 0.967100
H69 H 0.530800 0.709400 0.983000
H70 H 0.790900 0.582200 0.784400
H71 H 0.209100 0.417800 0.284400
H72 H 0.308300 0.876900 0.845700
H73 H 0.437200 1.146400 0.876600
H74 H 0.754100 1.257400 0.871000
H75 H 0.957400 1.123000 0.836800
H76 H 0.853500 0.861400 0.805300
H77 H 0.042600 -0.123000 0.336800
H78 H 0.245900 -0.257400 0.371000
H79 H -0.209400 1.030800 0.733000
H80 H 0.361400 -0.353500 1.055300
H81 H 0.623000 -0.457400 1.086800
H82 H 0.757400 -0.254100 1.121000
H83 H 0.646400 0.062800 1.126600
H84 H 0.376900 0.191700 1.095700
H85 H -0.105100 0.710900 0.717100
H86 H 0.082200 -0.290900 1.034400
H87 H -0.061200 -0.221800 1.060400
H88 H -0.098500 -0.140400 1.028100
H89 H 0.598500 0.359600 0.721900
H90 H 0.561200 0.278200 0.689600
H91 H 0.709400 0.530800 1.017000
H92 H 0.605100 0.210900 1.032900
H93 H 0.691700 0.123100 0.345700
H94 H 0.417800 0.209100 0.715600
H95 H 0.562800 -0.146400 0.376600
H96 H 0.138600 0.146500 0.694700
H97 H -0.123000 0.042600 0.663200
H98 H -0.257400 0.245900 0.629000
H99 H -0.146400 0.562800 0.623400
H100 H 0.123100 0.691700 0.654300
B101 B 0.755000 0.462000 0.314300
B102 B 0.538000 0.245000 0.185700
B103 B 0.038000 0.255000 0.064300
B104 B 0.962000 0.745000 0.564300
B105 B 0.255000 0.038000 0.935700
B106 B 0.255000 0.038000 -0.064300
B107 B 0.745000 0.962000 0.435700
B108 B 0.038000 0.255000 1.064300
B109 B 0.245000 0.538000 0.814300
B110 B 0.462000 0.755000 0.685700
C111 C 0.147000 0.429000 0.677700
C112 C 0.584000 0.474000 1.009700
C113 C 0.519000 0.294000 1.019000
C114 C 0.002000 -0.172000 1.042200
C115 C 0.421000 -0.258000 1.070200
C116 C 0.269000 0.839000 0.759300
C117 C 0.568000 -0.320000 1.087500
C118 C 0.642000 -0.208000 1.107500
C119 C 0.069000 0.550000 0.657200
C120 C 0.571000 0.853000 0.822300
C121 C 0.450000 0.931000 0.842800
C122 C 0.521000 1.078000 0.860900
C123 C 0.708000 1.142000 0.857500
C124 C 0.820000 1.068000 0.837500
C125 C 0.758000 0.921000 0.820200
C126 C 0.578000 -0.021000 1.110900
C127 C 0.431000 0.050000 1.092800
C128 C 0.353000 -0.071000 1.072300
C129 C -0.078000 0.479000 0.639100
C130 C 0.328000 0.498000 0.292200
C131 C 0.672000 0.502000 0.792200
C132 C 0.339000 0.231000 1.009300
C133 C 0.474000 0.584000 0.990300
C134 C 0.294000 0.519000 0.981000
C135 C 0.206000 1.019000 0.769000
C136 C 0.026000 1.084000 0.759700
C137 C 0.231000 0.339000 0.990700
C138 C -0.172000 0.002000 0.957800
C139 C -0.258000 0.421000 0.929800
C140 C -0.142000 0.292000 0.642500
C141 C 0.242000 0.079000 0.320200
C142 C 1.071000 0.647000 0.427700
C143 C 0.950000 0.569000 0.407200
C144 C 1.021000 0.422000 0.389100
C145 C 1.208000 0.358000 0.392500
C146 C 1.320000 0.432000 0.412500
C147 C 1.258000 0.579000 0.429800
C148 C 1.172000 0.998000 0.457800
C149 C 0.769000 0.661000 0.490700
C150 C 0.706000 0.481000 0.481000
C151 C 0.526000 0.416000 0.490300
C152 C -0.320000 0.568000 0.912500
C153 C -0.208000 0.642000 0.892500
C154 C -0.068000 0.180000 0.662500
C155 C 0.050000 0.431000 0.907200
C156 C -0.071000 0.353000 0.927700
C157 C -0.084000 0.974000 0.740300
C158 C 0.584000 0.474000 0.009700
C159 C 0.519000 0.294000 0.019000
C160 C 0.002000 -0.172000 0.042200
C161 C 0.421000 -0.258000 0.070200
C162 C 0.661000 0.769000 0.509300
C163 C 0.180000 -0.068000 0.337500
C164 C 0.292000 -0.142000 0.357500
C165 C -0.019000 0.794000 0.731000
C166 C 0.647000 1.071000 0.572300
C167 C 0.569000 0.950000 0.592800
C168 C 0.422000 1.021000 0.610900
C169 C 0.358000 1.208000 0.607500
C170 C 0.432000 1.320000 0.587500
C171 C 0.579000 1.258000 0.570200
C172 C 0.568000 -0.320000 0.087500
C173 C 0.642000 -0.208000 0.107500
C174 C 0.578000 -0.021000 0.110900
C175 C 0.431000 0.050000 0.092800
C176 C 0.353000 -0.071000 0.072300
C177 C 0.998000 1.172000 0.542200
C178 C 0.161000 0.731000 0.740700
C179 C 0.794000 -0.019000 0.269000
C180 C 0.974000 -0.084000 0.259700
C181 C 0.481000 0.706000 0.519000
C182 C 0.416000 0.526000 0.509700
C183 C 0.339000 0.231000 0.009300
C184 C 0.474000 0.584000 -0.009700
C185 C 0.479000 -0.078000 0.360900
C186 C 0.498000 0.328000 0.707800
C187 C 0.550000 0.069000 0.342800
C188 C 0.853000 0.571000 0.177700
C189 C 0.931000 0.450000 0.157200
C190 C 1.078000 0.521000 0.139100
C191 C 1.142000 0.708000 0.142500
C192 C 1.068000 0.820000 0.162500
C193 C 0.921000 0.758000 0.179800
C194 C 0.502000 0.672000 0.207800
C195 C 0.839000 0.269000 0.240700
C196 C 1.019000 0.206000 0.231000
C197 C 1.084000 0.026000 0.240300
C198 C 0.294000 0.519000 -0.019000
C199 C 0.231000 0.339000 -0.009300
C200 C -0.172000 0.002000 -0.042200
C201 C -0.258000 0.421000 -0.070200
C202 C -0.320000 0.568000 -0.087500
C203 C -0.208000 0.642000 -0.107500
C204 C -0.021000 0.578000 -0.110900
C205 C 0.050000 0.431000 -0.092800
C206 C -0.071000 0.353000 -0.072300
C207 C -0.021000 0.578000 0.889100
C208 C 0.731000 0.161000 0.259300
C209 C 0.429000 0.147000 0.322300
C210 C 0.079000 0.242000 0.679800
O211 O 0.231000 0.548000 0.731800
O212 O 0.548000 0.231000 0.268200
O213 O 0.769000 0.452000 0.231800
O214 O 0.269000 0.048000 0.018200
O215 O 0.048000 0.269000 0.981800
O216 O 0.731000 0.952000 0.518200
O217 O 0.952000 0.731000 0.481800
O218 O 0.269000 0.048000 1.018200
O219 O 0.452000 0.769000 0.768200
O220 O 0.048000 0.269000 -0.018200
P221 P 0.525900 0.336200 0.299420
P222 P 0.336200 0.525900 0.700580
P223 P 0.163800 0.025900 1.049420
P224 P 0.974100 0.836200 0.450580
P225 P 0.836200 0.974100 0.549420
P226 P 0.025900 0.163800 0.950580
P227 P 0.163800 0.025900 0.049420
P228 P 0.663800 0.474100 0.200580
P229 P 0.474100 0.663800 0.799420
P230 P 0.025900 0.163800 -0.049420

#END
