./KACLOR_from_POSCAR.cif_generated_by_CrystalShift
_symmetry_cell_setting triclinic
_symmetry_space_group_name_H-M 'P 1'
loop_
_symmetry_equiv_pos_site_id
_symmetry_equiv_pos_as_xyz
1 x,y,z
_cell_length_a 8.545700
_cell_length_b 11.223000
_cell_length_c 13.325000
_cell_angle_alpha 92.781000
_cell_angle_beta 103.496000
_cell_angle_gamma 92.021000
_cell_volume 1239.797092
loop_
_atom_site_label
_atom_site_type_symbol
_atom_site_fract_x
_atom_site_fract_y
_atom_site_fract_z
H1 H 0.671300 0.490800 0.106200
H2 H 0.496200 0.879100 0.522100
H3 H 0.232000 1.024100 0.466400
H4 H 0.269600 0.919200 0.395200
H5 H 0.210700 0.781700 0.503300
H6 H 0.065800 0.865700 0.477200
H7 H 0.191000 0.883000 0.584100
H8 H 0.541700 1.016900 0.405700
H9 H 0.503800 1.120900 0.477900
H10 H 0.768000 0.975900 0.533600
H11 H 0.268900 0.220700 0.625900
H12 H 0.730400 1.080800 0.604800
H13 H 0.789300 1.218300 0.496700
H14 H 0.934200 1.134300 0.522800
H15 H 1.019800 0.300900 0.949800
H16 H 0.896200 0.195900 0.899500
H17 H 0.841100 0.303200 0.960700
H18 H 0.809000 1.117000 0.415900
H19 H 0.853800 0.525000 0.783900
H20 H 0.994400 0.501900 0.878900
H21 H 0.816400 0.501900 0.891200
H22 H 0.458300 -0.016900 0.594300
H23 H 0.951500 0.353600 0.684300
H24 H 0.967300 0.227600 0.730600
H25 H 1.087200 0.333800 0.783000
H26 H 0.496200 -0.120900 0.522100
H27 H 0.296000 0.370000 0.501000
H28 H 0.647000 0.459000 0.567000
H29 H 0.232000 0.024100 0.466400
H30 H 0.269600 -0.080800 0.395200
H31 H 0.210700 -0.218300 0.503300
H32 H 0.065800 -0.134300 0.477200
H33 H 0.191000 -0.117000 0.584100
H34 H 0.541700 0.016900 0.405700
H35 H 0.503800 0.120900 0.477900
H36 H 0.768000 -0.024100 0.533600
H37 H 0.730400 0.080800 0.604800
H38 H 0.789300 0.218300 0.496700
H39 H 0.731100 0.779300 0.374100
H40 H 0.934200 0.134300 0.522800
H41 H 0.809000 0.117000 0.415900
H42 H 0.202000 0.806000 0.871000
H43 H -0.019800 0.699100 0.050200
H44 H 0.103800 0.804100 0.100500
H45 H 0.158900 0.696800 0.039300
H46 H 0.140000 0.526000 0.572000
H47 H 0.146200 0.475000 0.216100
H48 H 0.005600 0.498100 0.121100
H49 H 0.183600 0.498100 0.108800
H50 H 0.469600 0.811400 0.901900
H51 H 0.048500 0.646400 0.315700
H52 H 0.032700 0.772400 0.269400
H53 H -0.087200 0.666200 0.217000
H54 H 0.568200 0.704300 0.949700
H55 H 0.704000 0.630000 0.499000
H56 H 0.353000 0.541000 0.433000
H57 H 0.393200 0.720000 0.964200
H58 H 0.328700 0.509200 0.893800
H59 H 0.501700 0.498900 0.874100
H60 H 0.349600 0.470900 0.783100
H61 H 0.464900 0.624300 0.680800
H62 H 0.611900 0.653900 0.775000
H63 H 0.503000 0.756100 0.727100
H64 H -0.190800 0.782000 0.654300
H65 H 0.798000 0.194000 0.129000
H66 H 0.860000 0.474000 0.428000
H67 H 1.190800 0.218000 0.345700
H68 H 0.530400 0.188600 0.098100
H69 H 0.431800 0.295700 0.050300
H70 H 0.606800 0.280000 0.035800
H71 H 0.497000 0.243900 0.272900
H72 H 0.388100 0.346100 0.225000
H73 H 0.535100 0.375700 0.319200
H74 H 0.458300 0.983100 0.594300
H75 H 0.650400 0.529100 0.216900
H76 H 0.498300 0.501100 0.125900
C77 C 0.606400 0.479580 0.155230
C78 C 0.537200 0.270800 0.082270
C79 C 0.496100 0.326400 0.256780
C80 C 0.605200 0.347800 0.182060
C81 C 0.998100 0.194680 0.227450
C82 C 1.061000 0.102000 0.163620
C83 C 1.087500 0.243090 0.319290
C84 C 1.022600 0.331820 0.374500
C85 C 0.450900 0.957100 0.522800
C86 C 0.276800 0.945800 0.466500
C87 C 0.689500 0.312670 0.757820
C88 C 0.177200 0.861600 0.511800
C89 C 0.618200 0.360780 0.663940
C90 C 0.459800 0.326650 0.613310
C91 C 0.223400 0.683330 0.765870
C92 C 0.135400 0.631190 0.673400
C93 C -0.022600 0.668180 0.625500
C94 C -0.087500 0.756910 0.680710
C95 C 0.864600 0.368810 0.326600
C96 C 0.001900 0.805320 0.772550
C97 C 0.394800 0.652200 0.817940
C98 C 0.503900 0.673600 0.743220
C99 C 0.776600 0.316670 0.234130
C100 C 0.549100 1.042900 0.477200
C101 C 0.374900 0.245140 0.657170
C102 C 0.393600 0.520420 0.844770
C103 C 0.454500 0.201570 0.749430
C104 C 0.723200 1.054200 0.533500
C105 C 0.863600 0.346660 0.815920
C106 C 0.462800 0.729200 0.917730
C107 C 0.909500 0.280500 0.915810
C108 C 0.628800 0.887700 0.197970
C109 C 0.021800 0.687800 0.253030
C110 C -0.061000 0.898000 0.836380
C111 C 0.116000 0.518500 0.154770
C112 C 0.090500 0.719500 0.084190
C113 C 0.822800 0.138400 0.488200
C114 C 0.136400 0.653340 0.184080
C115 C 0.545500 0.798430 0.250570
C116 C 0.625100 0.754860 0.342830
C117 C 0.723200 0.054200 0.533500
C118 C 0.540200 0.673350 0.386690
C119 C 0.381800 0.639220 0.336060
C120 C 0.549100 0.042900 0.477200
C121 C 0.310500 0.687330 0.242180
C122 C 0.884000 0.481500 0.845230
C123 C 0.177200 -0.138400 0.511800
C124 C 0.822800 1.138400 0.488200
C125 C 0.978200 0.312200 0.746970
C126 C 0.371200 0.112300 0.802030
C127 C 0.276800 -0.054200 0.466500
C128 C 0.450900 -0.042900 0.522800
N129 N 0.605400 0.233650 0.799800
N130 N 0.151700 0.769700 0.812770
N131 N 0.848300 0.230300 0.187230
N132 N 0.394600 0.766350 0.200200
O133 O 0.401020 0.375810 0.522230
O134 O 0.702660 0.440530 0.620810
O135 O 0.199020 0.544750 0.623760
O136 O 1.094460 0.379980 0.462860
O137 O 0.598980 0.624190 0.477770
O138 O 0.297340 0.559470 0.379190
O139 O 0.800980 0.455250 0.376240
O140 O -0.094460 0.620020 0.537140
F141 F 0.763600 0.937440 0.260490
F142 F 1.154260 0.151030 0.108280
F143 F 1.143800 0.023970 0.220000
F144 F 0.058640 0.956700 0.906120
F145 F 0.538700 0.976100 0.165000
F146 F 0.677600 0.840150 0.118560
F147 F -0.154260 0.848970 0.891720
F148 F 0.941360 0.043300 0.093880
F149 F 0.461300 0.023900 0.835000
F150 F -0.143800 0.976030 0.780000
F151 F 0.322400 0.159850 0.881440
F152 F 0.236400 0.062560 0.739510

#END
