
#######################################################################
#
#                 Cambridge Crystallographic Data Centre
#                                CCDC 
#
#######################################################################
#
# If this CIF has been generated from an entry in the Cambridge 
# Structural Database, then it will include bibliographic, chemical, 
# crystal, experimental, refinement or atomic coordinate data resulting 
# from the CCDC's data processing and validation procedures.
#
#######################################################################

data_KACNIN
_symmetry_cell_setting           monoclinic
_symmetry_space_group_name_H-M   'P 21/c'
_symmetry_Int_Tables_number      14
_space_group_name_Hall           '-P 2ybc'
loop_
_symmetry_equiv_pos_site_id
_symmetry_equiv_pos_as_xyz
1 x,y,z
2 -x,1/2+y,1/2-z
3 -x,-y,-z
4 x,1/2-y,1/2+z
_cell_length_a                   12.0422(6)
_cell_length_b                   11.9311(6)
_cell_length_c                   13.3770(7)
_cell_angle_alpha                90
_cell_angle_beta                 115.765(3)
_cell_angle_gamma                90
_cell_volume                     1730.89
loop_
_atom_site_label
_atom_site_type_symbol
_atom_site_fract_x
_atom_site_fract_y
_atom_site_fract_z
O1 O 1.27945(11) 1.45748(10) 0.99839(10)
O2 O 1.09055(12) 1.51070(10) 0.91850(13)
O3 O 0.89211(10) 0.96918(8) 0.83399(9)
O4 O 0.65765(10) 0.96574(8) 0.72864(9)
O5 O 0.65239(10) 0.39104(9) 0.49074(9)
N1 N 1.16868(13) 1.43739(11) 0.95138(11)
N2 N 0.70493(13) 0.46012(11) 0.71655(11)
C1 C 1.12917(14) 1.32028(12) 0.93353(12)
C2 C 1.21819(15) 1.23794(13) 0.97282(13)
H1 H 1.3064(17) 1.2580(14) 1.0126(14)
C3 C 1.18121(15) 1.12764(13) 0.95567(13)
H2 H 1.2434(16) 1.0678(15) 0.9818(13)
C4 C 1.05682(14) 1.09998(13) 0.89892(12)
C5 C 0.96941(15) 1.18468(13) 0.86053(13)
H3 H 0.8871(17) 1.1648(14) 0.8223(14)
C6 C 1.00473(15) 1.29645(13) 0.87811(13)
H4 H 0.9432(16) 1.3561(14) 0.8504(13)
C7 C 1.02328(14) 0.97791(13) 0.88075(14)
H5 H 1.0594(14) 0.9392(12) 0.9511(13)
H6 H 1.0540(14) 0.9446(12) 0.8285(12)
C8 C 0.84200(14) 0.86413(12) 0.80844(12)
C9 C 0.71245(14) 0.86261(12) 0.74986(12)
C10 C 0.65228(15) 0.76118(13) 0.71881(13)
H7 H 0.5646(17) 0.7589(14) 0.6763(14)
C11 C 0.71846(14) 0.66049(13) 0.74521(12)
C12 C 0.84585(15) 0.66351(13) 0.80435(12)
H8 H 0.8913(16) 0.5971(15) 0.8223(13)
C13 C 0.90750(16) 0.76488(13) 0.83575(13)
H9 H 0.9934(16) 0.7646(13) 0.8717(13)
C14 C 0.65248(16) 0.55522(13) 0.70240(13)
H10 H 0.5620(17) 0.5603(14) 0.6569(14)
C15 C 0.62507(18) 0.36519(14) 0.65829(15)
H11 H 0.6387(18) 0.3007(16) 0.7136(16)
H12 H 0.5305(17) 0.3870(14) 0.6200(14)
C16 C 0.66261(15) 0.31849(13) 0.57436(13)
C17 C 0.70852(16) 0.22030(14) 0.56084(14)
H13 H 0.7237(16) 0.1580(14) 0.6113(14)
C18 C 0.72883(16) 0.23033(14) 0.46352(14)
H14 H 0.7643(18) 0.1703(15) 0.4315(15)
C19 C 0.69404(16) 0.33420(14) 0.42451(14)
H15 H 0.6871(13) 0.3714(12) 0.3587(12)
C20 C 0.53001(16) 0.96908(15) 0.65306(15)
H16 H 0.5210(15) 0.9338(14) 0.5839(14)
H17 H 0.4814(16) 0.9288(14) 0.6850(13)
H18 H 0.5101(17) 1.0495(16) 0.6451(14)
O1 O -0.27945(11) 0.95748(10) 0.50161(10)
O2 O -0.09055(12) 1.01070(10) 0.58150(13)
O3 O 0.10789(10) 0.46918(8) 0.66601(9)
O4 O 0.34235(10) 0.46574(8) 0.77136(9)
O5 O 0.34761(10) -0.10896(9) 1.00926(9)
N1 N -0.16868(13) 0.93739(11) 0.54862(11)
N2 N 0.29507(13) -0.03988(11) 0.78345(11)
C1 C -0.12917(14) 0.82028(12) 0.56647(12)
C2 C -0.21819(15) 0.73794(13) 0.52718(13)
H1 H -0.3064(17) 0.7580(14) 0.4874(14)
C3 C -0.18121(15) 0.62764(13) 0.54433(13)
H2 H -0.2434(16) 0.5678(15) 0.5182(13)
C4 C -0.05682(14) 0.59998(13) 0.60108(12)
C5 C 0.03059(15) 0.68468(13) 0.63947(13)
H3 H 0.1129(17) 0.6648(14) 0.6777(14)
C6 C -0.00473(15) 0.79645(13) 0.62189(13)
H4 H 0.0568(16) 0.8561(14) 0.6496(13)
C7 C -0.02328(14) 0.47791(13) 0.61925(14)
H5 H -0.0594(14) 0.4392(12) 0.5489(13)
H6 H -0.0540(14) 0.4446(12) 0.6715(12)
C8 C 0.15800(14) 0.36413(12) 0.69156(12)
C9 C 0.28755(14) 0.36261(12) 0.75014(12)
C10 C 0.34772(15) 0.26118(13) 0.78119(13)
H7 H 0.4354(17) 0.2589(14) 0.8237(14)
C11 C 0.28154(14) 0.16049(13) 0.75479(12)
C12 C 0.15415(15) 0.16351(13) 0.69565(12)
H8 H 0.1087(16) 0.0971(15) 0.6777(13)
C13 C 0.09250(16) 0.26488(13) 0.66425(13)
H9 H 0.0066(16) 0.2646(13) 0.6283(13)
C14 C 0.34752(16) 0.05522(13) 0.79760(13)
H10 H 0.4380(17) 0.0603(14) 0.8431(14)
C15 C 0.37493(18) -0.13481(14) 0.84171(15)
H11 H 0.3613(18) -0.1993(16) 0.7864(16)
H12 H 0.4695(17) -0.1130(14) 0.8800(14)
C16 C 0.33739(15) -0.18151(13) 0.92564(13)
C17 C 0.29148(16) -0.27970(14) 0.93916(14)
H13 H 0.2763(16) -0.3420(14) 0.8887(14)
C18 C 0.27117(16) -0.26967(14) 1.03648(14)
H14 H 0.2357(18) -0.3297(15) 1.0685(15)
C19 C 0.30596(16) -0.16580(14) 1.07549(14)
H15 H 0.3129(13) -0.1286(12) 1.1413(12)
C20 C 0.46999(16) 0.46908(15) 0.84694(15)
H16 H 0.4790(15) 0.4338(14) 0.9161(14)
H17 H 0.5186(16) 0.4288(14) 0.8150(13)
H18 H 0.4899(17) 0.5495(16) 0.8549(14)
O1 O -0.27945(11) -0.45748(10) 0.00161(10)
O2 O -0.09055(12) -0.51070(10) 0.08150(13)
O3 O 0.10789(10) 0.03082(8) 0.16601(9)
O4 O 0.34235(10) 0.03426(8) 0.27136(9)
O5 O 0.34761(10) 0.60896(9) 0.50926(9)
N1 N -0.16868(13) -0.43739(11) 0.04862(11)
N2 N 0.29507(13) 0.53988(11) 0.28345(11)
C1 C -0.12917(14) -0.32028(12) 0.06647(12)
C2 C -0.21819(15) -0.23794(13) 0.02718(13)
H1 H -0.3064(17) -0.2580(14) -0.0126(14)
C3 C -0.18121(15) -0.12764(13) 0.04433(13)
H2 H -0.2434(16) -0.0678(15) 0.0182(13)
C4 C -0.05682(14) -0.09998(13) 0.10108(12)
C5 C 0.03059(15) -0.18468(13) 0.13947(13)
H3 H 0.1129(17) -0.1648(14) 0.1777(14)
C6 C -0.00473(15) -0.29645(13) 0.12189(13)
H4 H 0.0568(16) -0.3561(14) 0.1496(13)
C7 C -0.02328(14) 0.02209(13) 0.11925(14)
H5 H -0.0594(14) 0.0608(12) 0.0489(13)
H6 H -0.0540(14) 0.0554(12) 0.1715(12)
C8 C 0.15800(14) 0.13587(12) 0.19156(12)
C9 C 0.28755(14) 0.13739(12) 0.25014(12)
C10 C 0.34772(15) 0.23882(13) 0.28119(13)
H7 H 0.4354(17) 0.2411(14) 0.3237(14)
C11 C 0.28154(14) 0.33951(13) 0.25479(12)
C12 C 0.15415(15) 0.33649(13) 0.19565(12)
H8 H 0.1087(16) 0.4029(15) 0.1777(13)
C13 C 0.09250(16) 0.23512(13) 0.16425(13)
H9 H 0.0066(16) 0.2354(13) 0.1283(13)
C14 C 0.34752(16) 0.44478(13) 0.29760(13)
H10 H 0.4380(17) 0.4397(14) 0.3431(14)
C15 C 0.37493(18) 0.63481(14) 0.34171(15)
H11 H 0.3613(18) 0.6993(16) 0.2864(16)
H12 H 0.4695(17) 0.6130(14) 0.3800(14)
C16 C 0.33739(15) 0.68151(13) 0.42564(13)
C17 C 0.29148(16) 0.77970(14) 0.43916(14)
H13 H 0.2763(16) 0.8420(14) 0.3887(14)
C18 C 0.27117(16) 0.76967(14) 0.53648(14)
H14 H 0.2357(18) 0.8297(15) 0.5685(15)
C19 C 0.30596(16) 0.66580(14) 0.57549(14)
H15 H 0.3129(13) 0.6286(12) 0.6413(12)
C20 C 0.46999(16) 0.03092(15) 0.34694(15)
H16 H 0.4790(15) 0.0662(14) 0.4161(14)
H17 H 0.5186(16) 0.0712(14) 0.3150(13)
H18 H 0.4899(17) -0.0495(16) 0.3549(14)
O1 O 1.27945(11) 0.04252(10) 0.49839(10)
O2 O 1.09055(12) -0.01070(10) 0.41850(13)
O3 O 0.89211(10) 0.53082(8) 0.33399(9)
O4 O 0.65765(10) 0.53426(8) 0.22864(9)
O5 O 0.65239(10) 1.10896(9) -0.00926(9)
N1 N 1.16868(13) 0.06261(11) 0.45138(11)
N2 N 0.70493(13) 1.03988(11) 0.21655(11)
C1 C 1.12917(14) 0.17972(12) 0.43353(12)
C2 C 1.21819(15) 0.26206(13) 0.47282(13)
H1 H 1.3064(17) 0.2420(14) 0.5126(14)
C3 C 1.18121(15) 0.37236(13) 0.45567(13)
H2 H 1.2434(16) 0.4322(15) 0.4818(13)
C4 C 1.05682(14) 0.40002(13) 0.39892(12)
C5 C 0.96941(15) 0.31532(13) 0.36053(13)
H3 H 0.8871(17) 0.3352(14) 0.3223(14)
C6 C 1.00473(15) 0.20355(13) 0.37811(13)
H4 H 0.9432(16) 0.1439(14) 0.3504(13)
C7 C 1.02328(14) 0.52209(13) 0.38075(14)
H5 H 1.0594(14) 0.5608(12) 0.4511(13)
H6 H 1.0540(14) 0.5554(12) 0.3285(12)
C8 C 0.84200(14) 0.63587(12) 0.30844(12)
C9 C 0.71245(14) 0.63739(12) 0.24986(12)
C10 C 0.65228(15) 0.73882(13) 0.21881(13)
H7 H 0.5646(17) 0.7411(14) 0.1763(14)
C11 C 0.71846(14) 0.83951(13) 0.24521(12)
C12 C 0.84585(15) 0.83649(13) 0.30435(12)
H8 H 0.8913(16) 0.9029(15) 0.3223(13)
C13 C 0.90750(16) 0.73512(13) 0.33575(13)
H9 H 0.9934(16) 0.7354(13) 0.3717(13)
C14 C 0.65248(16) 0.94478(13) 0.20240(13)
H10 H 0.5620(17) 0.9397(14) 0.1569(14)
C15 C 0.62507(18) 1.13481(14) 0.15829(15)
H11 H 0.6387(18) 1.1993(16) 0.2136(16)
H12 H 0.5305(17) 1.1130(14) 0.1200(14)
C16 C 0.66261(15) 1.18151(13) 0.07436(13)
C17 C 0.70852(16) 1.27970(14) 0.06084(14)
H13 H 0.7237(16) 1.3420(14) 0.1113(14)
C18 C 0.72883(16) 1.26967(14) -0.03648(14)
H14 H 0.7643(18) 1.3297(15) -0.0685(15)
C19 C 0.69404(16) 1.16580(14) -0.07549(14)
H15 H 0.6871(13) 1.1286(12) -0.1413(12)
C20 C 0.53001(16) 0.53092(15) 0.15306(15)
H16 H 0.5210(15) 0.5662(14) 0.0839(14)
H17 H 0.4814(16) 0.5712(14) 0.1850(13)
H18 H 0.5101(17) 0.4505(16) 0.1451(14)

#END
