
#######################################################################
#
#                 Cambridge Crystallographic Data Centre
#                                CCDC 
#
#######################################################################
#
# If this CIF has been generated from an entry in the Cambridge 
# Structural Database, then it will include bibliographic, chemical, 
# crystal, experimental, refinement or atomic coordinate data resulting 
# from the CCDC's data processing and validation procedures.
#
#######################################################################

data_KACNAF
_symmetry_cell_setting           monoclinic
_symmetry_space_group_name_H-M   'P 21/n'
_symmetry_Int_Tables_number      14
_space_group_name_Hall           '-P 2yn'
loop_
_symmetry_equiv_pos_site_id
_symmetry_equiv_pos_as_xyz
1 x,y,z
2 1/2-x,1/2+y,1/2-z
3 -x,-y,-z
4 1/2+x,1/2-y,1/2+z
_cell_length_a                   13.3227(3)
_cell_length_b                   6.0544(2)
_cell_length_c                   15.7423(3)
_cell_angle_alpha                90
_cell_angle_beta                 109.997(3)
_cell_angle_gamma                90
_cell_volume                     1193.23
loop_
_atom_site_label
_atom_site_type_symbol
_atom_site_fract_x
_atom_site_fract_y
_atom_site_fract_z
O1 O 0.32156(9) 1.7680(2) -0.17577(8)
O2 O 0.15088(9) 1.7120(2) -0.21672(8)
O3 O 0.23286(7) 0.77238(17) 0.04508(6)
O4 O 0.10256(8) 0.44168(18) 0.07602(7)
N1 N 0.24393(10) 1.6600(2) -0.17470(8)
C1 C 0.26321(11) 1.4600(2) -0.11879(9)
C2 C 0.17722(11) 1.3341(3) -0.11770(10)
H1 H 0.1089(16) 1.376(4) -0.1536(13)
C3 C 0.19608(11) 1.1476(3) -0.06359(10)
H2 H 0.1354(14) 1.054(3) -0.0628(12)
C4 C 0.30057(11) 1.0905(2) -0.00950(9)
C5 C 0.38560(11) 1.2213(2) -0.01266(10)
H3 H 0.4562(15) 1.178(3) 0.0247(13)
C6 C 0.36750(11) 1.4057(3) -0.06771(10)
H4 H 0.4257(14) 1.492(3) -0.0720(12)
C7 C 0.32126(10) 0.8986(2) 0.04923(9)
C8 C 0.41181(11) 0.8135(3) 0.11004(9)
H5 H 0.4842(14) 0.877(3) 0.1251(12)
C9 C 0.38161(11) 0.6187(2) 0.14710(9)
C10 C 0.27115(11) 0.6029(2) 0.10521(9)
C11 C 0.20955(11) 0.4351(2) 0.12263(9)
C12 C 0.26345(12) 0.2784(3) 0.18593(9)
H6 H 0.2258(14) 0.156(3) 0.2014(13)
C13 C 0.37521(12) 0.2909(3) 0.22843(10)
H7 H 0.4094 0.1832 0.2705
C14 C 0.43554(11) 0.4562(3) 0.21003(9)
H8 H 0.5096(15) 0.465(3) 0.2369(13)
C15 C 0.04037(13) 0.2644(3) 0.09217(11)
H9 H 0.0687(14) 0.123(3) 0.0785(12)
H10 H 0.0448(16) 0.271(3) 0.1582(14)
H11 H -0.0307(17) 0.292(3) 0.0527(14)
O1 O 0.17844(9) 1.2680(2) 0.67577(8)
O2 O 0.34912(9) 1.2120(2) 0.71672(8)
O3 O 0.26714(7) 0.27238(17) 0.45492(6)
O4 O 0.39744(8) -0.05832(18) 0.42398(7)
N1 N 0.25607(10) 1.1600(2) 0.67470(8)
C1 C 0.23679(11) 0.9600(2) 0.61879(9)
C2 C 0.32278(11) 0.8341(3) 0.61770(10)
H1 H 0.3911(16) 0.876(4) 0.6536(13)
C3 C 0.30392(11) 0.6476(3) 0.56359(10)
H2 H 0.3646(14) 0.554(3) 0.5628(12)
C4 C 0.19943(11) 0.5905(2) 0.50950(9)
C5 C 0.11440(11) 0.7213(2) 0.51266(10)
H3 H 0.0438(15) 0.678(3) 0.4753(13)
C6 C 0.13250(11) 0.9057(3) 0.56771(10)
H4 H 0.0743(14) 0.992(3) 0.5720(12)
C7 C 0.17874(10) 0.3986(2) 0.45077(9)
C8 C 0.08819(11) 0.3135(3) 0.38996(9)
H5 H 0.0158(14) 0.377(3) 0.3749(12)
C9 C 0.11839(11) 0.1187(2) 0.35290(9)
C10 C 0.22885(11) 0.1029(2) 0.39479(9)
C11 C 0.29045(11) -0.0649(2) 0.37737(9)
C12 C 0.23655(12) -0.2216(3) 0.31407(9)
H6 H 0.2742(14) -0.344(3) 0.2986(13)
C13 C 0.12479(12) -0.2091(3) 0.27157(10)
H7 H 0.0906 -0.3168 0.2295
C14 C 0.06446(11) -0.0438(3) 0.28997(9)
H8 H -0.0096(15) -0.035(3) 0.2631(13)
C15 C 0.45963(13) -0.2356(3) 0.40783(11)
H9 H 0.4313(14) -0.377(3) 0.4215(12)
H10 H 0.4552(16) -0.229(3) 0.3418(14)
H11 H 0.5307(17) -0.208(3) 0.4473(14)
O1 O 0.67844(9) -0.7680(2) 1.17577(8)
O2 O 0.84912(9) -0.7120(2) 1.21672(8)
O3 O 0.76714(7) 0.22762(17) 0.95492(6)
O4 O 0.89744(8) 0.55832(18) 0.92398(7)
N1 N 0.75607(10) -0.6600(2) 1.17470(8)
C1 C 0.73679(11) -0.4600(2) 1.11879(9)
C2 C 0.82278(11) -0.3341(3) 1.11770(10)
H1 H 0.8911(16) -0.376(4) 1.1536(13)
C3 C 0.80392(11) -0.1476(3) 1.06359(10)
H2 H 0.8646(14) -0.054(3) 1.0628(12)
C4 C 0.69943(11) -0.0905(2) 1.00950(9)
C5 C 0.61440(11) -0.2213(2) 1.01266(10)
H3 H 0.5438(15) -0.178(3) 0.9753(13)
C6 C 0.63250(11) -0.4057(3) 1.06771(10)
H4 H 0.5743(14) -0.492(3) 1.0720(12)
C7 C 0.67874(10) 0.1014(2) 0.95077(9)
C8 C 0.58819(11) 0.1865(3) 0.88996(9)
H5 H 0.5158(14) 0.123(3) 0.8749(12)
C9 C 0.61839(11) 0.3813(2) 0.85290(9)
C10 C 0.72885(11) 0.3971(2) 0.89479(9)
C11 C 0.79045(11) 0.5649(2) 0.87737(9)
C12 C 0.73655(12) 0.7216(3) 0.81407(9)
H6 H 0.7742(14) 0.844(3) 0.7986(13)
C13 C 0.62479(12) 0.7091(3) 0.77157(10)
H7 H 0.5906 0.8168 0.7295
C14 C 0.56446(11) 0.5438(3) 0.78997(9)
H8 H 0.4904(15) 0.535(3) 0.7631(13)
C15 C 0.95963(13) 0.7356(3) 0.90783(11)
H9 H 0.9313(14) 0.877(3) 0.9215(12)
H10 H 0.9552(16) 0.729(3) 0.8418(14)
H11 H 1.0307(17) 0.708(3) 0.9473(14)
O1 O 0.82156(9) -0.2680(2) 0.32423(8)
O2 O 0.65088(9) -0.2120(2) 0.28328(8)
O3 O 0.73286(7) 0.72762(17) 0.54508(6)
O4 O 0.60256(8) 1.05832(18) 0.57602(7)
N1 N 0.74393(10) -0.1600(2) 0.32530(8)
C1 C 0.76321(11) 0.0400(2) 0.38121(9)
C2 C 0.67722(11) 0.1659(3) 0.38230(10)
H1 H 0.6089(16) 0.124(4) 0.3464(13)
C3 C 0.69608(11) 0.3524(3) 0.43641(10)
H2 H 0.6354(14) 0.446(3) 0.4372(12)
C4 C 0.80057(11) 0.4095(2) 0.49050(9)
C5 C 0.88560(11) 0.2787(2) 0.48734(10)
H3 H 0.9562(15) 0.322(3) 0.5247(13)
C6 C 0.86750(11) 0.0943(3) 0.43229(10)
H4 H 0.9257(14) 0.008(3) 0.4280(12)
C7 C 0.82126(10) 0.6014(2) 0.54923(9)
C8 C 0.91181(11) 0.6865(3) 0.61004(9)
H5 H 0.9842(14) 0.623(3) 0.6251(12)
C9 C 0.88161(11) 0.8813(2) 0.64710(9)
C10 C 0.77115(11) 0.8971(2) 0.60521(9)
C11 C 0.70955(11) 1.0649(2) 0.62263(9)
C12 C 0.76345(12) 1.2216(3) 0.68593(9)
H6 H 0.7258(14) 1.344(3) 0.7014(13)
C13 C 0.87521(12) 1.2091(3) 0.72843(10)
H7 H 0.9094 1.3168 0.7705
C14 C 0.93554(11) 1.0438(3) 0.71003(9)
H8 H 1.0096(15) 1.035(3) 0.7369(13)
C15 C 0.54037(13) 1.2356(3) 0.59217(11)
H9 H 0.5687(14) 1.377(3) 0.5785(12)
H10 H 0.5448(16) 1.229(3) 0.6582(14)
H11 H 0.4693(17) 1.208(3) 0.5527(14)

#END
