
#######################################################################
#
#                 Cambridge Crystallographic Data Centre
#                                CCDC 
#
#######################################################################
#
# If this CIF has been generated from an entry in the Cambridge 
# Structural Database, then it will include bibliographic, chemical, 
# crystal, experimental, refinement or atomic coordinate data resulting 
# from the CCDC's data processing and validation procedures.
#
#######################################################################

data_KACPAI
_symmetry_cell_setting           orthorhombic
_symmetry_space_group_name_H-M   'P b c a'
_symmetry_Int_Tables_number      61
_space_group_name_Hall           '-P 2ac 2ab'
loop_
_symmetry_equiv_pos_site_id
_symmetry_equiv_pos_as_xyz
1 x,y,z
2 1/2-x,-y,1/2+z
3 -x,1/2+y,1/2-z
4 1/2+x,1/2-y,-z
5 -x,-y,-z
6 1/2+x,y,1/2-z
7 x,1/2-y,1/2+z
8 1/2-x,1/2+y,z
_cell_length_a                   13.698(3)
_cell_length_b                   7.6260(15)
_cell_length_c                   38.908(8)
_cell_angle_alpha                90
_cell_angle_beta                 90
_cell_angle_gamma                90
_cell_volume                     4064.37
loop_
_atom_site_label
_atom_site_type_symbol
_atom_site_fract_x
_atom_site_fract_y
_atom_site_fract_z
Cl1 Cl 0.69445(18) 0.6279(3) 0.00307(5)
S1 S 0.79977(11) 0.0841(2) 0.29228(4)
S2 S 0.95065(11) 0.2236(2) 0.33700(4)
O1 O 0.7685(2) 0.4237(5) 0.19979(8)
N1 N 0.9244(3) 0.3482(5) 0.13231(10)
C1 C 1.1708(5) 0.1629(10) 0.12092(18)
H1 H 1.2306 0.1608 0.1322
N2 N 0.8986(3) 0.3180(5) 0.16568(9)
O2 O 0.9174(3) 0.5548(5) 0.23442(9)
C2 C 1.1616(5) 0.0762(10) 0.09075(18)
H2 H 1.2144 0.0151 0.0816
N3 N 0.9224(3) 0.3556(5) 0.27730(10)
C3 C 1.0732(5) 0.0790(9) 0.07361(17)
H3 H 1.0667 0.0212 0.0527
C4 C 0.9948(4) 0.1674(7) 0.08746(15)
H4 H 0.9349 0.1673 0.0762
C5 C 1.0055(3) 0.2551(6) 0.11777(13)
C6 C 1.0935(4) 0.2552(8) 0.13554(14)
H5 H 1.1005 0.3143 0.1563
C7 C 0.8736(4) 0.5309(7) 0.08148(13)
C8 C 0.9628(5) 0.5839(8) 0.06839(17)
H6 H 1.0185 0.5767 0.0819
C9 C 0.9692(6) 0.6484(9) 0.0348(2)
H7 H 1.0292 0.6830 0.0259
C10 C 0.8861(7) 0.6606(9) 0.01494(18)
H8 H 0.8900 0.7030 -0.0074
C11 C 0.7982(6) 0.6103(8) 0.02816(16)
C12 C 0.7913(4) 0.5430(7) 0.06102(13)
H9 H 0.7312 0.5058 0.0694
C13 C 0.8625(3) 0.4670(6) 0.11710(12)
C14 C 0.7941(4) 0.5103(7) 0.14091(13)
H10 H 0.7413 0.5858 0.1382
C15 C 0.8204(3) 0.4169(6) 0.17029(13)
C16 C 0.8035(3) 0.3215(6) 0.22781(12)
H11 H 0.8283 0.2103 0.2194
H12 H 0.7506 0.2978 0.2437
C17 C 0.8840(3) 0.4200(6) 0.24607(12)
C18 C 0.8879(3) 0.2249(6) 0.29871(12)
C19 C 1.0439(4) 0.3702(7) 0.32234(15)
H13 H 1.0608 0.4536 0.3402
H14 H 1.1022 0.3056 0.3160
C20 C 1.0022(4) 0.4629(7) 0.29174(14)
H15 H 0.9774 0.5769 0.2985
H16 H 1.0526 0.4803 0.2746
Cl1 Cl 0.80555(18) 0.3721(3) 0.50307(5)
S1 S 0.70023(11) 0.9159(2) 0.79228(4)
S2 S 0.54935(11) 0.7764(2) 0.83700(4)
O1 O 0.7315(2) 0.5763(5) 0.69979(8)
N1 N 0.5756(3) 0.6518(5) 0.63231(10)
C1 C 0.3292(5) 0.8371(10) 0.62092(18)
H1 H 0.2694 0.8392 0.6322
N2 N 0.6014(3) 0.6820(5) 0.66568(9)
O2 O 0.5826(3) 0.4452(5) 0.73442(9)
C2 C 0.3384(5) 0.9238(10) 0.59075(18)
H2 H 0.2856 0.9849 0.5816
N3 N 0.5776(3) 0.6444(5) 0.77730(10)
C3 C 0.4268(5) 0.9210(9) 0.57361(17)
H3 H 0.4333 0.9788 0.5527
C4 C 0.5052(4) 0.8326(7) 0.58746(15)
H4 H 0.5651 0.8327 0.5762
C5 C 0.4945(3) 0.7449(6) 0.61777(13)
C6 C 0.4065(4) 0.7448(8) 0.63554(14)
H5 H 0.3995 0.6857 0.6563
C7 C 0.6264(4) 0.4691(7) 0.58148(13)
C8 C 0.5372(5) 0.4161(8) 0.56839(17)
H6 H 0.4815 0.4233 0.5819
C9 C 0.5308(6) 0.3516(9) 0.5348(2)
H7 H 0.4708 0.3170 0.5259
C10 C 0.6139(7) 0.3394(9) 0.51494(18)
H8 H 0.6100 0.2970 0.4926
C11 C 0.7018(6) 0.3897(8) 0.52816(16)
C12 C 0.7087(4) 0.4570(7) 0.56102(13)
H9 H 0.7688 0.4942 0.5694
C13 C 0.6375(3) 0.5330(6) 0.61710(12)
C14 C 0.7059(4) 0.4897(7) 0.64091(13)
H10 H 0.7587 0.4142 0.6382
C15 C 0.6796(3) 0.5831(6) 0.67029(13)
C16 C 0.6965(3) 0.6785(6) 0.72781(12)
H11 H 0.6717 0.7897 0.7194
H12 H 0.7494 0.7022 0.7437
C17 C 0.6160(3) 0.5800(6) 0.74607(12)
C18 C 0.6121(3) 0.7751(6) 0.79871(12)
C19 C 0.4561(4) 0.6298(7) 0.82234(15)
H13 H 0.4392 0.5464 0.8402
H14 H 0.3978 0.6944 0.8160
C20 C 0.4978(4) 0.5371(7) 0.79174(14)
H15 H 0.5226 0.4231 0.7985
H16 H 0.4474 0.5197 0.7746
Cl1 Cl 0.30555(18) 1.1279(3) 0.49693(5)
S1 S 0.20023(11) 0.5841(2) 0.20772(4)
S2 S 0.04935(11) 0.7236(2) 0.16300(4)
O1 O 0.2315(2) 0.9237(5) 0.30021(8)
N1 N 0.0756(3) 0.8482(5) 0.36769(10)
C1 C -0.1708(5) 0.6629(10) 0.37908(18)
H1 H -0.2306 0.6608 0.3678
N2 N 0.1014(3) 0.8180(5) 0.33432(9)
O2 O 0.0826(3) 1.0548(5) 0.26558(9)
C2 C -0.1616(5) 0.5762(10) 0.40925(18)
H2 H -0.2144 0.5151 0.4184
N3 N 0.0776(3) 0.8556(5) 0.22270(10)
C3 C -0.0732(5) 0.5790(9) 0.42639(17)
H3 H -0.0667 0.5212 0.4473
C4 C 0.0052(4) 0.6674(7) 0.41254(15)
H4 H 0.0651 0.6673 0.4238
C5 C -0.0055(3) 0.7551(6) 0.38223(13)
C6 C -0.0935(4) 0.7552(8) 0.36446(14)
H5 H -0.1005 0.8143 0.3437
C7 C 0.1264(4) 1.0309(7) 0.41852(13)
C8 C 0.0372(5) 1.0839(8) 0.43161(17)
H6 H -0.0185 1.0767 0.4181
C9 C 0.0308(6) 1.1484(9) 0.4652(2)
H7 H -0.0292 1.1830 0.4741
C10 C 0.1139(7) 1.1606(9) 0.48506(18)
H8 H 0.1100 1.2030 0.5074
C11 C 0.2018(6) 1.1103(8) 0.47184(16)
C12 C 0.2087(4) 1.0430(7) 0.43898(13)
H9 H 0.2688 1.0058 0.4306
C13 C 0.1375(3) 0.9670(6) 0.38290(12)
C14 C 0.2059(4) 1.0103(7) 0.35909(13)
H10 H 0.2587 1.0858 0.3618
C15 C 0.1796(3) 0.9169(6) 0.32971(13)
C16 C 0.1965(3) 0.8215(6) 0.27219(12)
H11 H 0.1717 0.7103 0.2806
H12 H 0.2494 0.7978 0.2563
C17 C 0.1160(3) 0.9200(6) 0.25393(12)
C18 C 0.1121(3) 0.7249(6) 0.20129(12)
C19 C -0.0439(4) 0.8702(7) 0.17766(15)
H13 H -0.0608 0.9536 0.1598
H14 H -0.1022 0.8056 0.1840
C20 C -0.0022(4) 0.9629(7) 0.20826(14)
H15 H 0.0226 1.0769 0.2015
H16 H -0.0526 0.9803 0.2254
Cl1 Cl 0.19445(18) -0.1279(3) 0.99693(5)
S1 S 0.29977(11) 0.4159(2) 0.70772(4)
S2 S 0.45065(11) 0.2764(2) 0.66300(4)
O1 O 0.2685(2) 0.0763(5) 0.80021(8)
N1 N 0.4244(3) 0.1518(5) 0.86769(10)
C1 C 0.6708(5) 0.3371(10) 0.87908(18)
H1 H 0.7306 0.3392 0.8678
N2 N 0.3986(3) 0.1820(5) 0.83432(9)
O2 O 0.4174(3) -0.0548(5) 0.76558(9)
C2 C 0.6616(5) 0.4238(10) 0.90925(18)
H2 H 0.7144 0.4849 0.9184
N3 N 0.4224(3) 0.1444(5) 0.72270(10)
C3 C 0.5732(5) 0.4210(9) 0.92639(17)
H3 H 0.5667 0.4788 0.9473
C4 C 0.4948(4) 0.3326(7) 0.91254(15)
H4 H 0.4349 0.3327 0.9238
C5 C 0.5055(3) 0.2449(6) 0.88223(13)
C6 C 0.5935(4) 0.2448(8) 0.86446(14)
H5 H 0.6005 0.1857 0.8437
C7 C 0.3736(4) -0.0309(7) 0.91852(13)
C8 C 0.4628(5) -0.0839(8) 0.93161(17)
H6 H 0.5185 -0.0767 0.9181
C9 C 0.4692(6) -0.1484(9) 0.9652(2)
H7 H 0.5292 -0.1830 0.9741
C10 C 0.3861(7) -0.1606(9) 0.98506(18)
H8 H 0.3900 -0.2030 1.0074
C11 C 0.2982(6) -0.1103(8) 0.97184(16)
C12 C 0.2913(4) -0.0430(7) 0.93898(13)
H9 H 0.2312 -0.0058 0.9306
C13 C 0.3625(3) 0.0330(6) 0.88290(12)
C14 C 0.2941(4) -0.0103(7) 0.85909(13)
H10 H 0.2413 -0.0858 0.8618
C15 C 0.3204(3) 0.0831(6) 0.82971(13)
C16 C 0.3035(3) 0.1785(6) 0.77219(12)
H11 H 0.3283 0.2897 0.7806
H12 H 0.2506 0.2022 0.7563
C17 C 0.3840(3) 0.0800(6) 0.75393(12)
C18 C 0.3879(3) 0.2751(6) 0.70129(12)
C19 C 0.5439(4) 0.1298(7) 0.67766(15)
H13 H 0.5608 0.0464 0.6598
H14 H 0.6022 0.1944 0.6840
C20 C 0.5022(4) 0.0371(7) 0.70826(14)
H15 H 0.4774 -0.0769 0.7015
H16 H 0.5526 0.0197 0.7254
Cl1 Cl 0.30555(18) 0.3721(3) 0.99693(5)
S1 S 0.20023(11) 0.9159(2) 0.70772(4)
S2 S 0.04935(11) 0.7764(2) 0.66300(4)
O1 O 0.2315(2) 0.5763(5) 0.80021(8)
N1 N 0.0756(3) 0.6518(5) 0.86769(10)
C1 C -0.1708(5) 0.8371(10) 0.87908(18)
H1 H -0.2306 0.8392 0.8678
N2 N 0.1014(3) 0.6820(5) 0.83432(9)
O2 O 0.0826(3) 0.4452(5) 0.76558(9)
C2 C -0.1616(5) 0.9238(10) 0.90925(18)
H2 H -0.2144 0.9849 0.9184
N3 N 0.0776(3) 0.6444(5) 0.72270(10)
C3 C -0.0732(5) 0.9210(9) 0.92639(17)
H3 H -0.0667 0.9788 0.9473
C4 C 0.0052(4) 0.8326(7) 0.91254(15)
H4 H 0.0651 0.8327 0.9238
C5 C -0.0055(3) 0.7449(6) 0.88223(13)
C6 C -0.0935(4) 0.7448(8) 0.86446(14)
H5 H -0.1005 0.6857 0.8437
C7 C 0.1264(4) 0.4691(7) 0.91852(13)
C8 C 0.0372(5) 0.4161(8) 0.93161(17)
H6 H -0.0185 0.4233 0.9181
C9 C 0.0308(6) 0.3516(9) 0.9652(2)
H7 H -0.0292 0.3170 0.9741
C10 C 0.1139(7) 0.3394(9) 0.98506(18)
H8 H 0.1100 0.2970 1.0074
C11 C 0.2018(6) 0.3897(8) 0.97184(16)
C12 C 0.2087(4) 0.4570(7) 0.93898(13)
H9 H 0.2688 0.4942 0.9306
C13 C 0.1375(3) 0.5330(6) 0.88290(12)
C14 C 0.2059(4) 0.4897(7) 0.85909(13)
H10 H 0.2587 0.4142 0.8618
C15 C 0.1796(3) 0.5831(6) 0.82971(13)
C16 C 0.1965(3) 0.6785(6) 0.77219(12)
H11 H 0.1717 0.7897 0.7806
H12 H 0.2494 0.7022 0.7563
C17 C 0.1160(3) 0.5800(6) 0.75393(12)
C18 C 0.1121(3) 0.7751(6) 0.70129(12)
C19 C -0.0439(4) 0.6298(7) 0.67766(15)
H13 H -0.0608 0.5464 0.6598
H14 H -0.1022 0.6944 0.6840
C20 C -0.0022(4) 0.5371(7) 0.70826(14)
H15 H 0.0226 0.4231 0.7015
H16 H -0.0526 0.5197 0.7254
Cl1 Cl 0.19445(18) 0.6279(3) 0.49693(5)
S1 S 0.29977(11) 0.0841(2) 0.20772(4)
S2 S 0.45065(11) 0.2236(2) 0.16300(4)
O1 O 0.2685(2) 0.4237(5) 0.30021(8)
N1 N 0.4244(3) 0.3482(5) 0.36769(10)
C1 C 0.6708(5) 0.1629(10) 0.37908(18)
H1 H 0.7306 0.1608 0.3678
N2 N 0.3986(3) 0.3180(5) 0.33432(9)
O2 O 0.4174(3) 0.5548(5) 0.26558(9)
C2 C 0.6616(5) 0.0762(10) 0.40925(18)
H2 H 0.7144 0.0151 0.4184
N3 N 0.4224(3) 0.3556(5) 0.22270(10)
C3 C 0.5732(5) 0.0790(9) 0.42639(17)
H3 H 0.5667 0.0212 0.4473
C4 C 0.4948(4) 0.1674(7) 0.41254(15)
H4 H 0.4349 0.1673 0.4238
C5 C 0.5055(3) 0.2551(6) 0.38223(13)
C6 C 0.5935(4) 0.2552(8) 0.36446(14)
H5 H 0.6005 0.3143 0.3437
C7 C 0.3736(4) 0.5309(7) 0.41852(13)
C8 C 0.4628(5) 0.5839(8) 0.43161(17)
H6 H 0.5185 0.5767 0.4181
C9 C 0.4692(6) 0.6484(9) 0.4652(2)
H7 H 0.5292 0.6830 0.4741
C10 C 0.3861(7) 0.6606(9) 0.48506(18)
H8 H 0.3900 0.7030 0.5074
C11 C 0.2982(6) 0.6103(8) 0.47184(16)
C12 C 0.2913(4) 0.5430(7) 0.43898(13)
H9 H 0.2312 0.5058 0.4306
C13 C 0.3625(3) 0.4670(6) 0.38290(12)
C14 C 0.2941(4) 0.5103(7) 0.35909(13)
H10 H 0.2413 0.5858 0.3618
C15 C 0.3204(3) 0.4169(6) 0.32971(13)
C16 C 0.3035(3) 0.3215(6) 0.27219(12)
H11 H 0.3283 0.2103 0.2806
H12 H 0.2506 0.2978 0.2563
C17 C 0.3840(3) 0.4200(6) 0.25393(12)
C18 C 0.3879(3) 0.2249(6) 0.20129(12)
C19 C 0.5439(4) 0.3702(7) 0.17766(15)
H13 H 0.5608 0.4536 0.1598
H14 H 0.6022 0.3056 0.1840
C20 C 0.5022(4) 0.4629(7) 0.20826(14)
H15 H 0.4774 0.5769 0.2015
H16 H 0.5526 0.4803 0.2254
Cl1 Cl 0.69445(18) -0.1279(3) 0.50307(5)
S1 S 0.79977(11) 0.4159(2) 0.79228(4)
S2 S 0.95065(11) 0.2764(2) 0.83700(4)
O1 O 0.7685(2) 0.0763(5) 0.69979(8)
N1 N 0.9244(3) 0.1518(5) 0.63231(10)
C1 C 1.1708(5) 0.3371(10) 0.62092(18)
H1 H 1.2306 0.3392 0.6322
N2 N 0.8986(3) 0.1820(5) 0.66568(9)
O2 O 0.9174(3) -0.0548(5) 0.73442(9)
C2 C 1.1616(5) 0.4238(10) 0.59075(18)
H2 H 1.2144 0.4849 0.5816
N3 N 0.9224(3) 0.1444(5) 0.77730(10)
C3 C 1.0732(5) 0.4210(9) 0.57361(17)
H3 H 1.0667 0.4788 0.5527
C4 C 0.9948(4) 0.3326(7) 0.58746(15)
H4 H 0.9349 0.3327 0.5762
C5 C 1.0055(3) 0.2449(6) 0.61777(13)
C6 C 1.0935(4) 0.2448(8) 0.63554(14)
H5 H 1.1005 0.1857 0.6563
C7 C 0.8736(4) -0.0309(7) 0.58148(13)
C8 C 0.9628(5) -0.0839(8) 0.56839(17)
H6 H 1.0185 -0.0767 0.5819
C9 C 0.9692(6) -0.1484(9) 0.5348(2)
H7 H 1.0292 -0.1830 0.5259
C10 C 0.8861(7) -0.1606(9) 0.51494(18)
H8 H 0.8900 -0.2030 0.4926
C11 C 0.7982(6) -0.1103(8) 0.52816(16)
C12 C 0.7913(4) -0.0430(7) 0.56102(13)
H9 H 0.7312 -0.0058 0.5694
C13 C 0.8625(3) 0.0330(6) 0.61710(12)
C14 C 0.7941(4) -0.0103(7) 0.64091(13)
H10 H 0.7413 -0.0858 0.6382
C15 C 0.8204(3) 0.0831(6) 0.67029(13)
C16 C 0.8035(3) 0.1785(6) 0.72781(12)
H11 H 0.8283 0.2897 0.7194
H12 H 0.7506 0.2022 0.7437
C17 C 0.8840(3) 0.0800(6) 0.74607(12)
C18 C 0.8879(3) 0.2751(6) 0.79871(12)
C19 C 1.0439(4) 0.1298(7) 0.82234(15)
H13 H 1.0608 0.0464 0.8402
H14 H 1.1022 0.1944 0.8160
C20 C 1.0022(4) 0.0371(7) 0.79174(14)
H15 H 0.9774 -0.0769 0.7985
H16 H 1.0526 0.0197 0.7746
Cl1 Cl 0.80555(18) 1.1279(3) 0.00307(5)
S1 S 0.70023(11) 0.5841(2) 0.29228(4)
S2 S 0.54935(11) 0.7236(2) 0.33700(4)
O1 O 0.7315(2) 0.9237(5) 0.19979(8)
N1 N 0.5756(3) 0.8482(5) 0.13231(10)
C1 C 0.3292(5) 0.6629(10) 0.12092(18)
H1 H 0.2694 0.6608 0.1322
N2 N 0.6014(3) 0.8180(5) 0.16568(9)
O2 O 0.5826(3) 1.0548(5) 0.23442(9)
C2 C 0.3384(5) 0.5762(10) 0.09075(18)
H2 H 0.2856 0.5151 0.0816
N3 N 0.5776(3) 0.8556(5) 0.27730(10)
C3 C 0.4268(5) 0.5790(9) 0.07361(17)
H3 H 0.4333 0.5212 0.0527
C4 C 0.5052(4) 0.6674(7) 0.08746(15)
H4 H 0.5651 0.6673 0.0762
C5 C 0.4945(3) 0.7551(6) 0.11777(13)
C6 C 0.4065(4) 0.7552(8) 0.13554(14)
H5 H 0.3995 0.8143 0.1563
C7 C 0.6264(4) 1.0309(7) 0.08148(13)
C8 C 0.5372(5) 1.0839(8) 0.06839(17)
H6 H 0.4815 1.0767 0.0819
C9 C 0.5308(6) 1.1484(9) 0.0348(2)
H7 H 0.4708 1.1830 0.0259
C10 C 0.6139(7) 1.1606(9) 0.01494(18)
H8 H 0.6100 1.2030 -0.0074
C11 C 0.7018(6) 1.1103(8) 0.02816(16)
C12 C 0.7087(4) 1.0430(7) 0.06102(13)
H9 H 0.7688 1.0058 0.0694
C13 C 0.6375(3) 0.9670(6) 0.11710(12)
C14 C 0.7059(4) 1.0103(7) 0.14091(13)
H10 H 0.7587 1.0858 0.1382
C15 C 0.6796(3) 0.9169(6) 0.17029(13)
C16 C 0.6965(3) 0.8215(6) 0.22781(12)
H11 H 0.6717 0.7103 0.2194
H12 H 0.7494 0.7978 0.2437
C17 C 0.6160(3) 0.9200(6) 0.24607(12)
C18 C 0.6121(3) 0.7249(6) 0.29871(12)
C19 C 0.4561(4) 0.8702(7) 0.32234(15)
H13 H 0.4392 0.9536 0.3402
H14 H 0.3978 0.8056 0.3160
C20 C 0.4978(4) 0.9629(7) 0.29174(14)
H15 H 0.5226 1.0769 0.2985
H16 H 0.4474 0.9803 0.2746

#END
