./KACQOW_from_POSCAR.cif_generated_by_CrystalShift
_symmetry_cell_setting triclinic
_symmetry_space_group_name_H-M 'P 1'
loop_
_symmetry_equiv_pos_site_id
_symmetry_equiv_pos_as_xyz
1 x,y,z
_cell_length_a 8.167500
_cell_length_b 8.687500
_cell_length_c 16.597200
_cell_angle_alpha 92.909000
_cell_angle_beta 92.682000
_cell_angle_gamma 106.820000
_cell_volume 1123.492064
loop_
_atom_site_label
_atom_site_type_symbol
_atom_site_fract_x
_atom_site_fract_y
_atom_site_fract_z
H1 H 1.391000 0.869000 0.920400
H2 H 1.437000 0.700000 1.013000
H3 H 1.280000 0.443000 1.017000
H4 H 1.059000 0.360000 0.917000
H5 H 1.007000 0.521000 0.827900
H6 H 1.010000 1.001000 0.718000
H7 H 0.802000 1.122000 0.748000
H8 H 0.027000 0.741000 0.374200
H9 H 0.682000 1.099000 0.869000
H10 H -0.280000 0.573000 0.346000
H11 H 0.766000 0.949000 0.966000
H12 H 0.284000 0.513000 0.447300
H13 H 0.290000 0.688000 0.443600
H14 H 0.971000 0.822000 0.933100
H15 H 1.472000 0.882000 0.728100
H16 H 0.241000 0.376000 0.295000
H17 H 1.380000 0.716000 0.753500
H18 H 0.365000 0.371000 0.174000
H19 H 1.436000 0.715000 0.614000
H20 H 0.578000 0.619000 0.149000
H21 H 1.330000 0.831000 0.600200
H22 H 0.620000 0.827000 0.241000
H23 H 0.505000 0.181000 0.643600
H24 H 0.495000 0.819000 0.356400
H25 H 0.380000 0.173000 0.759000
H26 H -0.330000 0.169000 0.399800
H27 H -0.436000 0.285000 0.386000
H28 H 0.422000 0.381000 0.851000
H29 H -0.380000 0.284000 0.246500
H30 H -0.472000 0.118000 0.271900
H31 H 0.635000 0.629000 0.826000
H32 H 0.759000 0.624000 0.705000
H33 H 0.710000 0.312000 0.556400
H34 H 0.029000 0.178000 0.066900
H35 H 0.716000 0.487000 0.552700
H36 H 0.234000 0.051000 0.034000
H37 H 1.280000 0.427000 0.654000
H38 H 0.318000 -0.099000 0.131000
H39 H 0.973000 0.259000 0.625800
H40 H 0.198000 -0.122000 0.252000
H41 H -0.391000 0.131000 0.079600
H42 H -0.010000 -0.001000 0.282000
H43 H -0.437000 0.300000 -0.013000
H44 H -0.280000 0.557000 -0.017000
H45 H -0.007000 0.479000 0.172100
H46 H -0.059000 0.640000 0.083000
C47 C -0.124400 0.545000 0.079400
C48 C -0.256500 0.489900 0.022000
C49 C -0.089900 0.444800 0.135700
C50 C -0.358800 0.333300 0.021800
C51 C -0.191100 0.286300 0.135220
C52 C -0.327100 0.232000 0.077970
C53 C 0.039900 0.007500 0.232520
C54 C 1.358800 0.666700 0.978200
C55 C 1.256500 0.510100 0.978000
C56 C 1.124400 0.455000 0.920600
C57 C 1.089900 0.555200 0.864300
C58 C 1.191100 0.713700 0.864780
C59 C 1.032100 0.613400 0.594260
C60 C 1.021400 0.360300 0.623920
C61 C 0.165200 -0.064400 0.215300
C62 C 1.184100 0.449300 0.636380
C63 C 0.236800 -0.049800 0.141500
C64 C 0.742900 0.411700 0.583350
C65 C 0.184500 0.038200 0.084800
C66 C 0.059800 0.113200 0.101770
C67 C 0.651900 0.402800 0.660910
C68 C 0.689600 0.536000 0.716280
C69 C -0.015600 0.097100 0.175530
C70 C 0.608000 0.529500 0.787430
C71 C -0.153300 0.173100 0.194360
C72 C 0.485900 0.389200 0.804000
C73 C -0.371400 0.198700 0.280120
C74 C 0.447700 0.257500 0.749800
C75 C -0.343200 0.256900 0.368890
C76 C 0.530100 0.263200 0.678300
C77 C 0.469900 0.736800 0.321700
C78 C 1.343200 0.743100 0.631110
C79 C 0.552300 0.742500 0.250200
C80 C 0.514100 0.610800 0.196000
C81 C 1.371400 0.801300 0.719880
C82 C 0.392000 0.470500 0.212570
C83 C 0.310400 0.464000 0.283720
C84 C 1.153300 0.826900 0.805640
C85 C 1.015600 0.902900 0.824470
C86 C 0.940200 0.886800 0.898230
C87 C 0.348100 0.597200 0.339090
C88 C 0.815500 0.961800 0.915200
C89 C 0.257100 0.588300 0.416650
C90 C 0.763200 1.049800 0.858500
C91 C -0.184100 0.550700 0.363620
C92 C 0.834800 1.064400 0.784700
C93 C -0.021400 0.639700 0.376080
C94 C 0.960100 0.992500 0.767480
C95 C -0.032100 0.386600 0.405740
C96 C 1.327100 0.768000 0.922030
N97 N 1.189700 0.605000 0.617490
N98 N -0.234600 0.132100 0.257530
N99 N 0.929100 0.461200 0.598210
N100 N -0.189700 0.395000 0.382510
N101 N 1.234600 0.867900 0.742470
N102 N 0.070900 0.538800 0.401790
Br103 Br 0.251640 0.034100 0.472014
Br104 Br 0.748360 0.965900 0.527986
Ag105 Ag 0.956740 0.810560 0.554761
Ag106 Ag 0.043260 0.189440 0.445239

#END
