
#######################################################################
#
#                 Cambridge Crystallographic Data Centre
#                                CCDC 
#
#######################################################################
#
# If this CIF has been generated from an entry in the Cambridge 
# Structural Database, then it will include bibliographic, chemical, 
# crystal, experimental, refinement or atomic coordinate data resulting 
# from the CCDC's data processing and validation procedures.
#
#######################################################################

data_KACQEL
_symmetry_cell_setting           monoclinic
_symmetry_space_group_name_H-M   'P 21/c'
_symmetry_Int_Tables_number      14
_space_group_name_Hall           '-P 2ybc'
loop_
_symmetry_equiv_pos_site_id
_symmetry_equiv_pos_as_xyz
1 x,y,z
2 x,1/2-y,1/2+z
3 -x,-y,-z
4 -x,1/2+y,1/2-z
_cell_length_a                   8.5752(6)
_cell_length_b                   8.3814(9)
_cell_length_c                   25.275(3)
_cell_angle_alpha                90
_cell_angle_beta                 96.273(8)
_cell_angle_gamma                90
_cell_volume                     1805.69
loop_
_atom_site_label
_atom_site_type_symbol
_atom_site_fract_x
_atom_site_fract_y
_atom_site_fract_z
O1 O 0.32095(10) 0.22559(10) 0.53536(3)
O2 O 0.50715(11) 0.45389(10) 0.56667(4)
O3 O 0.33421(10) 0.37066(10) 0.28820(3)
O4 O 0.08963(9) 0.23405(10) 0.31755(3)
C1 C 0.07896(14) 0.17722(14) 0.48286(5)
C2 C 0.07135(13) 0.14592(14) 0.42874(5)
H1 H 0.1490 0.0802 0.4157
C3 C -0.04819(13) 0.20910(14) 0.39311(5)
C4 C -0.16182(14) 0.30487(14) 0.41241(5)
H2 H -0.2440 0.3484 0.3885
C5 C -0.15564(15) 0.33716(15) 0.46658(5)
H3 H -0.2334 0.4027 0.4796
C6 C -0.03585(15) 0.27358(15) 0.50161(5)
H4 H -0.0319 0.2958 0.5386
C7 C 0.20736(15) 0.10397(15) 0.52020(5)
H5 H 0.1640 0.0614 0.5521
H6 H 0.2569 0.0151 0.5024
C8 C 0.44180(13) 0.18408(14) 0.57261(4)
C9 C 0.54306(14) 0.31003(14) 0.59022(5)
C10 C 0.66549(14) 0.28269(15) 0.62936(5)
H7 H 0.7333 0.3678 0.6415
C11 C 0.69020(14) 0.13034(16) 0.65118(5)
H8 H 0.7742 0.1123 0.6782
C12 C 0.59258(14) 0.00629(15) 0.63342(5)
H9 H 0.6101 -0.0974 0.6480
C13 C 0.46810(14) 0.03275(14) 0.59400(5)
H10 H 0.4012 -0.0531 0.5818
C14 C 0.62190(17) 0.57756(16) 0.57561(5)
H11 H 0.5882 0.6707 0.5539
H12 H 0.7228 0.5392 0.5658
H13 H 0.6334 0.6075 0.6133
C15 C 0.47345(16) 0.44477(18) 0.27410(6)
H14 H 0.5268 0.4995 0.3052
H15 H 0.4461 0.5223 0.2456
H16 H 0.5432 0.3634 0.2618
C16 C 0.24712(13) 0.28548(13) 0.24928(4)
C17 C 0.11298(13) 0.21016(13) 0.26544(4)
C18 C 0.01806(13) 0.11955(14) 0.22911(5)
H17 H -0.0726 0.0686 0.2397
C19 C 0.05556(14) 0.10311(15) 0.17700(5)
H18 H -0.0085 0.0391 0.1524
C20 C 0.18496(14) 0.17919(14) 0.16112(5)
H19 H 0.2087 0.1690 0.1254
C21 C 0.28130(13) 0.27129(14) 0.19727(5)
H20 H 0.3702 0.3241 0.1862
C22 C -0.05213(14) 0.17116(16) 0.33480(5)
H21 H -0.0577 0.0544 0.3291
H22 H -0.1449 0.2210 0.3146
O1 O 0.32095(10) 0.27441(10) 1.03536(3)
O2 O 0.50715(11) 0.04611(10) 1.06667(4)
O3 O 0.33421(10) 0.12934(10) 0.78820(3)
O4 O 0.08963(9) 0.26595(10) 0.81755(3)
C1 C 0.07896(14) 0.32278(14) 0.98286(5)
C2 C 0.07135(13) 0.35408(14) 0.92874(5)
H1 H 0.1490 0.4198 0.9157
C3 C -0.04819(13) 0.29090(14) 0.89311(5)
C4 C -0.16182(14) 0.19513(14) 0.91241(5)
H2 H -0.2440 0.1516 0.8885
C5 C -0.15564(15) 0.16284(15) 0.96658(5)
H3 H -0.2334 0.0973 0.9796
C6 C -0.03585(15) 0.22642(15) 1.00161(5)
H4 H -0.0319 0.2042 1.0386
C7 C 0.20736(15) 0.39603(15) 1.02020(5)
H5 H 0.1640 0.4386 1.0521
H6 H 0.2569 0.4849 1.0024
C8 C 0.44180(13) 0.31592(14) 1.07261(4)
C9 C 0.54306(14) 0.18997(14) 1.09022(5)
C10 C 0.66549(14) 0.21731(15) 1.12936(5)
H7 H 0.7333 0.1322 1.1415
C11 C 0.69020(14) 0.36966(16) 1.15118(5)
H8 H 0.7742 0.3877 1.1782
C12 C 0.59258(14) 0.49371(15) 1.13342(5)
H9 H 0.6101 0.5974 1.1480
C13 C 0.46810(14) 0.46725(14) 1.09400(5)
H10 H 0.4012 0.5531 1.0818
C14 C 0.62190(17) -0.07756(16) 1.07561(5)
H11 H 0.5882 -0.1707 1.0539
H12 H 0.7228 -0.0392 1.0658
H13 H 0.6334 -0.1075 1.1133
C15 C 0.47345(16) 0.05523(18) 0.77410(6)
H14 H 0.5268 0.0005 0.8052
H15 H 0.4461 -0.0223 0.7456
H16 H 0.5432 0.1366 0.7618
C16 C 0.24712(13) 0.21452(13) 0.74928(4)
C17 C 0.11298(13) 0.28984(13) 0.76544(4)
C18 C 0.01806(13) 0.38045(14) 0.72911(5)
H17 H -0.0726 0.4314 0.7397
C19 C 0.05556(14) 0.39689(15) 0.67700(5)
H18 H -0.0085 0.4609 0.6524
C20 C 0.18496(14) 0.32081(14) 0.66112(5)
H19 H 0.2087 0.3310 0.6254
C21 C 0.28130(13) 0.22871(14) 0.69727(5)
H20 H 0.3702 0.1759 0.6862
C22 C -0.05213(14) 0.32884(16) 0.83480(5)
H21 H -0.0577 0.4456 0.8291
H22 H -0.1449 0.2790 0.8146
O1 O 0.67905(10) 0.77441(10) 0.46464(3)
O2 O 0.49285(11) 0.54611(10) 0.43333(4)
O3 O 0.66579(10) 0.62934(10) 0.71180(3)
O4 O 0.91037(9) 0.76595(10) 0.68245(3)
C1 C 0.92104(14) 0.82278(14) 0.51714(5)
C2 C 0.92865(13) 0.85408(14) 0.57126(5)
H1 H 0.8510 0.9198 0.5843
C3 C 1.04819(13) 0.79090(14) 0.60689(5)
C4 C 1.16182(14) 0.69513(14) 0.58759(5)
H2 H 1.2440 0.6516 0.6115
C5 C 1.15564(15) 0.66284(15) 0.53342(5)
H3 H 1.2334 0.5973 0.5204
C6 C 1.03585(15) 0.72642(15) 0.49839(5)
H4 H 1.0319 0.7042 0.4614
C7 C 0.79264(15) 0.89603(15) 0.47980(5)
H5 H 0.8360 0.9386 0.4479
H6 H 0.7431 0.9849 0.4976
C8 C 0.55820(13) 0.81592(14) 0.42739(4)
C9 C 0.45694(14) 0.68997(14) 0.40978(5)
C10 C 0.33451(14) 0.71731(15) 0.37064(5)
H7 H 0.2667 0.6322 0.3585
C11 C 0.30980(14) 0.86966(16) 0.34882(5)
H8 H 0.2258 0.8877 0.3218
C12 C 0.40742(14) 0.99371(15) 0.36658(5)
H9 H 0.3899 1.0974 0.3520
C13 C 0.53190(14) 0.96725(14) 0.40600(5)
H10 H 0.5988 1.0531 0.4182
C14 C 0.37810(17) 0.42244(16) 0.42439(5)
H11 H 0.4118 0.3293 0.4461
H12 H 0.2772 0.4608 0.4342
H13 H 0.3666 0.3925 0.3867
C15 C 0.52655(16) 0.55523(18) 0.72590(6)
H14 H 0.4732 0.5005 0.6948
H15 H 0.5539 0.4777 0.7544
H16 H 0.4568 0.6366 0.7382
C16 C 0.75288(13) 0.71452(13) 0.75072(4)
C17 C 0.88702(13) 0.78984(13) 0.73456(4)
C18 C 0.98194(13) 0.88045(14) 0.77089(5)
H17 H 1.0726 0.9314 0.7603
C19 C 0.94444(14) 0.89689(15) 0.82300(5)
H18 H 1.0085 0.9609 0.8476
C20 C 0.81504(14) 0.82081(14) 0.83888(5)
H19 H 0.7913 0.8310 0.8746
C21 C 0.71870(13) 0.72871(14) 0.80273(5)
H20 H 0.6298 0.6759 0.8138
C22 C 1.05213(14) 0.82884(16) 0.66520(5)
H21 H 1.0577 0.9456 0.6709
H22 H 1.1449 0.7790 0.6854
O1 O 0.67905(10) 0.72559(10) -0.03536(3)
O2 O 0.49285(11) 0.95389(10) -0.06667(4)
O3 O 0.66579(10) 0.87066(10) 0.21180(3)
O4 O 0.91037(9) 0.73405(10) 0.18245(3)
C1 C 0.92104(14) 0.67722(14) 0.01714(5)
C2 C 0.92865(13) 0.64592(14) 0.07126(5)
H1 H 0.8510 0.5802 0.0843
C3 C 1.04819(13) 0.70910(14) 0.10689(5)
C4 C 1.16182(14) 0.80487(14) 0.08759(5)
H2 H 1.2440 0.8484 0.1115
C5 C 1.15564(15) 0.83716(15) 0.03342(5)
H3 H 1.2334 0.9027 0.0204
C6 C 1.03585(15) 0.77358(15) -0.00161(5)
H4 H 1.0319 0.7958 -0.0386
C7 C 0.79264(15) 0.60397(15) -0.02020(5)
H5 H 0.8360 0.5614 -0.0521
H6 H 0.7431 0.5151 -0.0024
C8 C 0.55820(13) 0.68408(14) -0.07261(4)
C9 C 0.45694(14) 0.81003(14) -0.09022(5)
C10 C 0.33451(14) 0.78269(15) -0.12936(5)
H7 H 0.2667 0.8678 -0.1415
C11 C 0.30980(14) 0.63034(16) -0.15118(5)
H8 H 0.2258 0.6123 -0.1782
C12 C 0.40742(14) 0.50629(15) -0.13342(5)
H9 H 0.3899 0.4026 -0.1480
C13 C 0.53190(14) 0.53275(14) -0.09400(5)
H10 H 0.5988 0.4469 -0.0818
C14 C 0.37810(17) 1.07756(16) -0.07561(5)
H11 H 0.4118 1.1707 -0.0539
H12 H 0.2772 1.0392 -0.0658
H13 H 0.3666 1.1075 -0.1133
C15 C 0.52655(16) 0.94477(18) 0.22590(6)
H14 H 0.4732 0.9995 0.1948
H15 H 0.5539 1.0223 0.2544
H16 H 0.4568 0.8634 0.2382
C16 C 0.75288(13) 0.78548(13) 0.25072(4)
C17 C 0.88702(13) 0.71016(13) 0.23456(4)
C18 C 0.98194(13) 0.61955(14) 0.27089(5)
H17 H 1.0726 0.5686 0.2603
C19 C 0.94444(14) 0.60311(15) 0.32300(5)
H18 H 1.0085 0.5391 0.3476
C20 C 0.81504(14) 0.67919(14) 0.33888(5)
H19 H 0.7913 0.6690 0.3746
C21 C 0.71870(13) 0.77129(14) 0.30273(5)
H20 H 0.6298 0.8241 0.3138
C22 C 1.05213(14) 0.67116(16) 0.16520(5)
H21 H 1.0577 0.5544 0.1709
H22 H 1.1449 0.7210 0.1854

#END
