./KACRUB_from_POSCAR.cif_generated_by_CrystalShift
_symmetry_cell_setting triclinic
_symmetry_space_group_name_H-M 'P 1'
loop_
_symmetry_equiv_pos_site_id
_symmetry_equiv_pos_as_xyz
1 x,y,z
_cell_length_a 11.246000
_cell_length_b 6.842000
_cell_length_c 17.022000
_cell_angle_alpha 90.000000
_cell_angle_beta 114.380000
_cell_angle_gamma 90.000000
_cell_volume 1192.965861
loop_
_atom_site_label
_atom_site_type_symbol
_atom_site_fract_x
_atom_site_fract_y
_atom_site_fract_z
H1 H 0.951400 0.693000 1.342300
H2 H 1.020700 0.742200 1.237000
H3 H 0.899500 0.476900 1.158500
H4 H 0.770000 0.603700 1.134100
H5 H 0.960700 0.719700 1.087700
H6 H 0.722800 0.856500 1.042300
H7 H 0.837800 0.993000 1.079600
H8 H 0.740000 1.030400 0.930400
H9 H 0.888900 0.966200 0.960300
H10 H 0.650400 0.887800 0.801000
H11 H 0.521200 0.764200 0.663500
H12 H 0.476600 0.515700 0.562000
H13 H 0.585000 0.220800 0.596000
H14 H 0.740000 0.167000 0.736400
H15 H 1.048600 0.307000 0.657700
H16 H 1.104300 0.138800 0.773700
H17 H 0.979300 0.257800 0.763000
H18 H 1.100500 0.523100 0.841500
H19 H -0.260000 0.333000 0.236400
H20 H -0.415000 0.279200 0.096000
H21 H -0.523400 -0.015700 0.062000
H22 H -0.478800 -0.264200 0.163500
H23 H -0.349600 -0.387800 0.301000
H24 H -0.111100 -0.466200 0.460300
H25 H -0.260000 -0.530400 0.430400
H26 H -0.162200 -0.493000 0.579600
H27 H -0.277200 -0.356500 0.542300
H28 H -0.039300 -0.219700 0.587700
H29 H -0.230000 -0.103700 0.634100
H30 H -0.100500 0.023100 0.658500
H31 H 0.020700 -0.242200 0.737000
H32 H -0.104300 -0.361200 0.726300
H33 H -0.048600 -0.193000 0.842300
H34 H 1.230000 0.396300 0.865900
H35 H 1.039300 0.280300 0.912300
H36 H 1.277200 0.143500 0.957700
H37 H 1.162200 0.007000 0.920400
H38 H 1.260000 -0.030400 1.069600
H39 H 1.111100 0.033800 1.039700
H40 H 1.349600 0.112200 1.199000
H41 H 1.478800 0.235800 1.336500
H42 H 1.523400 0.484300 1.438000
H43 H 1.415000 0.779200 1.404000
H44 H 1.260000 0.833000 1.263600
H45 H 0.951400 0.693000 0.342300
H46 H 0.895700 0.861200 0.226300
H47 H 1.020700 0.742200 0.237000
H48 H 0.899500 0.476900 0.158500
H49 H 0.770000 0.603700 0.134100
H50 H 0.960700 0.719700 0.087700
H51 H 0.722800 0.856500 0.042300
H52 H 0.260000 -0.333000 0.763600
H53 H 0.415000 -0.279200 0.904000
H54 H 0.523400 0.015700 0.938000
H55 H 0.478800 0.264200 0.836500
H56 H 0.349600 0.387800 0.699000
H57 H 0.111100 0.466200 0.539700
H58 H 0.260000 0.530400 0.569600
H59 H 0.162200 0.493000 0.420400
H60 H 0.277200 0.356500 0.457700
H61 H 0.039300 0.219700 0.412300
H62 H 0.230000 0.103700 0.365900
H63 H 0.100500 -0.023100 0.341500
H64 H -0.020700 0.242200 0.263000
H65 H 0.104300 0.361200 0.273700
H66 H 0.048600 0.193000 0.157700
H67 H 0.837800 0.993000 0.079600
H68 H 0.740000 1.030400 -0.069600
H69 H 0.888900 0.966200 -0.039700
H70 H 0.650400 0.887800 -0.199000
H71 H 0.521200 0.764200 -0.336500
H72 H 0.476600 0.515700 -0.438000
H73 H 0.585000 0.220800 -0.404000
H74 H 0.740000 0.167000 -0.263600
H75 H 1.048600 0.307000 -0.342300
H76 H 1.104300 0.138800 -0.226300
H77 H 0.979300 0.257800 -0.237000
H78 H 1.100500 0.523100 -0.158500
H79 H 1.230000 0.396300 -0.134100
H80 H 1.039300 0.280300 -0.087700
H81 H 1.277200 0.143500 -0.042300
H82 H 1.162200 0.007000 -0.079600
H83 H 1.260000 -0.030400 0.069600
H84 H 1.111100 0.033800 0.039700
H85 H -0.260000 1.333000 0.236400
H86 H -0.415000 1.279200 0.096000
H87 H -0.523400 0.984300 0.062000
H88 H -0.478800 0.735800 0.163500
H89 H -0.349600 0.612200 0.301000
H90 H -0.111100 0.533800 0.460300
H91 H -0.260000 0.469600 0.430400
H92 H -0.162200 0.507000 0.579600
H93 H -0.277200 0.643500 0.542300
H94 H -0.039300 0.780300 0.587700
H95 H -0.230000 0.896300 0.634100
H96 H -0.100500 1.023100 0.658500
H97 H 0.020700 0.757800 0.737000
H98 H -0.104300 0.638800 0.726300
H99 H -0.048600 0.807000 0.842300
H100 H 1.349600 0.112200 0.199000
H101 H 1.478800 0.235800 0.336500
H102 H 1.523400 0.484300 0.438000
H103 H 1.415000 0.779200 0.404000
H104 H 1.260000 0.833000 0.263600
H105 H -0.048600 0.693000 1.342300
H106 H -0.104300 0.861200 1.226300
H107 H 0.020700 0.742200 1.237000
H108 H -0.100500 0.476900 1.158500
H109 H -0.230000 0.603700 1.134100
H110 H -0.039300 0.719700 1.087700
H111 H -0.277200 0.856500 1.042300
H112 H -0.162200 0.993000 1.079600
H113 H -0.260000 1.030400 0.930400
H114 H -0.111100 0.966200 0.960300
H115 H -0.349600 0.887800 0.801000
H116 H -0.478800 0.764200 0.663500
H117 H -0.523400 0.515700 0.562000
H118 H 0.260000 0.667000 0.763600
H119 H 0.415000 0.720800 0.904000
H120 H 0.523400 1.015700 0.938000
H121 H 0.478800 1.264200 0.836500
H122 H 0.349600 1.387800 0.699000
H123 H 0.111100 1.466200 0.539700
H124 H 0.260000 1.530400 0.569600
H125 H 0.162200 1.493000 0.420400
H126 H 0.277200 1.356500 0.457700
H127 H 0.039300 1.219700 0.412300
H128 H 0.230000 1.103700 0.365900
H129 H 0.100500 0.976900 0.341500
H130 H -0.020700 1.242200 0.263000
H131 H 0.104300 1.361200 0.273700
H132 H 0.048600 1.193000 0.157700
H133 H -0.415000 0.220800 0.596000
H134 H -0.260000 0.167000 0.736400
H135 H 0.048600 0.307000 0.657700
H136 H 0.104300 0.138800 0.773700
H137 H -0.020700 0.257800 0.763000
H138 H 0.100500 0.523100 0.841500
H139 H 0.230000 0.396300 0.865900
H140 H 0.039300 0.280300 0.912300
H141 H 0.277200 0.143500 0.957700
H142 H 0.162200 0.007000 0.920400
H143 H 0.260000 -0.030400 1.069600
H144 H 0.111100 0.033800 1.039700
H145 H 0.349600 0.112200 1.199000
H146 H 0.478800 0.235800 1.336500
H147 H 0.523400 0.484300 1.438000
H148 H 0.415000 0.779200 1.404000
H149 H 0.260000 0.833000 1.263600
H150 H -0.048600 0.693000 0.342300
H151 H 0.740000 0.333000 0.236400
H152 H 0.585000 0.279200 0.096000
H153 H 0.476600 -0.015700 0.062000
H154 H 0.521200 -0.264200 0.163500
H155 H 0.650400 -0.387800 0.301000
H156 H 0.888900 -0.466200 0.460300
H157 H 0.740000 -0.530400 0.430400
H158 H 0.837800 -0.493000 0.579600
H159 H 0.722800 -0.356500 0.542300
H160 H 0.960700 -0.219700 0.587700
H161 H 0.770000 -0.103700 0.634100
H162 H 0.899500 0.023100 0.658500
H163 H 1.020700 -0.242200 0.737000
H164 H 0.895700 -0.361200 0.726300
H165 H 0.951400 -0.193000 0.842300
H166 H -0.104300 0.861200 0.226300
H167 H 0.020700 0.742200 0.237000
H168 H -0.100500 0.476900 0.158500
H169 H -0.230000 0.603700 0.134100
H170 H -0.039300 0.719700 0.087700
H171 H -0.277200 0.856500 0.042300
H172 H -0.162200 0.993000 0.079600
H173 H -0.260000 1.030400 -0.069600
H174 H -0.111100 0.966200 -0.039700
H175 H -0.349600 0.887800 -0.199000
H176 H -0.478800 0.764200 -0.336500
H177 H -0.523400 0.515700 -0.438000
H178 H -0.415000 0.220800 -0.404000
H179 H -0.260000 0.167000 -0.263600
H180 H 0.048600 0.307000 -0.342300
H181 H 0.104300 0.138800 -0.226300
H182 H -0.020700 0.257800 -0.237000
H183 H 0.100500 0.523100 -0.158500
H184 H 1.260000 -0.333000 0.763600
H185 H 1.415000 -0.279200 0.904000
H186 H 1.523400 0.015700 0.938000
H187 H 1.478800 0.264200 0.836500
H188 H 1.349600 0.387800 0.699000
H189 H 1.111100 0.466200 0.539700
H190 H 1.260000 0.530400 0.569600
H191 H 1.162200 0.493000 0.420400
H192 H 1.277200 0.356500 0.457700
H193 H 1.039300 0.219700 0.412300
H194 H 1.230000 0.103700 0.365900
H195 H 1.100500 -0.023100 0.341500
H196 H 0.979300 0.242200 0.263000
H197 H 1.104300 0.361200 0.273700
H198 H 1.048600 0.193000 0.157700
H199 H 0.230000 0.396300 -0.134100
H200 H 0.039300 0.280300 -0.087700
H201 H 0.277200 0.143500 -0.042300
H202 H 0.162200 0.007000 -0.079600
H203 H 0.260000 -0.030400 0.069600
H204 H 0.111100 0.033800 0.039700
H205 H 0.349600 0.112200 0.199000
H206 H 0.478800 0.235800 0.336500
H207 H 0.523400 0.484300 0.438000
H208 H 0.415000 0.779200 0.404000
H209 H 0.260000 0.833000 0.263600
H210 H 1.048600 1.193000 0.157700
H211 H 1.104300 1.361200 0.273700
H212 H 0.979300 1.242200 0.263000
H213 H 1.100500 0.976900 0.341500
H214 H 1.230000 1.103700 0.365900
H215 H 1.039300 1.219700 0.412300
H216 H 1.277200 1.356500 0.457700
H217 H 0.740000 1.333000 0.236400
H218 H 0.585000 1.279200 0.096000
H219 H 0.476600 0.984300 0.062000
H220 H 0.521200 0.735800 0.163500
H221 H 0.650400 0.612200 0.301000
H222 H 0.888900 0.533800 0.460300
H223 H 0.740000 0.469600 0.430400
H224 H 0.837800 0.507000 0.579600
H225 H 0.722800 0.643500 0.542300
H226 H 0.960700 0.780300 0.587700
H227 H 0.770000 0.896300 0.634100
H228 H 0.899500 1.023100 0.658500
H229 H 1.020700 0.757800 0.737000
H230 H 0.895700 0.638800 0.726300
H231 H 0.951400 0.807000 0.842300
H232 H 1.162200 1.493000 0.420400
H233 H 1.260000 1.530400 0.569600
H234 H 1.111100 1.466200 0.539700
H235 H 1.349600 1.387800 0.699000
H236 H 1.478800 1.264200 0.836500
H237 H 1.523400 1.015700 0.938000
H238 H 1.415000 0.720800 0.904000
H239 H 1.260000 0.667000 0.763600
H240 H 0.895700 0.861200 1.226300
C241 C 1.396700 0.817500 0.862400
C242 C 1.462700 0.992700 0.882500
C243 C 1.437700 1.134000 0.820900
C244 C 1.344300 1.102500 0.735700
C245 C 1.313000 1.261900 0.675800
C246 C 1.198900 1.428400 0.543900
C247 C 1.193900 1.379300 0.456500
C248 C 1.133900 1.111100 0.350200
C249 C 1.065900 1.228700 0.269200
C250 C 1.276100 0.923000 0.715300
C251 C -0.276100 0.077000 0.284700
C252 C -0.304700 0.218900 0.220100
C253 C -0.396700 0.182500 0.137600
C254 C -0.462700 0.007300 0.117500
C255 C -0.437700 -0.134000 0.179100
C256 C -0.344300 -0.102500 0.264300
C257 C -0.313000 -0.261900 0.324200
C258 C 0.934100 0.771300 0.730800
C259 C 0.866100 0.888900 0.649800
C260 C 0.806100 0.620700 0.543500
C261 C 0.801100 0.571600 0.456100
C262 C 0.687000 0.738100 0.324200
C263 C 0.655700 0.897500 0.264300
C264 C 0.562300 0.866000 0.179100
C265 C 0.934100 0.728700 1.230800
C266 C 0.866100 0.611100 1.149800
C267 C 0.806100 0.879300 1.043500
C268 C 0.801100 0.928400 0.956100
C269 C 0.687000 0.761900 0.824200
C270 C 0.655700 0.602500 0.764300
C271 C 0.562300 0.634000 0.679100
C272 C 0.276100 0.577000 0.215300
C273 C 0.304700 0.718900 0.279900
C274 C 0.396700 0.682500 0.362400
C275 C 0.462700 0.507300 0.382500
C276 C 0.437700 0.366000 0.320900
C277 C 0.344300 0.397500 0.235700
C278 C 0.313000 0.238100 0.175800
C279 C 0.198900 0.071600 0.043900
C280 C 0.193900 0.120700 -0.043500
C281 C 0.133900 0.388900 -0.149800
C282 C 0.065900 0.271300 -0.230800
C283 C 0.537300 1.007300 0.117500
C284 C 0.603300 1.182500 0.137600
C285 C 0.695300 1.218900 0.220100
C286 C 0.723900 1.077000 0.284700
C287 C 0.537300 0.492700 0.617500
C288 C 0.603300 0.317500 0.637600
C289 C 0.695300 0.281100 0.720100
C290 C 0.723900 0.423000 0.784700
C291 C -0.198900 -0.428400 0.456100
C292 C -0.193900 -0.379300 0.543500
C293 C -0.133900 -0.111100 0.649800
C294 C 1.065900 0.228700 0.269200
C295 C 1.133900 0.111100 0.350200
C296 C 1.193900 0.379300 0.456500
C297 C 1.198900 0.428400 0.543900
C298 C -0.065900 -0.228700 0.730800
C299 C 0.276100 -0.077000 0.715300
C300 C 0.304700 -0.218900 0.779900
C301 C 0.396700 -0.182500 0.862400
C302 C 0.462700 -0.007300 0.882500
C303 C 1.065900 0.271300 0.769200
C304 C 1.133900 0.388900 0.850200
C305 C -0.276100 0.423000 -0.215300
C306 C -0.304700 0.281100 -0.279900
C307 C -0.396700 0.317500 -0.362400
C308 C -0.462700 0.492700 -0.382500
C309 C -0.437700 0.634000 -0.320900
C310 C -0.344300 0.602500 -0.235700
C311 C -0.313000 0.761900 -0.175800
C312 C -0.198900 0.928400 -0.043900
C313 C -0.193900 0.879300 0.043500
C314 C -0.133900 0.611100 0.149800
C315 C -0.065900 0.728700 0.230800
C316 C 1.313000 0.261900 0.675800
C317 C 1.344300 0.102500 0.735700
C318 C 1.437700 0.134000 0.820900
C319 C 1.462700 -0.007300 0.882500
C320 C 1.396700 -0.182500 0.862400
C321 C 1.304700 -0.218900 0.779900
C322 C 1.276100 -0.077000 0.715300
C323 C 1.193900 0.120700 0.956500
C324 C 1.198900 0.071600 1.043900
C325 C 1.313000 0.238100 1.175800
C326 C 1.344300 0.397500 1.235700
C327 C 1.437700 0.366000 1.320900
C328 C 1.462700 0.507300 1.382500
C329 C 1.396700 0.682500 1.362400
C330 C 0.934100 -0.228700 0.730800
C331 C 1.304700 0.718900 1.279900
C332 C 1.276100 0.577000 1.215300
C333 C 0.437700 0.134000 0.820900
C334 C 0.344300 0.102500 0.735700
C335 C 0.313000 0.261900 0.675800
C336 C 0.198900 0.428400 0.543900
C337 C 0.193900 0.379300 0.456500
C338 C 0.276100 0.577000 1.215300
C339 C 0.304700 0.718900 1.279900
C340 C 0.396700 0.682500 1.362400
C341 C 0.462700 0.507300 1.382500
C342 C 0.437700 0.366000 1.320900
C343 C 0.344300 0.397500 1.235700
C344 C 0.313000 0.238100 1.175800
C345 C 0.198900 0.071600 1.043900
C346 C 0.193900 0.120700 0.956500
C347 C 0.133900 0.388900 0.850200
C348 C 0.065900 0.271300 0.769200
C349 C 0.866100 -0.111100 0.649800
C350 C 0.806100 -0.379300 0.543500
C351 C 0.801100 -0.428400 0.456100
C352 C 0.687000 -0.261900 0.324200
C353 C 0.655700 -0.102500 0.264300
C354 C 0.562300 -0.134000 0.179100
C355 C 0.537300 0.007300 0.117500
C356 C 0.603300 0.182500 0.137600
C357 C 0.695300 0.218900 0.220100
C358 C 0.723900 0.077000 0.284700
C359 C 0.133900 0.111100 0.350200
C360 C 0.065900 0.228700 0.269200
C361 C -0.276100 1.077000 0.284700
C362 C 0.934100 0.728700 0.230800
C363 C 0.866100 0.611100 0.149800
C364 C 0.806100 0.879300 0.043500
C365 C 0.801100 0.928400 -0.043900
C366 C 0.687000 0.761900 -0.175800
C367 C 0.655700 0.602500 -0.235700
C368 C 0.562300 0.634000 -0.320900
C369 C 0.537300 0.492700 -0.382500
C370 C 0.603300 0.317500 -0.362400
C371 C -0.276100 0.423000 0.784700
C372 C -0.304700 0.281100 0.720100
C373 C -0.396700 0.317500 0.637600
C374 C -0.462700 0.492700 0.617500
C375 C -0.437700 0.634000 0.679100
C376 C -0.344300 0.602500 0.764300
C377 C -0.313000 0.761900 0.824200
C378 C -0.198900 0.928400 0.956100
C379 C -0.193900 0.879300 1.043500
C380 C -0.133900 0.611100 1.149800
C381 C -0.065900 0.728700 1.230800
C382 C 0.695300 0.281100 -0.279900
C383 C 0.723900 0.423000 -0.215300
C384 C 0.065900 1.228700 0.269200
C385 C 0.133900 1.111100 0.350200
C386 C 0.193900 1.379300 0.456500
C387 C 0.198900 1.428400 0.543900
C388 C 0.313000 1.261900 0.675800
C389 C 0.344300 1.102500 0.735700
C390 C 0.437700 1.134000 0.820900
C391 C 0.462700 0.992700 0.882500
C392 C 0.396700 0.817500 0.862400
C393 C 0.304700 0.781100 0.779900
C394 C 0.276100 0.923000 0.715300
C395 C -0.304700 1.218900 0.220100
C396 C -0.396700 1.182500 0.137600
C397 C -0.462700 1.007300 0.117500
C398 C -0.437700 0.866000 0.179100
C399 C -0.344300 0.897500 0.264300
C400 C -0.313000 0.738100 0.324200
C401 C -0.198900 0.571600 0.456100
C402 C -0.193900 0.620700 0.543500
C403 C -0.133900 0.888900 0.649800
C404 C 1.276100 0.577000 0.215300
C405 C 1.304700 0.718900 0.279900
C406 C 1.396700 0.682500 0.362400
C407 C 1.462700 0.507300 0.382500
C408 C 1.437700 0.366000 0.320900
C409 C 1.344300 0.397500 0.235700
C410 C 1.313000 0.238100 0.175800
C411 C 1.198900 0.071600 0.043900
C412 C 1.193900 0.120700 -0.043500
C413 C 1.133900 0.388900 -0.149800
C414 C 1.065900 0.271300 -0.230800
C415 C -0.065900 0.771300 0.730800
C416 C 1.304700 0.781100 0.779900
N417 N 0.117000 0.303000 -0.074700
N418 N 0.883000 0.803000 0.574700
N419 N 0.764000 0.750400 0.404500
N420 N 0.883000 0.697000 1.074700
N421 N 1.117000 0.303000 -0.074700
N422 N 1.236000 0.250400 0.095500
N423 N 0.764000 0.749600 0.904500
N424 N 0.236000 0.249600 0.595500
N425 N 0.117000 0.197000 0.425300
N426 N -0.236000 0.749600 -0.095500
N427 N -0.117000 0.697000 0.074700
N428 N 0.236000 1.249600 0.595500
N429 N 0.117000 1.197000 0.425300
N430 N 1.117000 0.197000 0.425300
N431 N 1.236000 0.249600 0.595500
N432 N 1.236000 1.249600 0.595500
N433 N 1.117000 0.303000 0.925300
N434 N 1.236000 0.250400 1.095500
N435 N 0.764000 0.749600 -0.095500
N436 N 0.883000 0.697000 0.074700
N437 N 1.117000 1.197000 0.425300
N438 N 0.236000 0.250400 0.095500
N439 N -0.117000 0.697000 1.074700
N440 N -0.236000 0.749600 0.904500
N441 N 0.236000 0.250400 1.095500
N442 N 0.117000 0.303000 0.925300
N443 N 0.883000 -0.197000 0.574700
N444 N 0.764000 -0.249600 0.404500
N445 N -0.236000 -0.249600 0.404500
N446 N -0.117000 -0.197000 0.574700
N447 N -0.236000 0.750400 0.404500
N448 N -0.117000 0.803000 0.574700
O449 O 0.925800 -0.124600 0.800500
O450 O 0.820000 0.111900 0.362100
O451 O -0.074200 0.875400 0.800500
O452 O -0.180000 1.111900 0.362100
O453 O -0.284900 1.096400 0.480800
O454 O -0.030100 1.154100 0.536300
O455 O 0.715100 0.096400 0.480800
O456 O -0.030100 0.345900 1.036300
O457 O -0.284900 0.403600 0.980800
O458 O -0.180000 0.388100 0.862100
O459 O -0.074200 0.624600 1.300500
O460 O 0.074200 0.375400 0.699500
O461 O 0.180000 0.611900 1.137900
O462 O 0.969900 0.154100 0.536300
O463 O -0.074200 -0.124600 0.800500
O464 O 1.030100 0.654100 0.963700
O465 O 1.284900 0.596400 1.019200
O466 O 1.180000 0.611900 1.137900
O467 O 1.074200 0.375400 0.699500
O468 O 0.925800 0.624600 0.300500
O469 O 0.820000 0.388100 -0.137900
O470 O 0.030100 0.654100 0.963700
O471 O 0.715100 0.403600 -0.019200
O472 O 0.180000 0.888100 0.637900
O473 O 1.030100 -0.154100 0.463700
O474 O 1.284900 -0.096400 0.519200
O475 O 1.180000 -0.111900 0.637900
O476 O 1.074200 0.124600 0.199500
O477 O 0.969900 0.345900 0.036300
O478 O -0.180000 0.111900 0.362100
O479 O -0.284900 0.096400 0.480800
O480 O 1.030100 0.654100 -0.036300
O481 O -0.074200 0.624600 0.300500
O482 O -0.180000 0.388100 -0.137900
O483 O -0.284900 0.403600 -0.019200
O484 O -0.030100 0.345900 0.036300
O485 O 1.284900 0.596400 0.019200
O486 O 1.180000 0.611900 0.137900
O487 O 0.074200 0.124600 0.199500
O488 O 0.180000 -0.111900 0.637900
O489 O 0.284900 -0.096400 0.519200
O490 O 0.030100 -0.154100 0.463700
O491 O 1.074200 1.124600 0.199500
O492 O 1.180000 0.888100 0.637900
O493 O 1.284900 0.903600 0.519200
O494 O 0.969900 1.154100 0.536300
O495 O 0.715100 1.096400 0.480800
O496 O 1.030100 0.845900 0.463700
O497 O 0.969900 0.345900 1.036300
O498 O 0.715100 0.403600 0.980800
O499 O 0.820000 0.388100 0.862100
O500 O 0.925800 0.624600 1.300500
O501 O 1.074200 0.375400 -0.300500
O502 O 0.074200 1.124600 0.199500
O503 O 0.820000 1.111900 0.362100
O504 O 0.925800 0.875400 0.800500
O505 O -0.030100 0.154100 0.536300
O506 O 0.030100 0.845900 0.463700
O507 O 0.284900 0.903600 0.519200
O508 O 0.284900 0.596400 1.019200
O509 O 0.074200 0.375400 -0.300500
O510 O 0.180000 0.611900 0.137900
O511 O 0.284900 0.596400 0.019200
O512 O 0.030100 0.654100 -0.036300
V513 V 0.156300 0.515500 0.027200
V514 V 1.156300 0.984500 0.527200
V515 V 0.843700 0.484500 0.972800
V516 V 0.843700 1.015500 0.472800
V517 V -0.156300 0.484500 -0.027200
V518 V 0.156300 -0.015500 0.527200
V519 V 0.156300 0.515500 1.027200
V520 V 1.156300 0.515500 1.027200
V521 V -0.156300 1.015500 0.472800
V522 V -0.156300 0.484500 0.972800
V523 V 0.843700 0.015500 0.472800
V524 V 0.843700 0.484500 -0.027200
V525 V 1.156300 0.515500 0.027200
V526 V 0.156300 0.984500 0.527200
V527 V 1.156300 -0.015500 0.527200
V528 V -0.156300 0.015500 0.472800

#END
