
#######################################################################
#
#                 Cambridge Crystallographic Data Centre
#                                CCDC 
#
#######################################################################
#
# If this CIF has been generated from an entry in the Cambridge 
# Structural Database, then it will include bibliographic, chemical, 
# crystal, experimental, refinement or atomic coordinate data resulting 
# from the CCDC's data processing and validation procedures.
#
#######################################################################

data_KACRUB03
_symmetry_cell_setting           monoclinic
_symmetry_space_group_name_H-M   'P 21/c'
_symmetry_Int_Tables_number      14
_space_group_name_Hall           '-P 2ybc'
loop_
_symmetry_equiv_pos_site_id
_symmetry_equiv_pos_as_xyz
1 x,y,z
2 -x,1/2+y,1/2-z
3 -x,-y,-z
4 x,1/2-y,1/2+z
_cell_length_a                   10.229(3)
_cell_length_b                   10.967(3)
_cell_length_c                   10.547(3)
_cell_angle_alpha                90
_cell_angle_beta                 92.152(5)
_cell_angle_gamma                90
_cell_volume                     1182.34
loop_
_atom_site_label
_atom_site_type_symbol
_atom_site_fract_x
_atom_site_fract_y
_atom_site_fract_z
V1 V -0.07215(4) -0.07254(4) 0.10198(4)
N1 N -0.2534(2) 0.0161(2) 0.1383(2)
N2 N -0.0114(2) 0.0721(2) 0.2367(2)
O1 O -0.07656(19) -0.16749(17) 0.21787(19)
O2 O 0.07546(18) -0.08625(16) 0.03877(18)
O3 O -0.17464(18) -0.15628(18) -0.02330(18)
O4 O 0.2611(3) -0.0689(2) 0.2294(3)
H1 H 0.2262 -0.0656 0.1582
C1 C -0.2941(3) -0.2016(2) -0.0152(3)
C2 C -0.3900(3) -0.1469(3) 0.0596(3)
C3 C -0.5139(3) -0.2003(3) 0.0649(3)
H2 H -0.5768 -0.1647 0.1145
C4 C -0.5437(3) -0.3040(3) -0.0019(3)
H3 H -0.6253 -0.3404 0.0043
C5 C -0.4512(3) -0.3546(3) -0.0790(3)
H4 H -0.4725 -0.4236 -0.1267
C6 C -0.3288(3) -0.3044(3) -0.0861(3)
H5 H -0.2684 -0.3395 -0.1389
C7 C -0.3657(3) -0.0321(3) 0.1225(3)
H6 H -0.4370 0.0095 0.1535
C8 C -0.2388(3) 0.1339(3) 0.2003(3)
H7 H -0.3191 0.1568 0.2402
H8 H -0.2174 0.1963 0.1393
C9 C -0.1292(3) 0.1190(3) 0.2982(3)
H9 H -0.1096 0.1970 0.3380
H10 H -0.1553 0.0626 0.3634
C10 C 0.0871(3) 0.0391(3) 0.3385(3)
H11 H 0.0645 -0.0402 0.3720
H12 H 0.0810 0.0977 0.4070
C11 C 0.2267(3) 0.0349(3) 0.2991(3)
H13 H 0.2434 0.1067 0.2485
H14 H 0.2834 0.0393 0.3747
V1B V 0.07215(4) 0.07254(4) -0.10198(4)
N1B N 0.2534(2) -0.0161(2) -0.1383(2)
N2B N 0.0114(2) -0.0721(2) -0.2367(2)
O1B O 0.07656(19) 0.16749(17) -0.21787(19)
O2B O -0.07546(18) 0.08625(16) -0.03877(18)
O3B O 0.17464(18) 0.15628(18) 0.02330(18)
O4B O -0.2611(3) 0.0689(2) -0.2294(3)
H1B H -0.2262 0.0656 -0.1582
C1B C 0.2941(3) 0.2016(2) 0.0152(3)
C2B C 0.3900(3) 0.1469(3) -0.0596(3)
C3B C 0.5139(3) 0.2003(3) -0.0649(3)
H2B H 0.5768 0.1647 -0.1145
C4B C 0.5437(3) 0.3040(3) 0.0019(3)
H3B H 0.6253 0.3404 -0.0043
C5B C 0.4512(3) 0.3546(3) 0.0790(3)
H4B H 0.4725 0.4236 0.1267
C6B C 0.3288(3) 0.3044(3) 0.0861(3)
H5B H 0.2684 0.3395 0.1389
C7B C 0.3657(3) 0.0321(3) -0.1225(3)
H6B H 0.4370 -0.0095 -0.1535
C8B C 0.2388(3) -0.1339(3) -0.2003(3)
H7B H 0.3191 -0.1568 -0.2402
H8B H 0.2174 -0.1963 -0.1393
C9B C 0.1292(3) -0.1190(3) -0.2982(3)
H9B H 0.1096 -0.1970 -0.3380
H10B H 0.1553 -0.0626 -0.3634
C10B C -0.0871(3) -0.0391(3) -0.3385(3)
H11B H -0.0645 0.0402 -0.3720
H12B H -0.0810 -0.0977 -0.4070
C11B C -0.2267(3) -0.0349(3) -0.2991(3)
H13B H -0.2434 -0.1067 -0.2485
H14B H -0.2834 -0.0393 -0.3747
V1 V -0.07215(4) -0.07254(4) 1.10198(4)
N1 N -0.2534(2) 0.0161(2) 1.1383(2)
N2 N -0.0114(2) 0.0721(2) 1.2367(2)
O1 O -0.07656(19) -0.16749(17) 1.21787(19)
O2 O 0.07546(18) -0.08625(16) 1.03877(18)
O3 O -0.17464(18) -0.15628(18) 0.97670(18)
O4 O 0.2611(3) -0.0689(2) 1.2294(3)
H1 H 0.2262 -0.0656 1.1582
C1 C -0.2941(3) -0.2016(2) 0.9848(3)
C2 C -0.3900(3) -0.1469(3) 1.0596(3)
C3 C -0.5139(3) -0.2003(3) 1.0649(3)
H2 H -0.5768 -0.1647 1.1145
C4 C -0.5437(3) -0.3040(3) 0.9981(3)
H3 H -0.6253 -0.3404 1.0043
C5 C -0.4512(3) -0.3546(3) 0.9210(3)
H4 H -0.4725 -0.4236 0.8733
C6 C -0.3288(3) -0.3044(3) 0.9139(3)
H5 H -0.2684 -0.3395 0.8611
C7 C -0.3657(3) -0.0321(3) 1.1225(3)
H6 H -0.4370 0.0095 1.1535
C8 C -0.2388(3) 0.1339(3) 1.2003(3)
H7 H -0.3191 0.1568 1.2402
H8 H -0.2174 0.1963 1.1393
C9 C -0.1292(3) 0.1190(3) 1.2982(3)
H9 H -0.1096 0.1970 1.3380
H10 H -0.1553 0.0626 1.3634
C10 C 0.0871(3) 0.0391(3) 1.3385(3)
H11 H 0.0645 -0.0402 1.3720
H12 H 0.0810 0.0977 1.4070
C11 C 0.2267(3) 0.0349(3) 1.2991(3)
H13 H 0.2434 0.1067 1.2485
H14 H 0.2834 0.0393 1.3747
V1B V 0.07215(4) 0.07254(4) 0.89802(4)
N1B N 0.2534(2) -0.0161(2) 0.8617(2)
N2B N 0.0114(2) -0.0721(2) 0.7633(2)
O1B O 0.07656(19) 0.16749(17) 0.78213(19)
O2B O -0.07546(18) 0.08625(16) 0.96123(18)
O3B O 0.17464(18) 0.15628(18) 1.02330(18)
O4B O -0.2611(3) 0.0689(2) 0.7706(3)
H1B H -0.2262 0.0656 0.8418
C1B C 0.2941(3) 0.2016(2) 1.0152(3)
C2B C 0.3900(3) 0.1469(3) 0.9404(3)
C3B C 0.5139(3) 0.2003(3) 0.9351(3)
H2B H 0.5768 0.1647 0.8855
C4B C 0.5437(3) 0.3040(3) 1.0019(3)
H3B H 0.6253 0.3404 0.9957
C5B C 0.4512(3) 0.3546(3) 1.0790(3)
H4B H 0.4725 0.4236 1.1267
C6B C 0.3288(3) 0.3044(3) 1.0861(3)
H5B H 0.2684 0.3395 1.1389
C7B C 0.3657(3) 0.0321(3) 0.8775(3)
H6B H 0.4370 -0.0095 0.8465
C8B C 0.2388(3) -0.1339(3) 0.7997(3)
H7B H 0.3191 -0.1568 0.7598
H8B H 0.2174 -0.1963 0.8607
C9B C 0.1292(3) -0.1190(3) 0.7018(3)
H9B H 0.1096 -0.1970 0.6620
H10B H 0.1553 -0.0626 0.6366
C10B C -0.0871(3) -0.0391(3) 0.6615(3)
H11B H -0.0645 0.0402 0.6280
H12B H -0.0810 -0.0977 0.5930
C11B C -0.2267(3) -0.0349(3) 0.7009(3)
H13B H -0.2434 -0.1067 0.7515
H14B H -0.2834 -0.0393 0.6253
V1 V -0.07215(4) 0.92746(4) 0.10198(4)
N1 N -0.2534(2) 1.0161(2) 0.1383(2)
N2 N -0.0114(2) 1.0721(2) 0.2367(2)
O1 O -0.07656(19) 0.83251(17) 0.21787(19)
O2 O 0.07546(18) 0.91375(16) 0.03877(18)
O3 O -0.17464(18) 0.84372(18) -0.02330(18)
O4 O 0.2611(3) 0.9311(2) 0.2294(3)
H1 H 0.2262 0.9344 0.1582
C1 C -0.2941(3) 0.7984(2) -0.0152(3)
C2 C -0.3900(3) 0.8531(3) 0.0596(3)
C3 C -0.5139(3) 0.7997(3) 0.0649(3)
H2 H -0.5768 0.8353 0.1145
C4 C -0.5437(3) 0.6960(3) -0.0019(3)
H3 H -0.6253 0.6596 0.0043
C5 C -0.4512(3) 0.6454(3) -0.0790(3)
H4 H -0.4725 0.5764 -0.1267
C6 C -0.3288(3) 0.6956(3) -0.0861(3)
H5 H -0.2684 0.6605 -0.1389
C7 C -0.3657(3) 0.9679(3) 0.1225(3)
H6 H -0.4370 1.0095 0.1535
C8 C -0.2388(3) 1.1339(3) 0.2003(3)
H7 H -0.3191 1.1568 0.2402
H8 H -0.2174 1.1963 0.1393
C9 C -0.1292(3) 1.1190(3) 0.2982(3)
H9 H -0.1096 1.1970 0.3380
H10 H -0.1553 1.0626 0.3634
C10 C 0.0871(3) 1.0391(3) 0.3385(3)
H11 H 0.0645 0.9598 0.3720
H12 H 0.0810 1.0977 0.4070
C11 C 0.2267(3) 1.0349(3) 0.2991(3)
H13 H 0.2434 1.1067 0.2485
H14 H 0.2834 1.0393 0.3747
V1B V 0.07215(4) 1.07254(4) -0.10198(4)
N1B N 0.2534(2) 0.9839(2) -0.1383(2)
N2B N 0.0114(2) 0.9279(2) -0.2367(2)
O1B O 0.07656(19) 1.16749(17) -0.21787(19)
O2B O -0.07546(18) 1.08625(16) -0.03877(18)
O3B O 0.17464(18) 1.15628(18) 0.02330(18)
O4B O -0.2611(3) 1.0689(2) -0.2294(3)
H1B H -0.2262 1.0656 -0.1582
C1B C 0.2941(3) 1.2016(2) 0.0152(3)
C2B C 0.3900(3) 1.1469(3) -0.0596(3)
C3B C 0.5139(3) 1.2003(3) -0.0649(3)
H2B H 0.5768 1.1647 -0.1145
C4B C 0.5437(3) 1.3040(3) 0.0019(3)
H3B H 0.6253 1.3404 -0.0043
C5B C 0.4512(3) 1.3546(3) 0.0790(3)
H4B H 0.4725 1.4236 0.1267
C6B C 0.3288(3) 1.3044(3) 0.0861(3)
H5B H 0.2684 1.3395 0.1389
C7B C 0.3657(3) 1.0321(3) -0.1225(3)
H6B H 0.4370 0.9905 -0.1535
C8B C 0.2388(3) 0.8661(3) -0.2003(3)
H7B H 0.3191 0.8432 -0.2402
H8B H 0.2174 0.8037 -0.1393
C9B C 0.1292(3) 0.8810(3) -0.2982(3)
H9B H 0.1096 0.8030 -0.3380
H10B H 0.1553 0.9374 -0.3634
C10B C -0.0871(3) 0.9609(3) -0.3385(3)
H11B H -0.0645 1.0402 -0.3720
H12B H -0.0810 0.9023 -0.4070
C11B C -0.2267(3) 0.9651(3) -0.2991(3)
H13B H -0.2434 0.8933 -0.2485
H14B H -0.2834 0.9607 -0.3747
V1 V -0.07215(4) 0.92746(4) 1.10198(4)
N1 N -0.2534(2) 1.0161(2) 1.1383(2)
N2 N -0.0114(2) 1.0721(2) 1.2367(2)
O1 O -0.07656(19) 0.83251(17) 1.21787(19)
O2 O 0.07546(18) 0.91375(16) 1.03877(18)
O3 O -0.17464(18) 0.84372(18) 0.97670(18)
O4 O 0.2611(3) 0.9311(2) 1.2294(3)
H1 H 0.2262 0.9344 1.1582
C1 C -0.2941(3) 0.7984(2) 0.9848(3)
C2 C -0.3900(3) 0.8531(3) 1.0596(3)
C3 C -0.5139(3) 0.7997(3) 1.0649(3)
H2 H -0.5768 0.8353 1.1145
C4 C -0.5437(3) 0.6960(3) 0.9981(3)
H3 H -0.6253 0.6596 1.0043
C5 C -0.4512(3) 0.6454(3) 0.9210(3)
H4 H -0.4725 0.5764 0.8733
C6 C -0.3288(3) 0.6956(3) 0.9139(3)
H5 H -0.2684 0.6605 0.8611
C7 C -0.3657(3) 0.9679(3) 1.1225(3)
H6 H -0.4370 1.0095 1.1535
C8 C -0.2388(3) 1.1339(3) 1.2003(3)
H7 H -0.3191 1.1568 1.2402
H8 H -0.2174 1.1963 1.1393
C9 C -0.1292(3) 1.1190(3) 1.2982(3)
H9 H -0.1096 1.1970 1.3380
H10 H -0.1553 1.0626 1.3634
C10 C 0.0871(3) 1.0391(3) 1.3385(3)
H11 H 0.0645 0.9598 1.3720
H12 H 0.0810 1.0977 1.4070
C11 C 0.2267(3) 1.0349(3) 1.2991(3)
H13 H 0.2434 1.1067 1.2485
H14 H 0.2834 1.0393 1.3747
V1B V 0.07215(4) 1.07254(4) 0.89802(4)
N1B N 0.2534(2) 0.9839(2) 0.8617(2)
N2B N 0.0114(2) 0.9279(2) 0.7633(2)
O1B O 0.07656(19) 1.16749(17) 0.78213(19)
O2B O -0.07546(18) 1.08625(16) 0.96123(18)
O3B O 0.17464(18) 1.15628(18) 1.02330(18)
O4B O -0.2611(3) 1.0689(2) 0.7706(3)
H1B H -0.2262 1.0656 0.8418
C1B C 0.2941(3) 1.2016(2) 1.0152(3)
C2B C 0.3900(3) 1.1469(3) 0.9404(3)
C3B C 0.5139(3) 1.2003(3) 0.9351(3)
H2B H 0.5768 1.1647 0.8855
C4B C 0.5437(3) 1.3040(3) 1.0019(3)
H3B H 0.6253 1.3404 0.9957
C5B C 0.4512(3) 1.3546(3) 1.0790(3)
H4B H 0.4725 1.4236 1.1267
C6B C 0.3288(3) 1.3044(3) 1.0861(3)
H5B H 0.2684 1.3395 1.1389
C7B C 0.3657(3) 1.0321(3) 0.8775(3)
H6B H 0.4370 0.9905 0.8465
C8B C 0.2388(3) 0.8661(3) 0.7997(3)
H7B H 0.3191 0.8432 0.7598
H8B H 0.2174 0.8037 0.8607
C9B C 0.1292(3) 0.8810(3) 0.7018(3)
H9B H 0.1096 0.8030 0.6620
H10B H 0.1553 0.9374 0.6366
C10B C -0.0871(3) 0.9609(3) 0.6615(3)
H11B H -0.0645 1.0402 0.6280
H12B H -0.0810 0.9023 0.5930
C11B C -0.2267(3) 0.9651(3) 0.7009(3)
H13B H -0.2434 0.8933 0.7515
H14B H -0.2834 0.9607 0.6253
V1 V 0.92785(4) -0.07254(4) 0.10198(4)
N1 N 0.7466(2) 0.0161(2) 0.1383(2)
N2 N 0.9886(2) 0.0721(2) 0.2367(2)
O1 O 0.92344(19) -0.16749(17) 0.21787(19)
O2 O 1.07546(18) -0.08625(16) 0.03877(18)
O3 O 0.82536(18) -0.15628(18) -0.02330(18)
O4 O 1.2611(3) -0.0689(2) 0.2294(3)
H1 H 1.2262 -0.0656 0.1582
C1 C 0.7059(3) -0.2016(2) -0.0152(3)
C2 C 0.6100(3) -0.1469(3) 0.0596(3)
C3 C 0.4861(3) -0.2003(3) 0.0649(3)
H2 H 0.4232 -0.1647 0.1145
C4 C 0.4563(3) -0.3040(3) -0.0019(3)
H3 H 0.3747 -0.3404 0.0043
C5 C 0.5488(3) -0.3546(3) -0.0790(3)
H4 H 0.5275 -0.4236 -0.1267
C6 C 0.6712(3) -0.3044(3) -0.0861(3)
H5 H 0.7316 -0.3395 -0.1389
C7 C 0.6343(3) -0.0321(3) 0.1225(3)
H6 H 0.5630 0.0095 0.1535
C8 C 0.7612(3) 0.1339(3) 0.2003(3)
H7 H 0.6809 0.1568 0.2402
H8 H 0.7826 0.1963 0.1393
C9 C 0.8708(3) 0.1190(3) 0.2982(3)
H9 H 0.8904 0.1970 0.3380
H10 H 0.8447 0.0626 0.3634
C10 C 1.0871(3) 0.0391(3) 0.3385(3)
H11 H 1.0645 -0.0402 0.3720
H12 H 1.0810 0.0977 0.4070
C11 C 1.2267(3) 0.0349(3) 0.2991(3)
H13 H 1.2434 0.1067 0.2485
H14 H 1.2834 0.0393 0.3747
V1B V 1.07215(4) 0.07254(4) -0.10198(4)
N1B N 1.2534(2) -0.0161(2) -0.1383(2)
N2B N 1.0114(2) -0.0721(2) -0.2367(2)
O1B O 1.07656(19) 0.16749(17) -0.21787(19)
O2B O 0.92454(18) 0.08625(16) -0.03877(18)
O3B O 1.17464(18) 0.15628(18) 0.02330(18)
O4B O 0.7389(3) 0.0689(2) -0.2294(3)
H1B H 0.7738 0.0656 -0.1582
C1B C 1.2941(3) 0.2016(2) 0.0152(3)
C2B C 1.3900(3) 0.1469(3) -0.0596(3)
C3B C 1.5139(3) 0.2003(3) -0.0649(3)
H2B H 1.5768 0.1647 -0.1145
C4B C 1.5437(3) 0.3040(3) 0.0019(3)
H3B H 1.6253 0.3404 -0.0043
C5B C 1.4512(3) 0.3546(3) 0.0790(3)
H4B H 1.4725 0.4236 0.1267
C6B C 1.3288(3) 0.3044(3) 0.0861(3)
H5B H 1.2684 0.3395 0.1389
C7B C 1.3657(3) 0.0321(3) -0.1225(3)
H6B H 1.4370 -0.0095 -0.1535
C8B C 1.2388(3) -0.1339(3) -0.2003(3)
H7B H 1.3191 -0.1568 -0.2402
H8B H 1.2174 -0.1963 -0.1393
C9B C 1.1292(3) -0.1190(3) -0.2982(3)
H9B H 1.1096 -0.1970 -0.3380
H10B H 1.1553 -0.0626 -0.3634
C10B C 0.9129(3) -0.0391(3) -0.3385(3)
H11B H 0.9355 0.0402 -0.3720
H12B H 0.9190 -0.0977 -0.4070
C11B C 0.7733(3) -0.0349(3) -0.2991(3)
H13B H 0.7566 -0.1067 -0.2485
H14B H 0.7166 -0.0393 -0.3747
V1 V 0.92785(4) -0.07254(4) 1.10198(4)
N1 N 0.7466(2) 0.0161(2) 1.1383(2)
N2 N 0.9886(2) 0.0721(2) 1.2367(2)
O1 O 0.92344(19) -0.16749(17) 1.21787(19)
O2 O 1.07546(18) -0.08625(16) 1.03877(18)
O3 O 0.82536(18) -0.15628(18) 0.97670(18)
O4 O 1.2611(3) -0.0689(2) 1.2294(3)
H1 H 1.2262 -0.0656 1.1582
C1 C 0.7059(3) -0.2016(2) 0.9848(3)
C2 C 0.6100(3) -0.1469(3) 1.0596(3)
C3 C 0.4861(3) -0.2003(3) 1.0649(3)
H2 H 0.4232 -0.1647 1.1145
C4 C 0.4563(3) -0.3040(3) 0.9981(3)
H3 H 0.3747 -0.3404 1.0043
C5 C 0.5488(3) -0.3546(3) 0.9210(3)
H4 H 0.5275 -0.4236 0.8733
C6 C 0.6712(3) -0.3044(3) 0.9139(3)
H5 H 0.7316 -0.3395 0.8611
C7 C 0.6343(3) -0.0321(3) 1.1225(3)
H6 H 0.5630 0.0095 1.1535
C8 C 0.7612(3) 0.1339(3) 1.2003(3)
H7 H 0.6809 0.1568 1.2402
H8 H 0.7826 0.1963 1.1393
C9 C 0.8708(3) 0.1190(3) 1.2982(3)
H9 H 0.8904 0.1970 1.3380
H10 H 0.8447 0.0626 1.3634
C10 C 1.0871(3) 0.0391(3) 1.3385(3)
H11 H 1.0645 -0.0402 1.3720
H12 H 1.0810 0.0977 1.4070
C11 C 1.2267(3) 0.0349(3) 1.2991(3)
H13 H 1.2434 0.1067 1.2485
H14 H 1.2834 0.0393 1.3747
V1B V 1.07215(4) 0.07254(4) 0.89802(4)
N1B N 1.2534(2) -0.0161(2) 0.8617(2)
N2B N 1.0114(2) -0.0721(2) 0.7633(2)
O1B O 1.07656(19) 0.16749(17) 0.78213(19)
O2B O 0.92454(18) 0.08625(16) 0.96123(18)
O3B O 1.17464(18) 0.15628(18) 1.02330(18)
O4B O 0.7389(3) 0.0689(2) 0.7706(3)
H1B H 0.7738 0.0656 0.8418
C1B C 1.2941(3) 0.2016(2) 1.0152(3)
C2B C 1.3900(3) 0.1469(3) 0.9404(3)
C3B C 1.5139(3) 0.2003(3) 0.9351(3)
H2B H 1.5768 0.1647 0.8855
C4B C 1.5437(3) 0.3040(3) 1.0019(3)
H3B H 1.6253 0.3404 0.9957
C5B C 1.4512(3) 0.3546(3) 1.0790(3)
H4B H 1.4725 0.4236 1.1267
C6B C 1.3288(3) 0.3044(3) 1.0861(3)
H5B H 1.2684 0.3395 1.1389
C7B C 1.3657(3) 0.0321(3) 0.8775(3)
H6B H 1.4370 -0.0095 0.8465
C8B C 1.2388(3) -0.1339(3) 0.7997(3)
H7B H 1.3191 -0.1568 0.7598
H8B H 1.2174 -0.1963 0.8607
C9B C 1.1292(3) -0.1190(3) 0.7018(3)
H9B H 1.1096 -0.1970 0.6620
H10B H 1.1553 -0.0626 0.6366
C10B C 0.9129(3) -0.0391(3) 0.6615(3)
H11B H 0.9355 0.0402 0.6280
H12B H 0.9190 -0.0977 0.5930
C11B C 0.7733(3) -0.0349(3) 0.7009(3)
H13B H 0.7566 -0.1067 0.7515
H14B H 0.7166 -0.0393 0.6253
V1 V 0.92785(4) 0.92746(4) 0.10198(4)
N1 N 0.7466(2) 1.0161(2) 0.1383(2)
N2 N 0.9886(2) 1.0721(2) 0.2367(2)
O1 O 0.92344(19) 0.83251(17) 0.21787(19)
O2 O 1.07546(18) 0.91375(16) 0.03877(18)
O3 O 0.82536(18) 0.84372(18) -0.02330(18)
O4 O 1.2611(3) 0.9311(2) 0.2294(3)
H1 H 1.2262 0.9344 0.1582
C1 C 0.7059(3) 0.7984(2) -0.0152(3)
C2 C 0.6100(3) 0.8531(3) 0.0596(3)
C3 C 0.4861(3) 0.7997(3) 0.0649(3)
H2 H 0.4232 0.8353 0.1145
C4 C 0.4563(3) 0.6960(3) -0.0019(3)
H3 H 0.3747 0.6596 0.0043
C5 C 0.5488(3) 0.6454(3) -0.0790(3)
H4 H 0.5275 0.5764 -0.1267
C6 C 0.6712(3) 0.6956(3) -0.0861(3)
H5 H 0.7316 0.6605 -0.1389
C7 C 0.6343(3) 0.9679(3) 0.1225(3)
H6 H 0.5630 1.0095 0.1535
C8 C 0.7612(3) 1.1339(3) 0.2003(3)
H7 H 0.6809 1.1568 0.2402
H8 H 0.7826 1.1963 0.1393
C9 C 0.8708(3) 1.1190(3) 0.2982(3)
H9 H 0.8904 1.1970 0.3380
H10 H 0.8447 1.0626 0.3634
C10 C 1.0871(3) 1.0391(3) 0.3385(3)
H11 H 1.0645 0.9598 0.3720
H12 H 1.0810 1.0977 0.4070
C11 C 1.2267(3) 1.0349(3) 0.2991(3)
H13 H 1.2434 1.1067 0.2485
H14 H 1.2834 1.0393 0.3747
V1B V 1.07215(4) 1.07254(4) -0.10198(4)
N1B N 1.2534(2) 0.9839(2) -0.1383(2)
N2B N 1.0114(2) 0.9279(2) -0.2367(2)
O1B O 1.07656(19) 1.16749(17) -0.21787(19)
O2B O 0.92454(18) 1.08625(16) -0.03877(18)
O3B O 1.17464(18) 1.15628(18) 0.02330(18)
O4B O 0.7389(3) 1.0689(2) -0.2294(3)
H1B H 0.7738 1.0656 -0.1582
C1B C 1.2941(3) 1.2016(2) 0.0152(3)
C2B C 1.3900(3) 1.1469(3) -0.0596(3)
C3B C 1.5139(3) 1.2003(3) -0.0649(3)
H2B H 1.5768 1.1647 -0.1145
C4B C 1.5437(3) 1.3040(3) 0.0019(3)
H3B H 1.6253 1.3404 -0.0043
C5B C 1.4512(3) 1.3546(3) 0.0790(3)
H4B H 1.4725 1.4236 0.1267
C6B C 1.3288(3) 1.3044(3) 0.0861(3)
H5B H 1.2684 1.3395 0.1389
C7B C 1.3657(3) 1.0321(3) -0.1225(3)
H6B H 1.4370 0.9905 -0.1535
C8B C 1.2388(3) 0.8661(3) -0.2003(3)
H7B H 1.3191 0.8432 -0.2402
H8B H 1.2174 0.8037 -0.1393
C9B C 1.1292(3) 0.8810(3) -0.2982(3)
H9B H 1.1096 0.8030 -0.3380
H10B H 1.1553 0.9374 -0.3634
C10B C 0.9129(3) 0.9609(3) -0.3385(3)
H11B H 0.9355 1.0402 -0.3720
H12B H 0.9190 0.9023 -0.4070
C11B C 0.7733(3) 0.9651(3) -0.2991(3)
H13B H 0.7566 0.8933 -0.2485
H14B H 0.7166 0.9607 -0.3747
V1 V 0.92785(4) 0.92746(4) 1.10198(4)
N1 N 0.7466(2) 1.0161(2) 1.1383(2)
N2 N 0.9886(2) 1.0721(2) 1.2367(2)
O1 O 0.92344(19) 0.83251(17) 1.21787(19)
O2 O 1.07546(18) 0.91375(16) 1.03877(18)
O3 O 0.82536(18) 0.84372(18) 0.97670(18)
O4 O 1.2611(3) 0.9311(2) 1.2294(3)
H1 H 1.2262 0.9344 1.1582
C1 C 0.7059(3) 0.7984(2) 0.9848(3)
C2 C 0.6100(3) 0.8531(3) 1.0596(3)
C3 C 0.4861(3) 0.7997(3) 1.0649(3)
H2 H 0.4232 0.8353 1.1145
C4 C 0.4563(3) 0.6960(3) 0.9981(3)
H3 H 0.3747 0.6596 1.0043
C5 C 0.5488(3) 0.6454(3) 0.9210(3)
H4 H 0.5275 0.5764 0.8733
C6 C 0.6712(3) 0.6956(3) 0.9139(3)
H5 H 0.7316 0.6605 0.8611
C7 C 0.6343(3) 0.9679(3) 1.1225(3)
H6 H 0.5630 1.0095 1.1535
C8 C 0.7612(3) 1.1339(3) 1.2003(3)
H7 H 0.6809 1.1568 1.2402
H8 H 0.7826 1.1963 1.1393
C9 C 0.8708(3) 1.1190(3) 1.2982(3)
H9 H 0.8904 1.1970 1.3380
H10 H 0.8447 1.0626 1.3634
C10 C 1.0871(3) 1.0391(3) 1.3385(3)
H11 H 1.0645 0.9598 1.3720
H12 H 1.0810 1.0977 1.4070
C11 C 1.2267(3) 1.0349(3) 1.2991(3)
H13 H 1.2434 1.1067 1.2485
H14 H 1.2834 1.0393 1.3747
V1B V 1.07215(4) 1.07254(4) 0.89802(4)
N1B N 1.2534(2) 0.9839(2) 0.8617(2)
N2B N 1.0114(2) 0.9279(2) 0.7633(2)
O1B O 1.07656(19) 1.16749(17) 0.78213(19)
O2B O 0.92454(18) 1.08625(16) 0.96123(18)
O3B O 1.17464(18) 1.15628(18) 1.02330(18)
O4B O 0.7389(3) 1.0689(2) 0.7706(3)
H1B H 0.7738 1.0656 0.8418
C1B C 1.2941(3) 1.2016(2) 1.0152(3)
C2B C 1.3900(3) 1.1469(3) 0.9404(3)
C3B C 1.5139(3) 1.2003(3) 0.9351(3)
H2B H 1.5768 1.1647 0.8855
C4B C 1.5437(3) 1.3040(3) 1.0019(3)
H3B H 1.6253 1.3404 0.9957
C5B C 1.4512(3) 1.3546(3) 1.0790(3)
H4B H 1.4725 1.4236 1.1267
C6B C 1.3288(3) 1.3044(3) 1.0861(3)
H5B H 1.2684 1.3395 1.1389
C7B C 1.3657(3) 1.0321(3) 0.8775(3)
H6B H 1.4370 0.9905 0.8465
C8B C 1.2388(3) 0.8661(3) 0.7997(3)
H7B H 1.3191 0.8432 0.7598
H8B H 1.2174 0.8037 0.8607
C9B C 1.1292(3) 0.8810(3) 0.7018(3)
H9B H 1.1096 0.8030 0.6620
H10B H 1.1553 0.9374 0.6366
C10B C 0.9129(3) 0.9609(3) 0.6615(3)
H11B H 0.9355 1.0402 0.6280
H12B H 0.9190 0.9023 0.5930
C11B C 0.7733(3) 0.9651(3) 0.7009(3)
H13B H 0.7566 0.8933 0.7515
H14B H 0.7166 0.9607 0.6253
V1 V 0.07215(4) 0.42746(4) 0.39802(4)
N1 N 0.2534(2) 0.5161(2) 0.3617(2)
N2 N 0.0114(2) 0.5721(2) 0.2633(2)
O1 O 0.07656(19) 0.33251(17) 0.28213(19)
O2 O -0.07546(18) 0.41375(16) 0.46123(18)
O3 O 0.17464(18) 0.34372(18) 0.52330(18)
O4 O -0.2611(3) 0.4311(2) 0.2706(3)
H1 H -0.2262 0.4344 0.3418
C1 C 0.2941(3) 0.2984(2) 0.5152(3)
C2 C 0.3900(3) 0.3531(3) 0.4404(3)
C3 C 0.5139(3) 0.2997(3) 0.4351(3)
H2 H 0.5768 0.3353 0.3855
C4 C 0.5437(3) 0.1960(3) 0.5019(3)
H3 H 0.6253 0.1596 0.4957
C5 C 0.4512(3) 0.1454(3) 0.5790(3)
H4 H 0.4725 0.0764 0.6267
C6 C 0.3288(3) 0.1956(3) 0.5861(3)
H5 H 0.2684 0.1605 0.6389
C7 C 0.3657(3) 0.4679(3) 0.3775(3)
H6 H 0.4370 0.5095 0.3465
C8 C 0.2388(3) 0.6339(3) 0.2997(3)
H7 H 0.3191 0.6568 0.2598
H8 H 0.2174 0.6963 0.3607
C9 C 0.1292(3) 0.6190(3) 0.2018(3)
H9 H 0.1096 0.6970 0.1620
H10 H 0.1553 0.5626 0.1366
C10 C -0.0871(3) 0.5391(3) 0.1615(3)
H11 H -0.0645 0.4598 0.1280
H12 H -0.0810 0.5977 0.0930
C11 C -0.2267(3) 0.5349(3) 0.2009(3)
H13 H -0.2434 0.6067 0.2515
H14 H -0.2834 0.5393 0.1253
V1B V -0.07215(4) 0.57254(4) 0.60198(4)
N1B N -0.2534(2) 0.4839(2) 0.6383(2)
N2B N -0.0114(2) 0.4279(2) 0.7367(2)
O1B O -0.07656(19) 0.66749(17) 0.71787(19)
O2B O 0.07546(18) 0.58625(16) 0.53877(18)
O3B O -0.17464(18) 0.65628(18) 0.47670(18)
O4B O 0.2611(3) 0.5689(2) 0.7294(3)
H1B H 0.2262 0.5656 0.6582
C1B C -0.2941(3) 0.7016(2) 0.4848(3)
C2B C -0.3900(3) 0.6469(3) 0.5596(3)
C3B C -0.5139(3) 0.7003(3) 0.5649(3)
H2B H -0.5768 0.6647 0.6145
C4B C -0.5437(3) 0.8040(3) 0.4981(3)
H3B H -0.6253 0.8404 0.5043
C5B C -0.4512(3) 0.8546(3) 0.4210(3)
H4B H -0.4725 0.9236 0.3733
C6B C -0.3288(3) 0.8044(3) 0.4139(3)
H5B H -0.2684 0.8395 0.3611
C7B C -0.3657(3) 0.5321(3) 0.6225(3)
H6B H -0.4370 0.4905 0.6535
C8B C -0.2388(3) 0.3661(3) 0.7003(3)
H7B H -0.3191 0.3432 0.7402
H8B H -0.2174 0.3037 0.6393
C9B C -0.1292(3) 0.3810(3) 0.7982(3)
H9B H -0.1096 0.3030 0.8380
H10B H -0.1553 0.4374 0.8634
C10B C 0.0871(3) 0.4609(3) 0.8385(3)
H11B H 0.0645 0.5402 0.8720
H12B H 0.0810 0.4023 0.9070
C11B C 0.2267(3) 0.4651(3) 0.7991(3)
H13B H 0.2434 0.3933 0.7485
H14B H 0.2834 0.4607 0.8747
V1 V 1.07215(4) 0.42746(4) 0.39802(4)
N1 N 1.2534(2) 0.5161(2) 0.3617(2)
N2 N 1.0114(2) 0.5721(2) 0.2633(2)
O1 O 1.07656(19) 0.33251(17) 0.28213(19)
O2 O 0.92454(18) 0.41375(16) 0.46123(18)
O3 O 1.17464(18) 0.34372(18) 0.52330(18)
O4 O 0.7389(3) 0.4311(2) 0.2706(3)
H1 H 0.7738 0.4344 0.3418
C1 C 1.2941(3) 0.2984(2) 0.5152(3)
C2 C 1.3900(3) 0.3531(3) 0.4404(3)
C3 C 1.5139(3) 0.2997(3) 0.4351(3)
H2 H 1.5768 0.3353 0.3855
C4 C 1.5437(3) 0.1960(3) 0.5019(3)
H3 H 1.6253 0.1596 0.4957
C5 C 1.4512(3) 0.1454(3) 0.5790(3)
H4 H 1.4725 0.0764 0.6267
C6 C 1.3288(3) 0.1956(3) 0.5861(3)
H5 H 1.2684 0.1605 0.6389
C7 C 1.3657(3) 0.4679(3) 0.3775(3)
H6 H 1.4370 0.5095 0.3465
C8 C 1.2388(3) 0.6339(3) 0.2997(3)
H7 H 1.3191 0.6568 0.2598
H8 H 1.2174 0.6963 0.3607
C9 C 1.1292(3) 0.6190(3) 0.2018(3)
H9 H 1.1096 0.6970 0.1620
H10 H 1.1553 0.5626 0.1366
C10 C 0.9129(3) 0.5391(3) 0.1615(3)
H11 H 0.9355 0.4598 0.1280
H12 H 0.9190 0.5977 0.0930
C11 C 0.7733(3) 0.5349(3) 0.2009(3)
H13 H 0.7566 0.6067 0.2515
H14 H 0.7166 0.5393 0.1253
V1B V 0.92785(4) 0.57254(4) 0.60198(4)
N1B N 0.7466(2) 0.4839(2) 0.6383(2)
N2B N 0.9886(2) 0.4279(2) 0.7367(2)
O1B O 0.92344(19) 0.66749(17) 0.71787(19)
O2B O 1.07546(18) 0.58625(16) 0.53877(18)
O3B O 0.82536(18) 0.65628(18) 0.47670(18)
O4B O 1.2611(3) 0.5689(2) 0.7294(3)
H1B H 1.2262 0.5656 0.6582
C1B C 0.7059(3) 0.7016(2) 0.4848(3)
C2B C 0.6100(3) 0.6469(3) 0.5596(3)
C3B C 0.4861(3) 0.7003(3) 0.5649(3)
H2B H 0.4232 0.6647 0.6145
C4B C 0.4563(3) 0.8040(3) 0.4981(3)
H3B H 0.3747 0.8404 0.5043
C5B C 0.5488(3) 0.8546(3) 0.4210(3)
H4B H 0.5275 0.9236 0.3733
C6B C 0.6712(3) 0.8044(3) 0.4139(3)
H5B H 0.7316 0.8395 0.3611
C7B C 0.6343(3) 0.5321(3) 0.6225(3)
H6B H 0.5630 0.4905 0.6535
C8B C 0.7612(3) 0.3661(3) 0.7003(3)
H7B H 0.6809 0.3432 0.7402
H8B H 0.7826 0.3037 0.6393
C9B C 0.8708(3) 0.3810(3) 0.7982(3)
H9B H 0.8904 0.3030 0.8380
H10B H 0.8447 0.4374 0.8634
C10B C 1.0871(3) 0.4609(3) 0.8385(3)
H11B H 1.0645 0.5402 0.8720
H12B H 1.0810 0.4023 0.9070
C11B C 1.2267(3) 0.4651(3) 0.7991(3)
H13B H 1.2434 0.3933 0.7485
H14B H 1.2834 0.4607 0.8747

#END
