./KACRAK_from_POSCAR.cif_generated_by_CrystalShift
_symmetry_cell_setting triclinic
_symmetry_space_group_name_H-M 'P 1'
loop_
_symmetry_equiv_pos_site_id
_symmetry_equiv_pos_as_xyz
1 x,y,z
_cell_length_a 10.660800
_cell_length_b 20.741000
_cell_length_c 9.945500
_cell_angle_alpha 90.000000
_cell_angle_beta 102.307000
_cell_angle_gamma 90.000000
_cell_volume 2148.569265
loop_
_atom_site_label
_atom_site_type_symbol
_atom_site_fract_x
_atom_site_fract_y
_atom_site_fract_z
H1 H 0.342800 0.217800 0.452700
H2 H 0.468200 0.176500 0.495400
H3 H 0.238200 0.142600 0.566600
H4 H 0.371900 0.109300 0.621200
H5 H 0.732500 0.291600 0.528700
H6 H 0.524600 0.445500 0.951200
H7 H 0.687100 0.508500 0.902200
H8 H 0.764200 0.490200 0.707100
H9 H 0.680400 0.408100 0.560700
H10 H 0.715300 0.172700 0.289300
H11 H 0.514000 0.346700 0.604800
H12 H 0.135500 0.269400 1.183800
H13 H 0.834300 0.021300 0.192500
H14 H 0.147200 0.345600 1.352300
H15 H 0.715500 -0.052300 0.046600
H16 H 0.323800 0.411500 1.409700
H17 H 0.505700 -0.030100 -0.057400
H18 H 0.492900 0.398400 1.302500
H19 H 0.415900 0.066600 -0.017000
H20 H 0.481600 0.322800 1.130900
H21 H 0.531900 0.140300 0.130500
H22 H 0.031900 0.359700 0.630500
H23 H -0.084100 0.433400 0.483000
H24 H 0.981600 0.177200 0.630900
H25 H 0.005700 0.530100 0.442600
H26 H 0.992900 0.101600 0.802500
H27 H 0.215500 0.552300 0.546600
H28 H 0.823800 0.088500 0.909700
H29 H 0.334300 0.478700 0.692500
H30 H 0.647200 0.154400 0.852300
H31 H 0.215300 0.327300 0.789300
H32 H 0.635500 0.230600 0.683800
H33 H 0.232500 0.208400 1.028700
H34 H 0.342800 0.782200 -0.047300
H35 H 1.014000 0.153300 0.104800
H36 H 0.347400 0.852400 -0.104300
H37 H 1.180400 0.091900 0.060700
H38 H 0.468200 0.823500 -0.004600
H39 H 1.264200 0.009800 0.207100
H40 H 0.238200 0.857400 0.066600
H41 H 1.187100 -0.008500 0.402200
H42 H 0.371900 0.890700 0.121200
H43 H 1.024600 0.054500 0.451200
H44 H 0.524600 0.554500 0.451200
H45 H 0.687100 0.491500 0.402200
H46 H 0.871900 0.390700 0.121200
H47 H 0.738200 0.357400 0.066600
H48 H 0.764200 0.509800 0.207100
H49 H 0.968200 0.323500 -0.004600
H50 H 0.847400 0.352400 -0.104300
H51 H 0.842800 0.282200 -0.047300
H52 H 0.680400 0.591900 0.060700
H53 H 0.514000 0.653300 0.104800
H54 H 0.135500 0.730600 0.683800
H55 H 0.147200 0.654400 0.852300
H56 H 0.732500 0.708400 1.028700
H57 H 0.323800 0.588500 0.909700
H58 H 0.492900 0.601600 0.802500
H59 H 0.481600 0.677200 0.630900
H60 H 0.031900 0.640300 0.130500
H61 H 0.715300 0.827300 0.789300
H62 H -0.084100 0.566600 -0.017000
H63 H 0.005700 0.469900 -0.057400
H64 H 0.834300 0.978700 0.692500
H65 H 0.215500 0.447700 0.046600
H66 H 0.715500 1.052300 0.546600
H67 H 0.334300 0.521300 0.192500
H68 H 0.505700 1.030100 0.442600
H69 H 0.215300 0.672700 0.289300
H70 H 0.415900 0.933400 0.483000
H71 H 0.232500 0.791600 0.528700
H72 H 0.531900 0.859700 0.630500
H73 H 0.842800 0.717800 0.452700
H74 H 0.847400 0.647600 0.395700
H75 H 0.981600 0.822800 1.130900
H76 H 0.968200 0.676500 0.495400
H77 H 0.992900 0.898400 1.302500
H78 H 0.738200 0.642600 0.566600
H79 H 0.823800 0.911500 1.409700
H80 H 0.871900 0.609300 0.621200
H81 H 0.647200 0.845600 1.352300
H82 H 1.024600 0.945500 0.951200
H83 H 0.635500 0.769400 1.183800
H84 H 1.187100 1.008500 0.902200
H85 H 1.264200 0.990200 0.707100
H86 H 1.014000 0.846700 0.604800
H87 H 1.180400 0.908100 0.560700
H88 H 0.347400 0.147600 0.395700
C89 C 1.198400 0.964710 0.726200
C90 C 1.048500 0.879430 0.665400
C91 C 1.152200 0.975670 0.842200
C92 C 0.999300 0.890310 0.780900
C93 C 1.054000 0.938350 0.871000
C94 C 0.707200 0.795980 1.205500
C95 C 0.808400 0.686690 0.811900
C96 C 0.830100 0.649960 0.591800
C97 C 0.714500 0.841230 1.306900
C98 C 0.820100 0.880190 1.342000
C99 C 0.876100 0.675130 0.473800
C100 C 0.920000 0.872800 1.277200
C101 C 0.913000 0.827560 1.174300
C102 C 0.805400 0.789120 1.134600
C103 C 0.376100 0.175130 0.473800
C104 C 0.788900 0.258060 0.522800
C105 C 0.330100 0.149960 0.591800
C106 C 0.288900 0.758060 0.522800
C107 C 0.570400 0.898180 0.613200
C108 C 0.342590 0.759890 0.414200
C109 C 0.439210 0.711700 0.384900
C110 C 0.393990 0.651800 0.308400
C111 C 0.267700 0.641650 0.262100
C112 C 0.500400 0.942570 0.525800
C113 C 0.197900 0.590280 0.176400
C114 C 0.249900 0.531010 0.150200
C115 C 0.553900 1.000070 0.501300
C116 C 0.178800 0.486740 0.063400
C117 C 0.678800 1.013260 0.563400
C118 C 0.053900 0.499930 0.001300
C119 C 0.749900 0.968990 0.650200
C120 C 0.000400 0.557430 0.025800
C121 C 0.697900 0.909720 0.676400
C122 C 0.070400 0.601820 0.113200
C123 C 0.767700 0.858350 0.762100
C124 C 0.305400 0.710880 0.634600
C125 C 0.413000 0.672440 0.674300
C126 C 0.893990 0.848200 0.808400
C127 C 0.420000 0.627200 0.777200
C128 C 0.939210 0.788300 0.884900
C129 C 0.320100 0.619810 0.842000
C130 C 0.842590 0.740110 0.914200
C131 C 0.214500 0.658770 0.806900
C132 C 0.788900 0.741940 1.022800
C133 C 0.207200 0.704020 0.705500
C134 C 0.308400 0.186690 0.811900
C135 C 0.499300 0.609690 0.280900
C136 C 0.548500 0.620570 0.165400
C137 C 0.842590 0.259890 0.414200
C138 C 0.647800 0.583730 0.138600
C139 C 0.554000 0.438350 0.871000
C140 C 0.698400 0.535290 0.226200
C141 C 0.876100 0.324870 -0.026200
C142 C 0.652200 0.524330 0.342200
C143 C 0.830100 0.350040 0.091800
C144 C 0.554000 0.561650 0.371000
C145 C 0.808400 0.313310 0.311900
C146 C 0.308400 0.813310 0.311900
C147 C 0.330100 0.850040 0.091800
C148 C 1.054000 0.061650 0.371000
C149 C 1.152200 0.024330 0.342200
C150 C 0.376100 0.824870 -0.026200
C151 C 1.198400 0.035290 0.226200
C152 C 1.147800 0.083730 0.138600
C153 C 1.048500 0.120570 0.165400
C154 C 0.939210 0.211700 0.384900
C155 C 0.652200 0.475670 0.842200
C156 C 0.893990 0.151800 0.308400
C157 C 0.288900 0.241940 1.022800
C158 C 0.999300 0.109690 0.280900
C159 C 0.342590 0.240110 0.914200
C160 C 0.439210 0.288300 0.884900
C161 C 0.393990 0.348200 0.808400
C162 C 0.267700 0.358350 0.762100
C163 C 0.707200 0.204020 0.705500
C164 C 0.197900 0.409720 0.676400
C165 C 0.249900 0.468990 0.650200
C166 C 0.714500 0.158770 0.806900
C167 C 0.178800 0.513260 0.563400
C168 C 0.820100 0.119810 0.842000
C169 C 0.053900 0.500070 0.501300
C170 C 0.920000 0.127200 0.777200
C171 C 0.000400 0.442570 0.525800
C172 C 0.913000 0.172440 0.674300
C173 C 0.070400 0.398180 0.613200
C174 C 0.805400 0.210880 0.634600
C175 C 0.305400 0.289120 1.134600
C176 C 0.413000 0.327560 1.174300
C177 C 0.570400 0.101820 0.113200
C178 C 0.420000 0.372800 1.277200
C179 C 0.500400 0.057430 0.025800
C180 C 0.320100 0.380190 1.342000
C181 C 0.553900 -0.000070 0.001300
C182 C 0.214500 0.341230 1.306900
C183 C 0.678800 -0.013260 0.063400
C184 C 0.207200 0.295980 1.205500
C185 C 0.749900 0.031010 0.150200
C186 C 0.499300 0.390310 0.780900
C187 C 0.548500 0.379430 0.665400
C188 C 0.697900 0.090280 0.176400
C189 C 0.647800 0.416270 0.638600
C190 C 0.767700 0.141650 0.262100
C191 C 0.698400 0.464710 0.726200
C192 C 1.147800 0.916270 0.638600
O193 O 0.243970 0.140920 0.825600
O194 O 0.552250 0.276530 0.922770
O195 O 1.052250 0.776530 0.922770
O196 O 0.743970 0.640920 0.825600
O197 O 0.859280 0.696780 0.703010
O198 O 0.359280 0.803220 0.203010
O199 O 0.243970 0.859080 0.325600
O200 O 0.859280 0.303220 0.203010
O201 O 0.552250 0.723470 0.422770
O202 O 0.743970 0.359080 0.325600
O203 O 0.359280 0.196780 0.703010
O204 O 1.052250 0.223470 0.422770

#END
