./MAQGOA_from_xyz.cif_generated_by_CrystalShift
_symmetry_cell_setting triclinic
_symmetry_space_group_name_H-M 'P 1'
loop_
_symmetry_equiv_pos_site_id
_symmetry_equiv_pos_as_xyz
1 x,y,z
_cell_length_a 9.336100
_cell_length_b 9.626100
_cell_length_c 17.764000
_cell_angle_alpha 90.000000
_cell_angle_beta 90.000000
_cell_angle_gamma 90.000000
_cell_volume 1596.454805
loop_
_atom_site_label
_atom_site_type_symbol
_atom_site_fract_x
_atom_site_fract_y
_atom_site_fract_z
C1 C 0.296400 0.862300 0.865510
H2 H 0.259100 0.944800 0.890040
H3 H 0.303200 0.882000 0.812070
O4 O 0.196150 0.748800 0.876710
C5 C 0.240400 0.621400 0.857720
O6 O 0.153100 0.528100 0.855240
C7 C 0.393100 0.599700 0.844500
H8 H 0.422800 0.518000 0.821330
C9 C 0.491600 0.693100 0.864500
C10 C 0.648000 0.658900 0.863180
H11 H 0.677400 0.637000 0.914790
O12 O 0.671800 0.539400 0.818510
H13 H 0.753000 0.490000 0.848000
C14 C 0.739100 0.779900 0.836020
H15 H 0.722500 0.794300 0.782680
H16 H 0.839600 0.757400 0.842790
C17 C 0.705000 0.913400 0.878460
H18 H 0.723100 0.899200 0.932260
C19 C 0.546000 0.950600 0.866880
H20 H 0.531100 0.956200 0.812350
C21 C 0.445800 0.832900 0.895780
C22 C 0.506700 1.093600 0.898740
H23 H 0.508000 1.088900 0.953280
H24 H 0.409900 1.116600 0.883310
C25 C 0.608200 1.209600 0.872940
H26 H 0.596200 1.224900 0.819330
H27 H 0.584000 1.295100 0.898810
C28 C 0.764700 1.172000 0.889360
C29 C 0.796200 1.033500 0.850580
H30 H 0.771500 1.046400 0.797430
C31 C 0.960200 1.020200 0.853600
H32 H 0.995800 0.967300 0.811000
H33 H 0.990700 0.975400 0.899800
C34 C 1.013400 1.172200 0.850400
H35 H 1.072300 1.193500 0.893900
H36 H 1.069300 1.188100 0.805100
C37 C 0.877800 1.261900 0.850010
H38 H 0.848000 1.276100 0.797660
O39 O 0.893400 1.394490 0.884910
H40 H 0.973000 1.429000 0.869200
C41 C 0.792600 1.169900 0.974280
H42 H 0.726500 1.107300 0.998100
H43 H 0.779900 1.261600 0.994400
H44 H 0.888900 1.139300 0.983600
C45 C 0.442800 0.822100 0.982480
H46 H 0.380200 0.747800 0.997230
H47 H 0.408500 0.907900 1.003360
H48 H 0.537700 0.803900 1.000780
C49 C 1.203600 0.137700 0.365510
H50 H 1.240900 0.055200 0.390040
H51 H 1.196800 0.118000 0.312070
O52 O 1.303850 0.251200 0.376710
C53 C 1.259600 0.378600 0.357720
O54 O 1.346900 0.471900 0.355240
C55 C 1.106900 0.400300 0.344500
H56 H 1.077200 0.482000 0.321330
C57 C 1.008400 0.306900 0.364500
C58 C 0.852000 0.341100 0.363180
H59 H 0.822600 0.363000 0.414790
O60 O 0.828200 0.460600 0.318510
H61 H 0.747000 0.510000 0.348000
C62 C 0.760900 0.220100 0.336020
H63 H 0.777500 0.205700 0.282680
H64 H 0.660400 0.242600 0.342790
C65 C 0.795000 0.086600 0.378460
H66 H 0.776900 0.100800 0.432260
C67 C 0.954000 0.049400 0.366880
H68 H 0.968900 0.043800 0.312350
C69 C 1.054200 0.167100 0.395780
C70 C 0.993300 -0.093600 0.398740
H71 H 0.992000 -0.088900 0.453280
H72 H 1.090100 -0.116600 0.383310
C73 C 0.891800 -0.209600 0.372940
H74 H 0.903800 -0.224900 0.319330
H75 H 0.916000 -0.295100 0.398810
C76 C 0.735300 -0.172000 0.389360
C77 C 0.703800 -0.033500 0.350580
H78 H 0.728500 -0.046400 0.297430
C79 C 0.539800 -0.020200 0.353600
H80 H 0.504200 0.032700 0.311000
H81 H 0.509300 0.024600 0.399800
C82 C 0.486600 -0.172200 0.350400
H83 H 0.427700 -0.193500 0.393900
H84 H 0.430700 -0.188100 0.305100
C85 C 0.622200 -0.261900 0.350010
H86 H 0.652000 -0.276100 0.297660
O87 O 0.606600 -0.394490 0.384910
H88 H 0.527000 -0.429000 0.369200
C89 C 0.707400 -0.169900 0.474280
H90 H 0.773500 -0.107300 0.498100
H91 H 0.720100 -0.261600 0.494400
H92 H 0.611100 -0.139300 0.483600
C93 C 1.057200 0.177900 0.482480
H94 H 1.119800 0.252200 0.497230
H95 H 1.091500 0.092100 0.503360
H96 H 0.962300 0.196100 0.500780
C97 C 0.703600 0.362300 0.634490
H98 H 0.740900 0.444800 0.609960
H99 H 0.696800 0.382000 0.687930
O100 O 0.803850 0.248800 0.623290
C101 C 0.759600 0.121400 0.642280
O102 O 0.846900 0.028100 0.644760
C103 C 0.606900 0.099700 0.655500
H104 H 0.577200 0.018000 0.678670
C105 C 0.508400 0.193100 0.635500
C106 C 0.352000 0.158900 0.636820
H107 H 0.322600 0.137000 0.585210
O108 O 0.328200 0.039400 0.681490
H109 H 0.247000 -0.010000 0.652000
C110 C 0.260900 0.279900 0.663980
H111 H 0.277500 0.294300 0.717320
H112 H 0.160400 0.257400 0.657210
C113 C 0.295000 0.413400 0.621540
H114 H 0.276900 0.399200 0.567740
C115 C 0.454000 0.450600 0.633120
H116 H 0.468900 0.456200 0.687650
C117 C 0.554200 0.332900 0.604220
C118 C 0.493300 0.593600 0.601260
H119 H 0.492000 0.588900 0.546720
H120 H 0.590100 0.616600 0.616690
C121 C 0.391800 0.709600 0.627060
H122 H 0.403800 0.724900 0.680670
H123 H 0.416000 0.795100 0.601190
C124 C 0.235300 0.672000 0.610640
C125 C 0.203800 0.533500 0.649420
H126 H 0.228500 0.546400 0.702570
C127 C 0.039800 0.520200 0.646400
H128 H 0.004200 0.467300 0.689000
H129 H 0.009300 0.475400 0.600200
C130 C -0.013400 0.672200 0.649600
H131 H -0.072300 0.693500 0.606100
H132 H -0.069300 0.688100 0.694900
C133 C 0.122200 0.761900 0.649990
H134 H 0.152000 0.776100 0.702340
O135 O 0.106600 0.894490 0.615090
H136 H 0.027000 0.929000 0.630800
C137 C 0.207400 0.669900 0.525720
H138 H 0.273500 0.607300 0.501900
H139 H 0.220100 0.761600 0.505600
H140 H 0.111100 0.639300 0.516400
C141 C 0.557200 0.322100 0.517520
H142 H 0.619800 0.247800 0.502770
H143 H 0.591500 0.407900 0.496640
H144 H 0.462300 0.303900 0.499220
C145 C -0.203600 0.637700 0.134490
H146 H -0.240900 0.555200 0.109960
H147 H -0.196800 0.618000 0.187930
O148 O -0.303850 0.751200 0.123290
C149 C -0.259600 0.878600 0.142280
O150 O -0.346900 0.971900 0.144760
C151 C -0.106900 0.900300 0.155500
H152 H -0.077200 0.982000 0.178670
C153 C -0.008400 0.806900 0.135500
C154 C 0.148000 0.841100 0.136820
H155 H 0.177400 0.863000 0.085210
O156 O 0.171800 0.960600 0.181490
H157 H 0.253000 1.010000 0.152000
C158 C 0.239100 0.720100 0.163980
H159 H 0.222500 0.705700 0.217320
H160 H 0.339600 0.742600 0.157210
C161 C 0.205000 0.586600 0.121540
H162 H 0.223100 0.600800 0.067740
C163 C 0.046000 0.549400 0.133120
H164 H 0.031100 0.543800 0.187650
C165 C -0.054200 0.667100 0.104220
C166 C 0.006700 0.406400 0.101260
H167 H 0.008000 0.411100 0.046720
H168 H -0.090100 0.383400 0.116690
C169 C 0.108200 0.290400 0.127060
H170 H 0.096200 0.275100 0.180670
H171 H 0.084000 0.204900 0.101190
C172 C 0.264700 0.328000 0.110640
C173 C 0.296200 0.466500 0.149420
H174 H 0.271500 0.453600 0.202570
C175 C 0.460200 0.479800 0.146400
H176 H 0.495800 0.532700 0.189000
H177 H 0.490700 0.524600 0.100200
C178 C 0.513400 0.327800 0.149600
H179 H 0.572300 0.306500 0.106100
H180 H 0.569300 0.311900 0.194900
C181 C 0.377800 0.238100 0.149990
H182 H 0.348000 0.223900 0.202340
O183 O 0.393400 0.105510 0.115090
H184 H 0.473000 0.071000 0.130800
C185 C 0.292600 0.330100 0.025720
H186 H 0.226500 0.392700 0.001900
H187 H 0.279900 0.238400 0.005600
H188 H 0.388900 0.360700 0.016400
C189 C -0.057200 0.677900 0.017520
H190 H -0.119800 0.752200 0.002770
H191 H -0.091500 0.592100 -0.003360
H192 H 0.037700 0.696100 -0.000780

#END
