
#######################################################################
#
#                 Cambridge Crystallographic Data Centre
#                                CCDC 
#
#######################################################################
#
# If this CIF has been generated from an entry in the Cambridge 
# Structural Database, then it will include bibliographic, chemical, 
# crystal, experimental, refinement or atomic coordinate data resulting 
# from the CCDC's data processing and validation procedures.
#
#######################################################################

data_MAQTIK
_symmetry_cell_setting           monoclinic
_symmetry_space_group_name_H-M   'P 21/n'
_symmetry_Int_Tables_number      14
_space_group_name_Hall           '-P 2yn'
loop_
_symmetry_equiv_pos_site_id
_symmetry_equiv_pos_as_xyz
1 x,y,z
2 1/2-x,1/2+y,1/2-z
3 -x,-y,-z
4 1/2+x,1/2-y,1/2+z
_cell_length_a                   10.7953(14)
_cell_length_b                   18.4091(7)
_cell_length_c                   10.9333(7)
_cell_angle_alpha                90
_cell_angle_beta                 92.583(9)
_cell_angle_gamma                90
_cell_volume                     2170.59
loop_
_atom_site_label
_atom_site_type_symbol
_atom_site_fract_x
_atom_site_fract_y
_atom_site_fract_z
N1 N 0.85350(8) 0.03533(5) 0.96477(8)
O1 O 0.94199(7) 0.09377(4) 0.98952(7)
O2 O 0.70230(8) -0.01123(5) 0.67363(8)
C1 C 0.78290(10) 0.02010(6) 1.06833(10)
O3 O 0.92758(8) -0.32641(4) 0.53336(8)
N2 N 0.84837(9) -0.07091(5) 0.79325(9)
H1 H 0.8905 -0.0682 0.8618
C2 C 0.76274(10) 0.01233(6) 1.28696(10)
H2 H 0.7934 0.0237 1.3655
C3 C 0.67233(10) -0.01942(6) 1.05253(10)
H3 H 0.6407 -0.0301 0.9740
C4 C 0.82687(10) 0.03656(6) 1.18668(10)
H4 H 0.8990 0.0637 1.1990
C5 C 0.77344(10) -0.01441(6) 0.76357(11)
C6 C 0.65398(10) -0.02846(6) 1.27287(10)
C7 C 0.86437(10) -0.13459(6) 0.72199(10)
C8 C 0.60978(10) -0.04268(6) 1.15365(11)
H5 H 0.5362 -0.0685 1.1414
C9 C 0.78512(10) 0.05117(6) 0.84835(10)
H6 H 0.7022 0.0693 0.8651
C10 C 0.90597(10) -0.26124(6) 0.58953(10)
C11 C 1.10208(12) 0.32398(7) 0.89987(11)
H7 H 1.0910 0.3740 0.9050
C12 C 0.90716(10) 0.15240(6) 0.90718(10)
H8 H 0.8385 0.1797 0.9407
C13 C 1.00029(12) 0.27705(7) 0.90555(11)
H9 H 0.9214 0.2959 0.9153
C14 C 1.01717(10) 0.20203(6) 0.89665(10)
C15 C 0.86468(11) -0.19882(6) 0.52947(10)
H10 H 0.8503 -0.1992 0.4450
C16 C 0.86059(10) 0.11193(6) 0.79333(10)
C17 C 0.92602(12) -0.26034(7) 0.71614(11)
H11 H 0.9538 -0.3020 0.7569
C18 C 1.13600(11) 0.17446(7) 0.88233(11)
H12 H 1.1477 0.1246 0.8757
C19 C 0.90475(11) -0.19763(7) 0.78147(11)
H13 H 0.9176 -0.1976 0.8662
C20 C 0.91899(14) -0.32764(7) 0.40290(11)
H14 H 0.9757 -0.2928 0.3715
H15 H 0.8359 -0.3156 0.3749
H16 H 0.9396 -0.3753 0.3744
C21 C 0.58765(11) -0.05758(7) 1.38123(11)
H17 H 0.6047 -0.1085 1.3904
H18 H 0.5000 -0.0504 1.3682
H19 H 0.6161 -0.0324 1.4540
C22 C 0.84469(11) -0.13543(6) 0.59562(11)
H20 H 0.8181 -0.0935 0.5549
C23 C 1.21953(12) 0.29526(7) 0.88650(11)
H21 H 1.2874 0.3262 0.8832
C24 C 0.82351(12) 0.14907(8) 0.67631(11)
H22 H 0.8361 0.2012 0.6717
H23 H 0.7505 0.1312 0.6308
C25 C 0.93683(12) 0.10120(8) 0.68293(11)
H24 H 0.9318 0.0545 0.6418
H25 H 1.0174 0.1245 0.6827
C26 C 1.23672(12) 0.22095(7) 0.87799(11)
H26 H 1.3158 0.2022 0.8694
N1 N 0.64650(8) 0.53533(5) 0.53523(8)
O1 O 0.55801(7) 0.59377(4) 0.51048(7)
O2 O 0.79770(8) 0.48877(5) 0.82637(8)
C1 C 0.71710(10) 0.52010(6) 0.43167(10)
O3 O 0.57242(8) 0.17359(4) 0.96664(8)
N2 N 0.65163(9) 0.42909(5) 0.70675(9)
H1 H 0.6095 0.4318 0.6382
C2 C 0.73726(10) 0.51233(6) 0.21304(10)
H2 H 0.7066 0.5237 0.1345
C3 C 0.82767(10) 0.48058(6) 0.44747(10)
H3 H 0.8593 0.4699 0.5260
C4 C 0.67313(10) 0.53656(6) 0.31332(10)
H4 H 0.6010 0.5637 0.3010
C5 C 0.72656(10) 0.48559(6) 0.73643(11)
C6 C 0.84602(10) 0.47154(6) 0.22713(10)
C7 C 0.63563(10) 0.36541(6) 0.77801(10)
C8 C 0.89022(10) 0.45732(6) 0.34635(11)
H5 H 0.9638 0.4315 0.3586
C9 C 0.71488(10) 0.55117(6) 0.65165(10)
H6 H 0.7978 0.5693 0.6349
C10 C 0.59403(10) 0.23876(6) 0.91047(10)
C11 C 0.39792(12) 0.82398(7) 0.60013(11)
H7 H 0.4090 0.8740 0.5950
C12 C 0.59284(10) 0.65240(6) 0.59282(10)
H8 H 0.6615 0.6797 0.5593
C13 C 0.49971(12) 0.77705(7) 0.59445(11)
H9 H 0.5786 0.7959 0.5847
C14 C 0.48283(10) 0.70203(6) 0.60335(10)
C15 C 0.63532(11) 0.30118(6) 0.97053(10)
H10 H 0.6497 0.3008 1.0550
C16 C 0.63941(10) 0.61193(6) 0.70667(10)
C17 C 0.57398(12) 0.23966(7) 0.78386(11)
H11 H 0.5462 0.1980 0.7431
C18 C 0.36400(11) 0.67446(7) 0.61767(11)
H12 H 0.3523 0.6246 0.6243
C19 C 0.59525(11) 0.30237(7) 0.71853(11)
H13 H 0.5824 0.3024 0.6338
C20 C 0.58101(14) 0.17236(7) 1.09710(11)
H14 H 0.5243 0.2072 1.1285
H15 H 0.6641 0.1844 1.1251
H16 H 0.5604 0.1247 1.1256
C21 C 0.91235(11) 0.44242(7) 0.11877(11)
H17 H 0.8953 0.3915 0.1096
H18 H 1.0000 0.4496 0.1318
H19 H 0.8839 0.4676 0.0460
C22 C 0.65531(11) 0.36457(6) 0.90438(11)
H20 H 0.6819 0.4065 0.9451
C23 C 0.28047(12) 0.79526(7) 0.61350(11)
H21 H 0.2126 0.8262 0.6168
C24 C 0.67649(12) 0.64907(8) 0.82369(11)
H22 H 0.6639 0.7012 0.8283
H23 H 0.7495 0.6312 0.8692
C25 C 0.56317(12) 0.60120(8) 0.81707(11)
H24 H 0.5682 0.5545 0.8582
H25 H 0.4826 0.6245 0.8173
C26 C 0.26328(12) 0.72095(7) 0.62201(11)
H26 H 0.1842 0.7022 0.6306
N1 N 0.14650(8) 0.96467(5) 0.03523(8)
O1 O 0.05801(7) 0.90623(4) 0.01048(7)
O2 O 0.29770(8) 1.01123(5) 0.32637(8)
C1 C 0.21710(10) 0.97990(6) -0.06833(10)
O3 O 0.07242(8) 1.32641(4) 0.46664(8)
N2 N 0.15163(9) 1.07091(5) 0.20675(9)
H1 H 0.1095 1.0682 0.1382
C2 C 0.23726(10) 0.98767(6) -0.28696(10)
H2 H 0.2066 0.9763 -0.3655
C3 C 0.32767(10) 1.01942(6) -0.05253(10)
H3 H 0.3593 1.0301 0.0260
C4 C 0.17313(10) 0.96344(6) -0.18668(10)
H4 H 0.1010 0.9363 -0.1990
C5 C 0.22656(10) 1.01441(6) 0.23643(11)
C6 C 0.34602(10) 1.02846(6) -0.27287(10)
C7 C 0.13563(10) 1.13459(6) 0.27801(10)
C8 C 0.39022(10) 1.04268(6) -0.15365(11)
H5 H 0.4638 1.0685 -0.1414
C9 C 0.21488(10) 0.94883(6) 0.15165(10)
H6 H 0.2978 0.9307 0.1349
C10 C 0.09403(10) 1.26124(6) 0.41047(10)
C11 C -0.10208(12) 0.67602(7) 0.10013(11)
H7 H -0.0910 0.6260 0.0950
C12 C 0.09284(10) 0.84760(6) 0.09282(10)
H8 H 0.1615 0.8203 0.0593
C13 C -0.00029(12) 0.72295(7) 0.09445(11)
H9 H 0.0786 0.7041 0.0847
C14 C -0.01717(10) 0.79797(6) 0.10335(10)
C15 C 0.13532(11) 1.19882(6) 0.47053(10)
H10 H 0.1497 1.1992 0.5550
C16 C 0.13941(10) 0.88807(6) 0.20667(10)
C17 C 0.07398(12) 1.26034(7) 0.28386(11)
H11 H 0.0462 1.3020 0.2431
C18 C -0.13600(11) 0.82554(7) 0.11767(11)
H12 H -0.1477 0.8754 0.1243
C19 C 0.09525(11) 1.19763(7) 0.21853(11)
H13 H 0.0824 1.1976 0.1338
C20 C 0.08101(14) 1.32764(7) 0.59710(11)
H14 H 0.0243 1.2928 0.6285
H15 H 0.1641 1.3156 0.6251
H16 H 0.0604 1.3753 0.6256
C21 C 0.41235(11) 1.05758(7) -0.38123(11)
H17 H 0.3953 1.1085 -0.3904
H18 H 0.5000 1.0504 -0.3682
H19 H 0.3839 1.0324 -0.4540
C22 C 0.15531(11) 1.13543(6) 0.40438(11)
H20 H 0.1819 1.0935 0.4451
C23 C -0.21953(12) 0.70474(7) 0.11350(11)
H21 H -0.2874 0.6738 0.1168
C24 C 0.17649(12) 0.85093(8) 0.32369(11)
H22 H 0.1639 0.7988 0.3283
H23 H 0.2495 0.8688 0.3692
C25 C 0.06317(12) 0.89880(8) 0.31707(11)
H24 H 0.0682 0.9455 0.3582
H25 H -0.0174 0.8755 0.3173
C26 C -0.23672(12) 0.77905(7) 0.12201(11)
H26 H -0.3158 0.7978 0.1306
N1 N 0.35350(8) 0.46467(5) 0.46477(8)
O1 O 0.44199(7) 0.40623(4) 0.48952(7)
O2 O 0.20230(8) 0.51123(5) 0.17363(8)
C1 C 0.28290(10) 0.47990(6) 0.56833(10)
O3 O 0.42758(8) 0.82641(4) 0.03336(8)
N2 N 0.34837(9) 0.57091(5) 0.29325(9)
H1 H 0.3905 0.5682 0.3618
C2 C 0.26274(10) 0.48767(6) 0.78696(10)
H2 H 0.2934 0.4763 0.8655
C3 C 0.17233(10) 0.51942(6) 0.55253(10)
H3 H 0.1407 0.5301 0.4740
C4 C 0.32687(10) 0.46344(6) 0.68668(10)
H4 H 0.3990 0.4363 0.6990
C5 C 0.27344(10) 0.51441(6) 0.26357(11)
C6 C 0.15398(10) 0.52846(6) 0.77287(10)
C7 C 0.36437(10) 0.63459(6) 0.22199(10)
C8 C 0.10978(10) 0.54268(6) 0.65365(11)
H5 H 0.0362 0.5685 0.6414
C9 C 0.28512(10) 0.44883(6) 0.34835(10)
H6 H 0.2022 0.4307 0.3651
C10 C 0.40597(10) 0.76124(6) 0.08953(10)
C11 C 0.60208(12) 0.17602(7) 0.39987(11)
H7 H 0.5910 0.1260 0.4050
C12 C 0.40716(10) 0.34760(6) 0.40718(10)
H8 H 0.3385 0.3203 0.4407
C13 C 0.50029(12) 0.22295(7) 0.40555(11)
H9 H 0.4214 0.2041 0.4153
C14 C 0.51717(10) 0.29797(6) 0.39665(10)
C15 C 0.36468(11) 0.69882(6) 0.02947(10)
H10 H 0.3503 0.6992 -0.0550
C16 C 0.36059(10) 0.38807(6) 0.29333(10)
C17 C 0.42602(12) 0.76034(7) 0.21614(11)
H11 H 0.4538 0.8020 0.2569
C18 C 0.63600(11) 0.32554(7) 0.38233(11)
H12 H 0.6477 0.3754 0.3757
C19 C 0.40475(11) 0.69763(7) 0.28147(11)
H13 H 0.4176 0.6976 0.3662
C20 C 0.41899(14) 0.82764(7) -0.09710(11)
H14 H 0.4757 0.7928 -0.1285
H15 H 0.3359 0.8156 -0.1251
H16 H 0.4396 0.8753 -0.1256
C21 C 0.08765(11) 0.55758(7) 0.88123(11)
H17 H 0.1047 0.6085 0.8904
H18 H 0.0000 0.5504 0.8682
H19 H 0.1161 0.5324 0.9540
C22 C 0.34469(11) 0.63543(6) 0.09562(11)
H20 H 0.3181 0.5935 0.0549
C23 C 0.71953(12) 0.20474(7) 0.38650(11)
H21 H 0.7874 0.1738 0.3832
C24 C 0.32351(12) 0.35093(8) 0.17631(11)
H22 H 0.3361 0.2988 0.1717
H23 H 0.2505 0.3688 0.1308
C25 C 0.43683(12) 0.39880(8) 0.18293(11)
H24 H 0.4318 0.4455 0.1418
H25 H 0.5174 0.3755 0.1827
C26 C 0.73672(12) 0.27905(7) 0.37799(11)
H26 H 0.8158 0.2978 0.3694

#END
