./MAQYEJ_from_xyz.cif_generated_by_CrystalShift
_symmetry_cell_setting triclinic
_symmetry_space_group_name_H-M 'P 1'
loop_
_symmetry_equiv_pos_site_id
_symmetry_equiv_pos_as_xyz
1 x,y,z
_cell_length_a 9.436800
_cell_length_b 9.980600
_cell_length_c 13.572000
_cell_angle_alpha 100.051000
_cell_angle_beta 91.247000
_cell_angle_gamma 98.309000
_cell_volume 1243.998946
loop_
_atom_site_label
_atom_site_type_symbol
_atom_site_fract_x
_atom_site_fract_y
_atom_site_fract_z
O1 O 0.402800 0.690700 0.678980
O2 O -0.335000 0.868400 0.762310
O3 O -0.346800 0.564800 0.682100
O4 O 0.415500 0.940500 0.852640
C5 C 0.300500 0.635400 0.736100
C6 C 0.301300 0.505800 0.760300
C7 C 0.194900 0.452600 0.816900
C8 C 0.086000 0.526100 0.847700
C9 C -0.048100 0.772500 0.961100
C10 C -0.153900 0.846300 0.997200
C11 C -0.249300 0.882400 0.932000
C12 C -0.241700 0.841000 0.829900
C13 C -0.234800 0.620500 0.628800
C14 C -0.231400 0.573800 0.526900
C15 C -0.118700 0.628000 0.475200
C16 C -0.013700 0.728900 0.524500
C17 C 0.116300 1.012000 0.648900
C18 C 0.229300 1.111300 0.687400
C19 C 0.327200 1.085500 0.755000
C20 C 0.312200 0.958100 0.783800
C21 C 0.193400 0.712600 0.768500
C22 C 0.083400 0.655500 0.823100
C23 C -0.034500 0.734100 0.858600
C24 C -0.132900 0.765700 0.791600
C25 C -0.128300 0.720200 0.681500
C26 C -0.016700 0.775800 0.627500
C27 C 0.100300 0.883800 0.676300
C28 C 0.200100 0.853900 0.744000
H29 H 0.376000 0.455000 0.743000
H30 H 0.194000 0.359000 0.833000
H31 H 0.005000 0.485000 0.885000
H32 H 0.018000 0.745000 1.004000
H33 H -0.156000 0.874000 1.066000
H34 H -0.327000 0.932000 0.958000
H35 H -0.303000 0.491000 0.492000
H36 H -0.114000 0.599000 0.407000
H37 H 0.068000 0.774000 0.484000
H38 H 0.042000 1.028000 0.597000
H39 H 0.248000 1.194000 0.668000
H40 H 0.401000 1.160000 0.781000
H41 H 0.482000 0.662000 0.680000
H42 H -0.405000 0.896000 0.791000
H43 H -0.377000 0.485000 0.655000
H44 H 0.394000 0.868000 0.892000
O45 O 0.597200 0.309300 0.321020
O46 O 1.335000 0.131600 0.237690
O47 O 1.346800 0.435200 0.317900
O48 O 0.584500 0.059500 0.147360
C49 C 0.699500 0.364600 0.263900
C50 C 0.698700 0.494200 0.239700
C51 C 0.805100 0.547400 0.183100
C52 C 0.914000 0.473900 0.152300
C53 C 1.048100 0.227500 0.038900
C54 C 1.153900 0.153700 0.002800
C55 C 1.249300 0.117600 0.068000
C56 C 1.241700 0.159000 0.170100
C57 C 1.234800 0.379500 0.371200
C58 C 1.231400 0.426200 0.473100
C59 C 1.118700 0.372000 0.524800
C60 C 1.013700 0.271100 0.475500
C61 C 0.883700 -0.012000 0.351100
C62 C 0.770700 -0.111300 0.312600
C63 C 0.672800 -0.085500 0.245000
C64 C 0.687800 0.041900 0.216200
C65 C 0.806600 0.287400 0.231500
C66 C 0.916600 0.344500 0.176900
C67 C 1.034500 0.265900 0.141400
C68 C 1.132900 0.234300 0.208400
C69 C 1.128300 0.279800 0.318500
C70 C 1.016700 0.224200 0.372500
C71 C 0.899700 0.116200 0.323700
C72 C 0.799900 0.146100 0.256000
H73 H 0.624000 0.545000 0.257000
H74 H 0.806000 0.641000 0.167000
H75 H 0.995000 0.515000 0.115000
H76 H 0.982000 0.255000 -0.004000
H77 H 1.156000 0.126000 -0.066000
H78 H 1.327000 0.068000 0.042000
H79 H 1.303000 0.509000 0.508000
H80 H 1.114000 0.401000 0.593000
H81 H 0.932000 0.226000 0.516000
H82 H 0.958000 -0.028000 0.403000
H83 H 0.752000 -0.194000 0.332000
H84 H 0.599000 -0.160000 0.219000
H85 H 0.518000 0.338000 0.320000
H86 H 1.405000 0.104000 0.209000
H87 H 1.377000 0.515000 0.345000
H88 H 0.606000 0.132000 0.108000
N89 N 0.285500 0.653400 0.120100
N90 N 0.382900 0.768000 -0.007100
C91 C 0.300300 0.756500 0.070500
C92 C 0.460300 0.666600 -0.033000
C93 C 0.456000 0.555000 0.016000
C94 C 0.361100 0.554700 0.090700
H95 H 0.254000 0.837000 0.102000
H96 H 0.529000 0.663000 -0.093000
H97 H 0.342000 0.474000 0.122000
N98 N 0.714500 0.346600 -0.120100
N99 N 0.617100 0.232000 0.007100
C100 C 0.699700 0.243500 -0.070500
C101 C 0.539700 0.333400 0.033000
C102 C 0.544000 0.445000 -0.016000
C103 C 0.638900 0.445300 -0.090700
H104 H 0.746000 0.163000 -0.102000
H105 H 0.471000 0.337000 0.093000
H106 H 0.658000 0.526000 -0.122000
N107 N 0.285500 0.653400 1.120100
N108 N 0.382900 0.768000 0.992900
C109 C 0.300300 0.756500 1.070500
C110 C 0.460300 0.666600 0.967000
C111 C 0.456000 0.555000 1.016000
C112 C 0.361100 0.554700 1.090700
H113 H 0.254000 0.837000 1.102000
H114 H 0.529000 0.663000 0.907000
H115 H 0.342000 0.474000 1.122000
N116 N 0.714500 0.346600 0.879900
N117 N 0.617100 0.232000 1.007100
C118 C 0.699700 0.243500 0.929500
C119 C 0.539700 0.333400 1.033000
C120 C 0.544000 0.445000 0.984000
C121 C 0.638900 0.445300 0.909300
H122 H 0.746000 0.163000 0.898000
H123 H 0.471000 0.337000 1.093000
H124 H 0.658000 0.526000 0.878000
N125 N 0.621600 0.288200 0.610800
N126 N 0.763000 0.122400 0.640300
C127 C 0.730500 0.248300 0.651800
C128 C 0.532100 0.190600 0.550500
C129 C 0.550100 0.054100 0.532700
C130 C 0.670600 0.026700 0.581000
H131 H 0.786000 0.319000 0.692000
H132 H 0.447000 0.213000 0.514000
H133 H 0.685000 -0.061000 0.577000
N134 N 0.378400 -0.288200 0.389200
N135 N 0.237000 -0.122400 0.359700
C136 C 0.269500 -0.248300 0.348200
C137 C 0.467900 -0.190600 0.449500
C138 C 0.449900 -0.054100 0.467300
C139 C 0.329400 -0.026700 0.419000
H140 H 0.214000 -0.319000 0.308000
H141 H 0.553000 -0.213000 0.486000
H142 H 0.315000 0.061000 0.423000
N143 N 0.621600 1.288200 0.610800
N144 N 0.763000 1.122400 0.640300
C145 C 0.730500 1.248300 0.651800
C146 C 0.532100 1.190600 0.550500
C147 C 0.550100 1.054100 0.532700
C148 C 0.670600 1.026700 0.581000
H149 H 0.786000 1.319000 0.692000
H150 H 0.447000 1.213000 0.514000
H151 H 0.685000 0.939000 0.577000
N152 N 0.378400 0.711800 0.389200
N153 N 0.237000 0.877600 0.359700
C154 C 0.269500 0.751700 0.348200
C155 C 0.467900 0.809400 0.449500
C156 C 0.449900 0.945900 0.467300
C157 C 0.329400 0.973300 0.419000
H158 H 0.214000 0.681000 0.308000
H159 H 0.553000 0.787000 0.486000
H160 H 0.315000 1.061000 0.423000

#END
