./MARBEM_from_xyz.cif_generated_by_CrystalShift
_symmetry_cell_setting triclinic
_symmetry_space_group_name_H-M 'P 1'
loop_
_symmetry_equiv_pos_site_id
_symmetry_equiv_pos_as_xyz
1 x,y,z
_cell_length_a 15.200000
_cell_length_b 7.802000
_cell_length_c 11.432000
_cell_angle_alpha 90.000000
_cell_angle_beta 91.100000
_cell_angle_gamma 90.000000
_cell_volume 1355.475583
loop_
_atom_site_label
_atom_site_type_symbol
_atom_site_fract_x
_atom_site_fract_y
_atom_site_fract_z
N1 N 0.531100 0.702100 1.106300
C2 C 0.584400 0.655100 1.020900
H3 H 0.578900 0.541900 0.996400
N4 N 0.644700 0.748300 0.965300
C5 C 0.645200 0.911500 1.005900
C6 C 0.592800 0.978900 1.092400
C7 C 0.534100 0.864700 1.145500
N8 N 0.614500 1.148500 1.113500
C9 C 0.678400 1.178600 1.039800
H10 H 0.706600 1.284100 1.034400
N11 N 0.699300 1.041000 0.972300
N12 N 0.481800 0.907500 1.233200
H13 H 0.452000 0.829000 1.265000
H14 H 0.492000 1.005000 1.266000
C15 C 0.772100 1.025400 0.894200
C16 C 0.856200 0.949500 0.945500
H17 H 0.839600 0.851300 0.993800
C18 C 0.907700 0.879200 0.840300
H19 H 0.938800 0.774000 0.863200
C20 C 0.836200 0.837500 0.746100
H21 H 0.859300 0.863200 0.668500
C22 C 0.760500 0.959900 0.771500
H23 H 0.704000 0.938000 0.751000
C24 C 0.779800 1.145600 0.791900
H25 H 0.839000 1.189000 0.777000
H26 H 0.730000 1.233000 0.788000
O27 O 0.903600 1.067000 1.019400
H28 H 0.919000 1.148000 0.970000
O29 O 0.968200 1.000600 0.799200
H30 H 1.008000 1.008000 0.836000
C31 C 0.807300 0.650700 0.749600
H32 H 0.755200 0.636900 0.700100
H33 H 0.853500 0.579900 0.717600
O34 O 0.788400 0.591700 0.864000
H35 H 0.736000 0.640000 0.885000
N36 N 0.531100 0.797900 0.606300
C37 C 0.584400 0.844900 0.520900
H38 H 0.578900 0.958100 0.496400
N39 N 0.644700 0.751700 0.465300
C40 C 0.645200 0.588500 0.505900
C41 C 0.592800 0.521100 0.592400
C42 C 0.534100 0.635300 0.645500
N43 N 0.614500 0.351500 0.613500
C44 C 0.678400 0.321400 0.539800
H45 H 0.706600 0.215900 0.534400
N46 N 0.699300 0.459000 0.472300
N47 N 0.481800 0.592500 0.733200
H48 H 0.452000 0.671000 0.765000
H49 H 0.492000 0.495000 0.766000
C50 C 0.772100 0.474600 0.394200
C51 C 0.856200 0.550500 0.445500
H52 H 0.839600 0.648700 0.493800
C53 C 0.907700 0.620800 0.340300
H54 H 0.938800 0.726000 0.363200
C55 C 0.836200 0.662500 0.246100
H56 H 0.859300 0.636800 0.168500
C57 C 0.760500 0.540100 0.271500
H58 H 0.704000 0.562000 0.251000
C59 C 0.779800 0.354400 0.291900
H60 H 0.839000 0.311000 0.277000
H61 H 0.730000 0.267000 0.288000
O62 O 0.903600 0.433000 0.519400
H63 H 0.919000 0.352000 0.470000
O64 O 0.968200 0.499400 0.299200
H65 H 1.008000 0.492000 0.336000
C66 C 0.807300 0.849300 0.249600
H67 H 0.755200 0.863100 0.200100
H68 H 0.853500 0.920100 0.217600
O69 O 0.788400 0.908300 0.364000
H70 H 0.736000 0.860000 0.385000
N71 N 0.468900 0.297900 -0.106300
C72 C 0.415600 0.344900 -0.020900
H73 H 0.421100 0.458100 0.003600
N74 N 0.355300 0.251700 0.034700
C75 C 0.354800 0.088500 -0.005900
C76 C 0.407200 0.021100 -0.092400
C77 C 0.465900 0.135300 -0.145500
N78 N 0.385500 -0.148500 -0.113500
C79 C 0.321600 -0.178600 -0.039800
H80 H 0.293400 -0.284100 -0.034400
N81 N 0.300700 -0.041000 0.027700
N82 N 0.518200 0.092500 -0.233200
H83 H 0.548000 0.171000 -0.265000
H84 H 0.508000 -0.005000 -0.266000
C85 C 0.227900 -0.025400 0.105800
C86 C 0.143800 0.050500 0.054500
H87 H 0.160400 0.148700 0.006200
C88 C 0.092300 0.120800 0.159700
H89 H 0.061200 0.226000 0.136800
C90 C 0.163800 0.162500 0.253900
H91 H 0.140700 0.136800 0.331500
C92 C 0.239500 0.040100 0.228500
H93 H 0.296000 0.062000 0.249000
C94 C 0.220200 -0.145600 0.208100
H95 H 0.161000 -0.189000 0.223000
H96 H 0.270000 -0.233000 0.212000
O97 O 0.096400 -0.067000 -0.019400
H98 H 0.081000 -0.148000 0.030000
O99 O 0.031800 -0.000600 0.200800
H100 H -0.008000 -0.008000 0.164000
C101 C 0.192700 0.349300 0.250400
H102 H 0.244800 0.363100 0.299900
H103 H 0.146500 0.420100 0.282400
O104 O 0.211600 0.408300 0.136000
H105 H 0.264000 0.360000 0.115000
N106 N 0.468900 0.202100 0.393700
C107 C 0.415600 0.155100 0.479100
H108 H 0.421100 0.041900 0.503600
N109 N 0.355300 0.248300 0.534700
C110 C 0.354800 0.411500 0.494100
C111 C 0.407200 0.478900 0.407600
C112 C 0.465900 0.364700 0.354500
N113 N 0.385500 0.648500 0.386500
C114 C 0.321600 0.678600 0.460200
H115 H 0.293400 0.784100 0.465600
N116 N 0.300700 0.541000 0.527700
N117 N 0.518200 0.407500 0.266800
H118 H 0.548000 0.329000 0.235000
H119 H 0.508000 0.505000 0.234000
C120 C 0.227900 0.525400 0.605800
C121 C 0.143800 0.449500 0.554500
H122 H 0.160400 0.351300 0.506200
C123 C 0.092300 0.379200 0.659700
H124 H 0.061200 0.274000 0.636800
C125 C 0.163800 0.337500 0.753900
H126 H 0.140700 0.363200 0.831500
C127 C 0.239500 0.459900 0.728500
H128 H 0.296000 0.438000 0.749000
C129 C 0.220200 0.645600 0.708100
H130 H 0.161000 0.689000 0.723000
H131 H 0.270000 0.733000 0.712000
O132 O 0.096400 0.567000 0.480600
H133 H 0.081000 0.648000 0.530000
O134 O 0.031800 0.500600 0.700800
H135 H -0.008000 0.508000 0.664000
C136 C 0.192700 0.150700 0.750400
H137 H 0.244800 0.136900 0.799900
H138 H 0.146500 0.079900 0.782400
O139 O 0.211600 0.091700 0.636000
H140 H 0.264000 0.140000 0.615000
O141 O 0.940600 0.403700 0.930500
H142 H 0.904000 0.398000 1.001000
H143 H 0.994000 0.353000 0.940000
O144 O 0.940600 0.096300 0.430500
H145 H 0.904000 0.102000 0.501000
H146 H 0.994000 0.147000 0.440000
O147 O 0.059400 0.596300 0.069500
H148 H 0.096000 0.602000 -0.001000
H149 H 0.006000 0.647000 0.060000
O150 O 0.059400 0.903700 0.569500
H151 H 0.096000 0.898000 0.499000
H152 H 0.006000 0.853000 0.560000

#END
