
#######################################################################
#
#                 Cambridge Crystallographic Data Centre
#                                CCDC 
#
#######################################################################
#
# If this CIF has been generated from an entry in the Cambridge 
# Structural Database, then it will include bibliographic, chemical, 
# crystal, experimental, refinement or atomic coordinate data resulting 
# from the CCDC's data processing and validation procedures.
#
#######################################################################

data_KAHHUY
_symmetry_cell_setting           monoclinic
_symmetry_space_group_name_H-M   'P 21/c'
_symmetry_Int_Tables_number      14
_space_group_name_Hall           '-P 2ybc'
loop_
_symmetry_equiv_pos_site_id
_symmetry_equiv_pos_as_xyz
1 x,y,z
2 -x,1/2+y,1/2-z
3 -x,-y,-z
4 x,1/2-y,1/2+z
_cell_length_a                   7.2132(3)
_cell_length_b                   12.4258(5)
_cell_length_c                   7.1598(3)
_cell_angle_alpha                90
_cell_angle_beta                 106.814(2)
_cell_angle_gamma                90
_cell_volume                     614.297
loop_
_atom_site_label
_atom_site_type_symbol
_atom_site_fract_x
_atom_site_fract_y
_atom_site_fract_z
C1 C 0.26786(14) 0.05075(8) 0.27693(15)
C2 C 0.33139(14) 0.15833(7) 0.29192(15)
C3 C 0.51985(14) 0.15265(7) 0.27067(15)
N1 N 0.54906(13) 0.04695(7) 0.24550(15)
H1 H 0.649(3) 0.0176(15) 0.225(2)
N2 N 0.39577(13) -0.01696(7) 0.24913(14)
N3 N 0.08141(12) 0.00775(7) 0.27968(14)
O1 O -0.06409(11) 0.05460(7) 0.18193(14)
O2 O 0.08210(14) -0.07231(8) 0.37804(16)
N4 N 0.24415(13) 0.25105(6) 0.33772(13)
O3 O 0.32680(12) 0.33774(6) 0.33122(15)
O4 O 0.09511(12) 0.24323(7) 0.38786(14)
N5 N 0.64866(15) 0.22958(8) 0.27314(18)
H2 H 0.621(2) 0.2968(15) 0.283(2)
H3 H 0.765(2) 0.2147(14) 0.274(2)
C1 C 0.73214(14) 0.55075(8) 0.22307(15)
C2 C 0.66861(14) 0.65833(7) 0.20808(15)
C3 C 0.48015(14) 0.65265(7) 0.22933(15)
N1 N 0.45094(13) 0.54695(7) 0.25450(15)
H1 H 0.351(3) 0.5176(15) 0.275(2)
N2 N 0.60423(13) 0.48304(7) 0.25087(14)
N3 N 0.91859(12) 0.50775(7) 0.22032(14)
O1 O 1.06409(11) 0.55460(7) 0.31807(14)
O2 O 0.91790(14) 0.42769(8) 0.12196(16)
N4 N 0.75585(13) 0.75105(6) 0.16228(13)
O3 O 0.67320(12) 0.83774(6) 0.16878(15)
O4 O 0.90489(12) 0.74323(7) 0.11214(14)
N5 N 0.35134(15) 0.72958(8) 0.22686(18)
H2 H 0.379(2) 0.7968(15) 0.217(2)
H3 H 0.235(2) 0.7147(14) 0.226(2)
C1 C 0.73214(14) 0.94925(8) 0.72307(15)
C2 C 0.66861(14) 0.84167(7) 0.70808(15)
C3 C 0.48015(14) 0.84735(7) 0.72933(15)
N1 N 0.45094(13) 0.95305(7) 0.75450(15)
H1 H 0.351(3) 0.9824(15) 0.775(2)
N2 N 0.60423(13) 1.01696(7) 0.75087(14)
N3 N 0.91859(12) 0.99225(7) 0.72032(14)
O1 O 1.06409(11) 0.94540(7) 0.81807(14)
O2 O 0.91790(14) 1.07231(8) 0.62196(16)
N4 N 0.75585(13) 0.74895(6) 0.66228(13)
O3 O 0.67320(12) 0.66226(6) 0.66878(15)
O4 O 0.90489(12) 0.75677(7) 0.61214(14)
N5 N 0.35134(15) 0.77042(8) 0.72686(18)
H2 H 0.379(2) 0.7032(15) 0.717(2)
H3 H 0.235(2) 0.7853(14) 0.726(2)
C1 C 0.26786(14) 0.44925(8) 0.77693(15)
C2 C 0.33139(14) 0.34167(7) 0.79192(15)
C3 C 0.51985(14) 0.34735(7) 0.77067(15)
N1 N 0.54906(13) 0.45305(7) 0.74550(15)
H1 H 0.649(3) 0.4824(15) 0.725(2)
N2 N 0.39577(13) 0.51696(7) 0.74913(14)
N3 N 0.08141(12) 0.49225(7) 0.77968(14)
O1 O -0.06409(11) 0.44540(7) 0.68193(14)
O2 O 0.08210(14) 0.57231(8) 0.87804(16)
N4 N 0.24415(13) 0.24895(6) 0.83772(13)
O3 O 0.32680(12) 0.16226(6) 0.83122(15)
O4 O 0.09511(12) 0.25677(7) 0.88786(14)
N5 N 0.64866(15) 0.27042(8) 0.77314(18)
H2 H 0.621(2) 0.2032(15) 0.783(2)
H3 H 0.765(2) 0.2853(14) 0.774(2)

#END
