./KAHPAL_from_POSCAR.cif_generated_by_CrystalShift
_symmetry_cell_setting triclinic
_symmetry_space_group_name_H-M 'P 1'
loop_
_symmetry_equiv_pos_site_id
_symmetry_equiv_pos_as_xyz
1 x,y,z
_cell_length_a 10.603000
_cell_length_b 9.778000
_cell_length_c 25.203000
_cell_angle_alpha 90.000000
_cell_angle_beta 90.000000
_cell_angle_gamma 90.000000
_cell_volume 2612.949605
loop_
_atom_site_label
_atom_site_type_symbol
_atom_site_fract_x
_atom_site_fract_y
_atom_site_fract_z
H1 H 0.741100 0.943900 0.256900
H2 H 0.980600 0.748500 0.351600
H3 H 1.025800 0.597700 0.285000
H4 H 0.928500 0.617300 0.203400
H5 H 0.722500 0.528200 0.067100
H6 H 0.684700 0.443600 -0.023900
H7 H 0.616200 0.476900 -0.109300
H8 H 0.537000 0.685900 -0.135000
H9 H 0.771000 0.614000 0.146800
H10 H 0.614000 0.837000 0.050200
H11 H 0.509000 0.958000 -0.054600
H12 H 0.758900 0.056100 0.756900
H13 H 0.660500 0.078100 0.837700
H14 H 0.519400 0.251500 0.851600
H15 H 0.474200 0.402300 0.785000
H16 H 0.571500 0.382700 0.703400
H17 H 0.777500 0.471800 0.567100
H18 H 0.815300 0.556400 0.476100
H19 H 0.883800 0.523100 0.390700
H20 H 0.509000 0.542000 0.445400
H21 H 0.614000 0.663000 0.550200
H22 H 0.771000 0.886000 0.646800
H23 H 0.537000 0.814100 0.365000
H24 H 0.616200 1.023100 0.390700
H25 H 0.684700 1.056400 0.476100
H26 H 0.722500 0.971800 0.567100
H27 H 0.928500 0.882700 0.703400
H28 H 1.025800 0.902300 0.785000
H29 H 0.980600 0.751500 0.851600
H30 H 0.839500 0.578100 0.837700
H31 H 0.741100 0.556100 0.756900
H32 H 0.963000 0.314100 0.365000
H33 H 0.729000 0.386000 0.646800
H34 H 0.886000 0.163000 0.550200
H35 H 0.991000 0.042000 0.445400
H36 H 0.241100 0.556100 0.743100
H37 H 0.339500 0.578100 0.662300
H38 H 0.480600 0.751500 0.648400
H39 H 0.525800 0.902300 0.715000
H40 H 0.428500 0.882700 0.796600
H41 H 0.222500 0.971800 0.932900
H42 H 0.184700 1.056400 1.023900
H43 H 0.116200 1.023100 1.109300
H44 H 0.037000 0.814100 1.135000
H45 H 0.271000 0.886000 0.853200
H46 H 0.114000 0.663000 0.949800
H47 H 0.009000 0.542000 1.054600
H48 H 0.258900 0.443900 0.243100
H49 H 0.160500 0.421900 0.162300
H50 H 0.019400 0.248500 0.148400
H51 H 0.991000 0.458000 -0.054600
H52 H 0.886000 0.337000 0.050200
H53 H 0.729000 0.114000 0.146800
H54 H 0.963000 0.185900 -0.135000
H55 H 0.883800 -0.023100 -0.109300
H56 H 0.815300 -0.056400 -0.023900
H57 H 0.777500 0.028200 0.067100
H58 H 0.571500 0.117300 0.203400
H59 H 0.474200 0.097700 0.285000
H60 H 0.519400 0.248500 0.351600
H61 H 0.660500 0.421900 0.337700
H62 H 0.758900 0.443900 0.256900
H63 H -0.025800 0.097700 0.215000
H64 H 0.071500 0.117300 0.296600
H65 H 0.277500 0.028200 0.432900
H66 H 0.315300 -0.056400 0.523900
H67 H 0.383800 -0.023100 0.609300
H68 H 0.463000 0.185900 0.635000
H69 H 0.229000 0.114000 0.353200
H70 H 0.386000 0.337000 0.449800
H71 H 0.491000 0.458000 0.554600
H72 H 0.258900 0.056100 0.743100
H73 H 0.160500 0.078100 0.662300
H74 H 0.019400 0.251500 0.648400
H75 H -0.025800 0.402300 0.715000
H76 H 0.071500 0.382700 0.796600
H77 H 0.277500 0.471800 0.932900
H78 H 0.315300 0.556400 1.023900
H79 H 0.383800 0.523100 1.109300
H80 H 0.463000 0.314100 1.135000
H81 H 0.229000 0.386000 0.853200
H82 H 0.009000 0.958000 0.554600
H83 H 0.114000 0.837000 0.449800
H84 H 0.271000 0.614000 0.353200
H85 H 0.037000 0.685900 0.635000
H86 H 0.116200 0.476900 0.609300
H87 H 0.184700 0.443600 0.523900
H88 H 0.222500 0.528200 0.432900
H89 H 0.428500 0.617300 0.296600
H90 H 0.525800 0.597700 0.215000
H91 H 0.480600 0.748500 0.148400
H92 H 0.339500 0.921900 0.162300
H93 H 0.241100 0.943900 0.243100
H94 H 0.386000 0.163000 0.949800
H95 H 0.491000 0.042000 1.054600
H96 H 0.839500 0.921900 0.337700
C97 C 0.592800 0.742200 0.487730
C98 C 0.553400 0.722500 0.435700
C99 C 0.407200 0.242200 1.012270
C100 C 0.446600 0.222500 1.064300
C101 C 0.436900 0.327300 1.100100
C102 C 0.388800 0.452100 1.084870
C103 C 0.348100 0.472000 1.033850
C104 C 0.355700 0.366700 0.996710
C105 C 0.306400 0.386200 0.943550
C106 C 0.240100 0.195000 0.830170
C107 C 0.176300 0.217800 0.778270
C108 C 0.090300 0.321000 0.769660
C109 C 0.032100 0.332500 0.720850
C110 C 0.058800 0.242600 0.681210
C111 C 0.142800 0.139700 0.689370
C112 C 0.201600 0.126800 0.737680
C113 C 0.563100 0.827300 0.399900
C114 C 0.611200 0.952100 0.415130
C115 C 0.298400 0.873200 0.237680
C116 C 0.357200 0.860300 0.189370
C117 C 0.441200 0.757400 0.181210
C118 C 0.467900 0.667500 0.220850
C119 C 0.409700 0.679000 0.269660
C120 C 0.323700 0.782200 0.278270
C121 C 0.259900 0.805000 0.330170
C122 C 0.193600 0.613800 0.443550
C123 C 0.144300 0.633300 0.496710
C124 C 0.151900 0.528000 0.533850
C125 C 0.651900 0.972000 0.466150
C126 C 0.644300 0.866700 0.503290
C127 C 0.798400 0.873200 0.262320
C128 C 0.857200 0.860300 0.310630
C129 C 0.941200 0.757400 0.318790
C130 C 0.407200 0.257800 0.512270
C131 C 0.446600 0.277500 0.564300
C132 C 0.436900 0.172700 0.600100
C133 C 0.388800 0.047900 0.584870
C134 C 0.348100 0.028000 0.533850
C135 C 0.355700 0.133300 0.496710
C136 C 0.306400 0.113800 0.443550
C137 C 0.240100 0.305000 0.330170
C138 C 0.176300 0.282200 0.278270
C139 C 0.090300 0.179000 0.269660
C140 C 0.032100 0.167500 0.220850
C141 C 0.058800 0.257400 0.181210
C142 C 0.142800 0.360300 0.189370
C143 C 0.201600 0.373200 0.237680
C144 C 0.111200 0.547900 0.584870
C145 C 0.063100 0.672700 0.600100
C146 C 0.053400 0.777500 0.564300
C147 C 0.092800 0.757800 0.512270
C148 C 0.967900 0.667500 0.279150
C149 C 0.909700 0.679000 0.230340
C150 C 0.823700 0.782200 0.221730
C151 C 0.759900 0.805000 0.169830
C152 C 0.693600 0.613800 0.056450
C153 C 0.701600 0.373200 0.262320
C154 C 0.642800 0.360300 0.310630
C155 C 0.558800 0.257400 0.318790
C156 C 0.644300 0.633300 0.003290
C157 C 0.651900 0.528000 -0.033850
C158 C 0.611200 0.547900 -0.084870
C159 C 0.563100 0.672700 -0.100100
C160 C 0.553400 0.777500 -0.064300
C161 C 0.092800 0.742200 1.012270
C162 C 0.053400 0.722500 1.064300
C163 C 0.063100 0.827300 1.100100
C164 C 0.111200 0.952100 1.084870
C165 C 0.151900 0.972000 1.033850
C166 C 0.144300 0.866700 0.996710
C167 C 0.193600 0.886200 0.943550
C168 C 0.259900 0.695000 0.830170
C169 C 0.323700 0.717800 0.778270
C170 C 0.409700 0.821000 0.769660
C171 C 0.467900 0.832500 0.720850
C172 C 0.441200 0.742600 0.681210
C173 C 0.357200 0.639700 0.689370
C174 C 0.298400 0.626800 0.737680
C175 C 0.532100 0.167500 0.279150
C176 C 0.590300 0.179000 0.230340
C177 C 0.676300 0.282200 0.221730
C178 C 0.740100 0.305000 0.169830
C179 C 0.806400 0.113800 0.056450
C180 C 0.855700 0.133300 0.003290
C181 C 0.848100 0.028000 -0.033850
C182 C 0.888800 0.047900 -0.084870
C183 C 0.936900 0.172700 -0.100100
C184 C 0.946600 0.277500 -0.064300
C185 C 0.907200 0.257800 -0.012270
C186 C 0.592800 0.757800 -0.012270
C187 C 0.693600 0.886200 0.556450
C188 C 0.759900 0.695000 0.669830
C189 C 0.823700 0.717800 0.721730
C190 C 0.909700 0.821000 0.730340
C191 C 0.967900 0.832500 0.779150
C192 C 0.907200 0.242200 0.487730
C193 C 0.946600 0.222500 0.435700
C194 C 0.936900 0.327300 0.399900
C195 C 0.888800 0.452100 0.415130
C196 C 0.848100 0.472000 0.466150
C197 C 0.855700 0.366700 0.503290
C198 C 0.806400 0.386200 0.556450
C199 C 0.740100 0.195000 0.669830
C200 C 0.676300 0.217800 0.721730
C201 C 0.590300 0.321000 0.730340
C202 C 0.532100 0.332500 0.779150
C203 C 0.558800 0.242600 0.818790
C204 C 0.642800 0.139700 0.810630
C205 C 0.701600 0.126800 0.762320
C206 C 0.941200 0.742600 0.818790
C207 C 0.857200 0.639700 0.810630
C208 C 0.798400 0.626800 0.762320
N209 N 0.697100 0.785500 0.588500
N210 N 0.302900 0.285500 0.911500
N211 N 0.251000 0.304400 0.862100
N212 N 0.802900 0.214500 0.088500
N213 N 0.751000 0.304400 0.637900
N214 N 0.802900 0.285500 0.588500
N215 N 0.302900 0.214500 0.411500
N216 N 0.251000 0.195600 0.362100
N217 N 0.249000 0.695600 0.362100
N218 N 0.197100 0.714500 0.411500
N219 N 0.749000 0.804400 0.637900
N220 N 0.197100 0.785500 0.911500
N221 N 0.697100 0.714500 0.088500
N222 N 0.749000 0.695600 0.137900
N223 N 0.751000 0.195600 0.137900
N224 N 0.249000 0.804400 0.862100
O225 O 0.718700 0.917400 0.156760
O226 O 0.580100 0.865800 0.021520
O227 O 0.080100 0.634200 0.978480
O228 O 0.006100 0.599600 1.080350
O229 O 0.006100 0.900400 0.580350
O230 O 0.080100 0.865800 0.478480
O231 O 0.218700 0.917400 0.343240
O232 O 0.506100 0.900400 -0.080350
O233 O 0.993900 0.099600 0.419650
O234 O 0.919900 0.134200 0.521520
O235 O 0.781300 0.082600 0.656760
O236 O 0.281300 0.417400 0.343240
O237 O 0.419900 0.365800 0.478480
O238 O 0.493900 0.400400 0.580350
O239 O 0.493900 0.099600 1.080350
O240 O 0.419900 0.134200 0.978480
O241 O 0.781300 0.417400 0.156760
O242 O 0.919900 0.365800 0.021520
O243 O 0.218700 0.582600 0.843240
O244 O 0.993900 0.400400 -0.080350
O245 O 0.718700 0.582600 0.656760
O246 O 0.580100 0.634200 0.521520
O247 O 0.281300 0.082600 0.843240
O248 O 0.506100 0.599600 0.419650

#END
