./KAHQUH_from_POSCAR.cif_generated_by_CrystalShift
_symmetry_cell_setting triclinic
_symmetry_space_group_name_H-M 'P 1'
loop_
_symmetry_equiv_pos_site_id
_symmetry_equiv_pos_as_xyz
1 x,y,z
_cell_length_a 7.640400
_cell_length_b 8.873400
_cell_length_c 13.036800
_cell_angle_alpha 100.627000
_cell_angle_beta 91.113000
_cell_angle_gamma 109.804000
_cell_volume 814.098936
loop_
_atom_site_label
_atom_site_type_symbol
_atom_site_fract_x
_atom_site_fract_y
_atom_site_fract_z
H1 H 1.296700 0.259800 0.364600
H2 H 0.497400 1.239500 0.219100
H3 H 1.314100 0.353800 0.480700
H4 H 0.524000 0.179100 0.544000
H5 H 0.720900 0.218700 0.413400
H6 H 1.140600 0.249800 0.610400
H7 H 0.940800 0.209700 0.741000
H8 H 0.896800 0.244600 1.223600
H9 H 0.532300 0.933100 0.287500
H10 H 1.086100 0.240600 1.180200
H11 H 0.311000 0.510300 0.283800
H12 H 0.792300 0.367100 0.913800
H13 H 0.743700 0.516100 0.130000
H14 H 0.648100 -0.175300 0.948600
H15 H 0.723800 0.788900 0.153300
H16 H 0.276200 0.211100 0.846700
H17 H 0.256300 0.483900 0.870000
H18 H 0.689000 0.489700 0.716200
H19 H 0.351900 1.175300 0.051400
H20 H 0.467700 0.066900 0.712500
H21 H 0.502600 -0.239500 0.780900
H22 H -0.296700 0.740200 0.635400
H23 H 0.207700 0.632900 0.086200
H24 H -0.238200 0.838000 0.545600
H25 H -0.086100 0.759400 -0.180200
H26 H 0.103200 0.755400 -0.223600
H27 H -0.314100 0.646200 0.519300
H28 H 0.476000 0.820900 0.456000
H29 H 0.059200 0.790300 0.259000
H30 H 0.279100 0.781300 0.586600
H31 H -0.140600 0.750200 0.389600
H32 H 1.238200 0.162000 0.454400
C33 C 0.233400 0.782700 0.520240
C34 C -0.015600 0.764300 0.403420
C35 C 0.350900 0.806000 0.441600
C36 C 0.105200 0.788000 0.325080
C37 C -0.241400 0.741500 0.570000
C38 C 0.289100 0.808300 0.341840
C39 C 0.044000 0.779000 -0.160430
C40 C 0.236000 0.741300 0.080360
C41 C 1.241400 0.258500 0.430000
C42 C 0.169700 0.779800 -0.005200
C43 C 0.649100 0.194000 0.558400
C44 C 0.766600 0.217300 0.479760
C45 C 0.950100 0.238500 0.499060
C46 C 1.015600 0.235700 0.596580
C47 C 0.894800 0.212000 0.674920
C48 C 0.576200 0.163780 0.742450
C49 C 0.214100 0.939400 -0.015390
C50 C 0.582900 0.454600 0.751600
C51 C 0.322800 1.067800 0.059370
C52 C 0.346800 0.451100 0.835560
C53 C 0.388400 1.030010 0.148620
C54 C 0.357000 0.299900 0.823080
C55 C 0.347900 0.869560 0.159220
C56 C 0.652100 0.130440 0.840780
C57 C 0.611600 -0.030010 0.851380
C58 C 0.677200 -0.067800 0.940630
C59 C 0.643000 0.700100 0.176920
C60 C 0.785900 0.060600 1.015390
C61 C 0.830300 0.220200 1.005200
C62 C 0.764000 0.258700 0.919640
C63 C 0.653200 0.548900 0.164440
C64 C 0.956000 0.221000 1.160430
C65 C 0.417100 0.545400 0.248400
C66 C 0.423800 0.836220 0.257550
C67 C 0.710900 0.191700 0.658160
C68 C 0.049900 0.761500 0.500940
N69 N 0.511300 0.451880 0.209890
N70 N 0.508100 0.302840 0.769300
N71 N 0.491900 0.697160 0.230700
N72 N 0.488700 0.548120 0.790110
O73 O 1.057400 0.258400 0.415860
O74 O 0.866050 0.055290 1.109500
O75 O 0.056460 0.676050 -0.091990
O76 O 0.502670 -0.150490 0.771860
O77 O 0.133950 0.944710 -0.109500
O78 O -0.057400 0.741600 0.584140
O79 O 0.943540 0.323950 1.091990
O80 O 0.497330 1.150490 0.228140

#END
