./LAFSOC_from_xyz.cif_generated_by_CrystalShift
_symmetry_cell_setting triclinic
_symmetry_space_group_name_H-M 'P 1'
loop_
_symmetry_equiv_pos_site_id
_symmetry_equiv_pos_as_xyz
1 x,y,z
_cell_length_a 6.263000
_cell_length_b 9.219100
_cell_length_c 28.440000
_cell_angle_alpha 90.000000
_cell_angle_beta 91.412000
_cell_angle_gamma 90.000000
_cell_volume 1641.604875
loop_
_atom_site_label
_atom_site_type_symbol
_atom_site_fract_x
_atom_site_fract_y
_atom_site_fract_z
C1 C 0.286300 0.960200 0.881250
C2 C 0.166700 1.068600 0.857090
C3 C 0.004900 1.024500 0.820050
C4 C 0.045500 0.926400 0.784230
H5 H 0.178700 0.877300 0.783600
C6 C -0.109000 0.900400 0.749390
H7 H -0.081700 0.832600 0.725100
C8 C -0.301700 0.972600 0.749930
H9 H -0.406600 0.954400 0.726000
C10 C -0.343100 1.070700 0.784980
H11 H -0.475800 1.120500 0.785200
C12 C -0.190800 1.096400 0.819870
H13 H -0.219800 1.164000 0.844100
C14 C 0.413000 0.666700 0.868580
C15 C 0.387300 0.519800 0.877030
H16 H 0.260600 0.484500 0.890700
C17 C 0.548300 0.425900 0.865260
H18 H 0.535000 0.325200 0.871700
C19 C 0.729800 0.478100 0.844050
H20 H 0.842400 0.413500 0.836800
C21 C 0.747300 0.622900 0.833520
H22 H 0.868800 0.656900 0.817500
C23 C 0.589500 0.719800 0.846040
H24 H 0.602400 0.820300 0.839300
C25 C 0.157600 0.741600 0.943510
C26 C -0.043200 0.772600 0.959910
H27 H -0.151700 0.809000 0.939200
C28 C -0.083900 0.749800 1.006910
H29 H -0.220600 0.772100 1.018700
C30 C 0.072500 0.695100 1.036670
H31 H 0.043800 0.679400 1.068900
C32 C 0.271400 0.663100 1.019570
H33 H 0.378700 0.624300 1.040100
C34 C 0.316000 0.686800 0.973010
H35 H 0.453600 0.665800 0.961400
Br36 Br 0.498470 1.020660 0.925935
O37 O 0.192300 1.199720 0.864390
S38 S 0.199120 0.787160 0.883260
C39 C 0.713700 0.460200 0.618750
C40 C 0.833300 0.568600 0.642910
C41 C 0.995100 0.524500 0.679950
C42 C 0.954500 0.426400 0.715770
H43 H 0.821300 0.377300 0.716400
C44 C 1.109000 0.400400 0.750610
H45 H 1.081700 0.332600 0.774900
C46 C 1.301700 0.472600 0.750070
H47 H 1.406600 0.454400 0.774000
C48 C 1.343100 0.570700 0.715020
H49 H 1.475800 0.620500 0.714800
C50 C 1.190800 0.596400 0.680130
H51 H 1.219800 0.664000 0.655900
C52 C 0.587000 0.166700 0.631420
C53 C 0.612700 0.019800 0.622970
H54 H 0.739400 -0.015500 0.609300
C55 C 0.451700 -0.074100 0.634740
H56 H 0.465000 -0.174800 0.628300
C57 C 0.270200 -0.021900 0.655950
H58 H 0.157600 -0.086500 0.663200
C59 C 0.252700 0.122900 0.666480
H60 H 0.131200 0.156900 0.682500
C61 C 0.410500 0.219800 0.653960
H62 H 0.397600 0.320300 0.660700
C63 C 0.842400 0.241600 0.556490
C64 C 1.043200 0.272600 0.540090
H65 H 1.151700 0.309000 0.560800
C66 C 1.083900 0.249800 0.493090
H67 H 1.220600 0.272100 0.481300
C68 C 0.927500 0.195100 0.463330
H69 H 0.956200 0.179400 0.431100
C70 C 0.728600 0.163100 0.480430
H71 H 0.621300 0.124300 0.459900
C72 C 0.684000 0.186800 0.526990
H73 H 0.546400 0.165800 0.538600
Br74 Br 0.501530 0.520660 0.574065
O75 O 0.807700 0.699720 0.635610
S76 S 0.800880 0.287160 0.616740
C77 C 0.713700 0.039800 0.118750
C78 C 0.833300 -0.068600 0.142910
C79 C 0.995100 -0.024500 0.179950
C80 C 0.954500 0.073600 0.215770
H81 H 0.821300 0.122700 0.216400
C82 C 1.109000 0.099600 0.250610
H83 H 1.081700 0.167400 0.274900
C84 C 1.301700 0.027400 0.250070
H85 H 1.406600 0.045600 0.274000
C86 C 1.343100 -0.070700 0.215020
H87 H 1.475800 -0.120500 0.214800
C88 C 1.190800 -0.096400 0.180130
H89 H 1.219800 -0.164000 0.155900
C90 C 0.587000 0.333300 0.131420
C91 C 0.612700 0.480200 0.122970
H92 H 0.739400 0.515500 0.109300
C93 C 0.451700 0.574100 0.134740
H94 H 0.465000 0.674800 0.128300
C95 C 0.270200 0.521900 0.155950
H96 H 0.157600 0.586500 0.163200
C97 C 0.252700 0.377100 0.166480
H98 H 0.131200 0.343100 0.182500
C99 C 0.410500 0.280200 0.153960
H100 H 0.397600 0.179700 0.160700
C101 C 0.842400 0.258400 0.056490
C102 C 1.043200 0.227400 0.040090
H103 H 1.151700 0.191000 0.060800
C104 C 1.083900 0.250200 -0.006910
H105 H 1.220600 0.227900 -0.018700
C106 C 0.927500 0.304900 -0.036670
H107 H 0.956200 0.320600 -0.068900
C108 C 0.728600 0.336900 -0.019570
H109 H 0.621300 0.375700 -0.040100
C110 C 0.684000 0.313200 0.026990
H111 H 0.546400 0.334200 0.038600
Br112 Br 0.501530 -0.020660 0.074065
O113 O 0.807700 -0.199720 0.135610
S114 S 0.800880 0.212840 0.116740
C115 C 0.286300 0.539800 0.381250
C116 C 0.166700 0.431400 0.357090
C117 C 0.004900 0.475500 0.320050
C118 C 0.045500 0.573600 0.284230
H119 H 0.178700 0.622700 0.283600
C120 C -0.109000 0.599600 0.249390
H121 H -0.081700 0.667400 0.225100
C122 C -0.301700 0.527400 0.249930
H123 H -0.406600 0.545600 0.226000
C124 C -0.343100 0.429300 0.284980
H125 H -0.475800 0.379500 0.285200
C126 C -0.190800 0.403600 0.319870
H127 H -0.219800 0.336000 0.344100
C128 C 0.413000 0.833300 0.368580
C129 C 0.387300 0.980200 0.377030
H130 H 0.260600 1.015500 0.390700
C131 C 0.548300 1.074100 0.365260
H132 H 0.535000 1.174800 0.371700
C133 C 0.729800 1.021900 0.344050
H134 H 0.842400 1.086500 0.336800
C135 C 0.747300 0.877100 0.333520
H136 H 0.868800 0.843100 0.317500
C137 C 0.589500 0.780200 0.346040
H138 H 0.602400 0.679700 0.339300
C139 C 0.157600 0.758400 0.443510
C140 C -0.043200 0.727400 0.459910
H141 H -0.151700 0.691000 0.439200
C142 C -0.083900 0.750200 0.506910
H143 H -0.220600 0.727900 0.518700
C144 C 0.072500 0.804900 0.536670
H145 H 0.043800 0.820600 0.568900
C146 C 0.271400 0.836900 0.519570
H147 H 0.378700 0.875700 0.540100
C148 C 0.316000 0.813200 0.473010
H149 H 0.453600 0.834200 0.461400
Br150 Br 0.498470 0.479340 0.425935
O151 O 0.192300 0.300280 0.364390
S152 S 0.199120 0.712840 0.383260

#END
