./LAFSIW_from_xyz.cif_generated_by_CrystalShift
_symmetry_cell_setting triclinic
_symmetry_space_group_name_H-M 'P 1'
loop_
_symmetry_equiv_pos_site_id
_symmetry_equiv_pos_as_xyz
1 x,y,z
_cell_length_a 14.953900
_cell_length_b 9.088000
_cell_length_c 18.475500
_cell_angle_alpha 90.000000
_cell_angle_beta 91.392000
_cell_angle_gamma 90.000000
_cell_volume 2510.098791
loop_
_atom_site_label
_atom_site_type_symbol
_atom_site_fract_x
_atom_site_fract_y
_atom_site_fract_z
C1 C 0.122660 0.926900 0.431020
C2 C 0.052560 0.999290 0.392690
C3 C 0.171220 0.996340 0.487820
C4 C 0.051670 0.647190 0.404670
C5 C -0.016120 0.683990 0.451740
H6 H -0.009500 0.765100 0.483800
C7 C -0.093810 0.599260 0.450750
H8 H -0.141300 0.623200 0.481900
C9 C -0.101790 0.479600 0.404100
H10 H -0.155000 0.422500 0.403400
C11 C -0.032590 0.442610 0.358330
H12 H -0.038500 0.359800 0.327200
C13 C 0.045350 0.526860 0.358070
H14 H 0.092900 0.502900 0.327000
C15 C 0.194290 0.743950 0.320880
C16 C 0.143760 0.800910 0.262580
H17 H 0.085100 0.837800 0.269400
C18 C 0.181310 0.802230 0.194600
H19 H 0.148400 0.841400 0.154400
C20 C 0.267360 0.746130 0.185110
H21 H 0.292600 0.747600 0.138400
C22 C 0.316320 0.688180 0.243590
H23 H 0.374500 0.649700 0.236600
C24 C 0.279860 0.686710 0.312490
H25 H 0.312700 0.647600 0.352700
N26 N -0.005880 1.055880 0.361040
N27 N 0.212180 1.051820 0.534420
S28 S 0.154140 0.750010 0.411059
C29 C 0.877340 0.926900 0.068980
C30 C 0.947440 0.999290 0.107310
C31 C 0.828780 0.996340 0.012180
C32 C 0.948330 0.647190 0.095330
C33 C 1.016120 0.683990 0.048260
H34 H 1.009500 0.765100 0.016200
C35 C 1.093810 0.599260 0.049250
H36 H 1.141300 0.623200 0.018100
C37 C 1.101790 0.479600 0.095900
H38 H 1.155000 0.422500 0.096600
C39 C 1.032590 0.442610 0.141670
H40 H 1.038500 0.359800 0.172800
C41 C 0.954650 0.526860 0.141930
H42 H 0.907100 0.502900 0.173000
C43 C 0.805710 0.743950 0.179120
C44 C 0.856240 0.800910 0.237420
H45 H 0.914900 0.837800 0.230600
C46 C 0.818690 0.802230 0.305400
H47 H 0.851600 0.841400 0.345600
C48 C 0.732640 0.746130 0.314890
H49 H 0.707400 0.747600 0.361600
C50 C 0.683680 0.688180 0.256410
H51 H 0.625500 0.649700 0.263400
C52 C 0.720140 0.686710 0.187510
H53 H 0.687300 0.647600 0.147300
N54 N 1.005880 1.055880 0.138960
N55 N 0.787820 1.051820 -0.034420
S56 S 0.845860 0.750010 0.088941
C57 C 0.622660 0.426900 0.431020
C58 C 0.552560 0.499290 0.392690
C59 C 0.671220 0.496340 0.487820
C60 C 0.551670 0.147190 0.404670
C61 C 0.483880 0.183990 0.451740
H62 H 0.490500 0.265100 0.483800
C63 C 0.406190 0.099260 0.450750
H64 H 0.358700 0.123200 0.481900
C65 C 0.398210 -0.020400 0.404100
H66 H 0.345000 -0.077500 0.403400
C67 C 0.467410 -0.057390 0.358330
H68 H 0.461500 -0.140200 0.327200
C69 C 0.545350 0.026860 0.358070
H70 H 0.592900 0.002900 0.327000
C71 C 0.694290 0.243950 0.320880
C72 C 0.643760 0.300910 0.262580
H73 H 0.585100 0.337800 0.269400
C74 C 0.681310 0.302230 0.194600
H75 H 0.648400 0.341400 0.154400
C76 C 0.767360 0.246130 0.185110
H77 H 0.792600 0.247600 0.138400
C78 C 0.816320 0.188180 0.243590
H79 H 0.874500 0.149700 0.236600
C80 C 0.779860 0.186710 0.312490
H81 H 0.812700 0.147600 0.352700
N82 N 0.494120 0.555880 0.361040
N83 N 0.712180 0.551820 0.534420
S84 S 0.654140 0.250010 0.411059
C85 C 0.377340 0.426900 0.068980
C86 C 0.447440 0.499290 0.107310
C87 C 0.328780 0.496340 0.012180
C88 C 0.448330 0.147190 0.095330
C89 C 0.516120 0.183990 0.048260
H90 H 0.509500 0.265100 0.016200
C91 C 0.593810 0.099260 0.049250
H92 H 0.641300 0.123200 0.018100
C93 C 0.601790 -0.020400 0.095900
H94 H 0.655000 -0.077500 0.096600
C95 C 0.532590 -0.057390 0.141670
H96 H 0.538500 -0.140200 0.172800
C97 C 0.454650 0.026860 0.141930
H98 H 0.407100 0.002900 0.173000
C99 C 0.305710 0.243950 0.179120
C100 C 0.356240 0.300910 0.237420
H101 H 0.414900 0.337800 0.230600
C102 C 0.318690 0.302230 0.305400
H103 H 0.351600 0.341400 0.345600
C104 C 0.232640 0.246130 0.314890
H105 H 0.207400 0.247600 0.361600
C106 C 0.183680 0.188180 0.256410
H107 H 0.125500 0.149700 0.263400
C108 C 0.220140 0.186710 0.187510
H109 H 0.187300 0.147600 0.147300
N110 N 0.505880 0.555880 0.138960
N111 N 0.287820 0.551820 -0.034420
S112 S 0.345860 0.250010 0.088941
C113 C 0.877340 0.073100 0.568980
C114 C 0.947440 0.000710 0.607310
C115 C 0.828780 0.003660 0.512180
C116 C 0.948330 0.352810 0.595330
C117 C 1.016120 0.316010 0.548260
H118 H 1.009500 0.234900 0.516200
C119 C 1.093810 0.400740 0.549250
H120 H 1.141300 0.376800 0.518100
C121 C 1.101790 0.520400 0.595900
H122 H 1.155000 0.577500 0.596600
C123 C 1.032590 0.557390 0.641670
H124 H 1.038500 0.640200 0.672800
C125 C 0.954650 0.473140 0.641930
H126 H 0.907100 0.497100 0.673000
C127 C 0.805710 0.256050 0.679120
C128 C 0.856240 0.199090 0.737420
H129 H 0.914900 0.162200 0.730600
C130 C 0.818690 0.197770 0.805400
H131 H 0.851600 0.158600 0.845600
C132 C 0.732640 0.253870 0.814890
H133 H 0.707400 0.252400 0.861600
C134 C 0.683680 0.311820 0.756410
H135 H 0.625500 0.350300 0.763400
C136 C 0.720140 0.313290 0.687510
H137 H 0.687300 0.352400 0.647300
N138 N 1.005880 -0.055880 0.638960
N139 N 0.787820 -0.051820 0.465580
S140 S 0.845860 0.249990 0.588941
C141 C 0.122660 0.073100 0.931020
C142 C 0.052560 0.000710 0.892690
C143 C 0.171220 0.003660 0.987820
C144 C 0.051670 0.352810 0.904670
C145 C -0.016120 0.316010 0.951740
H146 H -0.009500 0.234900 0.983800
C147 C -0.093810 0.400740 0.950750
H148 H -0.141300 0.376800 0.981900
C149 C -0.101790 0.520400 0.904100
H150 H -0.155000 0.577500 0.903400
C151 C -0.032590 0.557390 0.858330
H152 H -0.038500 0.640200 0.827200
C153 C 0.045350 0.473140 0.858070
H154 H 0.092900 0.497100 0.827000
C155 C 0.194290 0.256050 0.820880
C156 C 0.143760 0.199090 0.762580
H157 H 0.085100 0.162200 0.769400
C158 C 0.181310 0.197770 0.694600
H159 H 0.148400 0.158600 0.654400
C160 C 0.267360 0.253870 0.685110
H161 H 0.292600 0.252400 0.638400
C162 C 0.316320 0.311820 0.743590
H163 H 0.374500 0.350300 0.736600
C164 C 0.279860 0.313290 0.812490
H165 H 0.312700 0.352400 0.852700
N166 N -0.005880 -0.055880 0.861040
N167 N 0.212180 -0.051820 1.034420
S168 S 0.154140 0.249990 0.911059
C169 C 0.377340 0.573100 0.568980
C170 C 0.447440 0.500710 0.607310
C171 C 0.328780 0.503660 0.512180
C172 C 0.448330 0.852810 0.595330
C173 C 0.516120 0.816010 0.548260
H174 H 0.509500 0.734900 0.516200
C175 C 0.593810 0.900740 0.549250
H176 H 0.641300 0.876800 0.518100
C177 C 0.601790 1.020400 0.595900
H178 H 0.655000 1.077500 0.596600
C179 C 0.532590 1.057390 0.641670
H180 H 0.538500 1.140200 0.672800
C181 C 0.454650 0.973140 0.641930
H182 H 0.407100 0.997100 0.673000
C183 C 0.305710 0.756050 0.679120
C184 C 0.356240 0.699090 0.737420
H185 H 0.414900 0.662200 0.730600
C186 C 0.318690 0.697770 0.805400
H187 H 0.351600 0.658600 0.845600
C188 C 0.232640 0.753870 0.814890
H189 H 0.207400 0.752400 0.861600
C190 C 0.183680 0.811820 0.756410
H191 H 0.125500 0.850300 0.763400
C192 C 0.220140 0.813290 0.687510
H193 H 0.187300 0.852400 0.647300
N194 N 0.505880 0.444120 0.638960
N195 N 0.287820 0.448180 0.465580
S196 S 0.345860 0.749990 0.588941
C197 C 0.622660 0.573100 0.931020
C198 C 0.552560 0.500710 0.892690
C199 C 0.671220 0.503660 0.987820
C200 C 0.551670 0.852810 0.904670
C201 C 0.483880 0.816010 0.951740
H202 H 0.490500 0.734900 0.983800
C203 C 0.406190 0.900740 0.950750
H204 H 0.358700 0.876800 0.981900
C205 C 0.398210 1.020400 0.904100
H206 H 0.345000 1.077500 0.903400
C207 C 0.467410 1.057390 0.858330
H208 H 0.461500 1.140200 0.827200
C209 C 0.545350 0.973140 0.858070
H210 H 0.592900 0.997100 0.827000
C211 C 0.694290 0.756050 0.820880
C212 C 0.643760 0.699090 0.762580
H213 H 0.585100 0.662200 0.769400
C214 C 0.681310 0.697770 0.694600
H215 H 0.648400 0.658600 0.654400
C216 C 0.767360 0.753870 0.685110
H217 H 0.792600 0.752400 0.638400
C218 C 0.816320 0.811820 0.743590
H219 H 0.874500 0.850300 0.736600
C220 C 0.779860 0.813290 0.812490
H221 H 0.812700 0.852400 0.852700
N222 N 0.494120 0.444120 0.861040
N223 N 0.712180 0.448180 1.034420
S224 S 0.654140 0.749990 0.911059

#END
