./LAFSES_from_xyz.cif_generated_by_CrystalShift
_symmetry_cell_setting triclinic
_symmetry_space_group_name_H-M 'P 1'
loop_
_symmetry_equiv_pos_site_id
_symmetry_equiv_pos_as_xyz
1 x,y,z
_cell_length_a 10.092100
_cell_length_b 10.124800
_cell_length_c 14.790300
_cell_angle_alpha 90.000000
_cell_angle_beta 95.757000
_cell_angle_gamma 90.000000
_cell_volume 1503.657701
loop_
_atom_site_label
_atom_site_type_symbol
_atom_site_fract_x
_atom_site_fract_y
_atom_site_fract_z
C1 C 0.641300 0.891800 -0.006080
H2 H 0.705700 0.879100 -0.050700
H3 H 0.639100 0.985300 0.010900
H4 H 0.552700 0.864400 -0.032600
C5 C 0.597750 0.817580 0.140730
C6 C 0.648320 0.738450 0.217720
C7 C 0.585700 0.741130 0.301340
C8 C 0.594300 0.665200 0.453260
H9 H 0.500900 0.636900 0.446400
H10 H 0.600100 0.756000 0.476200
H11 H 0.645800 0.606700 0.496300
C12 C 1.069300 0.907100 0.195520
H13 H 1.077000 0.997200 0.178800
C14 C 1.047180 0.644500 0.245290
H15 H 1.039300 0.554800 0.262900
C16 C 0.757290 0.548820 0.106130
C17 C 1.182460 0.836900 0.225980
H18 H 1.267400 0.878100 0.229700
C19 C 0.833500 0.576400 0.035550
H20 H 0.904700 0.638000 0.043600
C21 C 0.935470 0.716510 0.213320
C22 C 1.170870 0.705600 0.251140
H23 H 1.248300 0.657100 0.272600
C24 C 0.804200 0.512400 -0.047090
H25 H 0.855100 0.530500 -0.096300
C26 C 0.944270 0.848090 0.188940
H27 H 0.866700 0.896900 0.168200
C28 C 0.700600 0.422100 -0.057750
H29 H 0.680000 0.379200 -0.114600
C30 C 0.655210 0.457500 0.096510
H31 H 0.604900 0.438300 0.145900
C32 C 0.627400 0.394200 0.013790
H33 H 0.557400 0.331200 0.006300
O34 O 0.494310 0.880530 0.132470
O35 O 0.490380 0.807280 0.316450
O36 O 0.680060 0.813710 0.073300
O37 O 0.647190 0.659240 0.366430
S38 S 0.779970 0.630710 0.214220
C39 C 0.858700 0.391800 0.506080
H40 H 0.794300 0.379100 0.550700
H41 H 0.860900 0.485300 0.489100
H42 H 0.947300 0.364400 0.532600
C43 C 0.902250 0.317580 0.359270
C44 C 0.851680 0.238450 0.282280
C45 C 0.914300 0.241130 0.198660
C46 C 0.905700 0.165200 0.046740
H47 H 0.999100 0.136900 0.053600
H48 H 0.899900 0.256000 0.023800
H49 H 0.854200 0.106700 0.003700
C50 C 0.430700 0.407100 0.304480
H51 H 0.423000 0.497200 0.321200
C52 C 0.452820 0.144500 0.254710
H53 H 0.460700 0.054800 0.237100
C54 C 0.742710 0.048820 0.393870
C55 C 0.317540 0.336900 0.274020
H56 H 0.232600 0.378100 0.270300
C57 C 0.666500 0.076400 0.464450
H58 H 0.595300 0.138000 0.456400
C59 C 0.564530 0.216510 0.286680
C60 C 0.329130 0.205600 0.248860
H61 H 0.251700 0.157100 0.227400
C62 C 0.695800 0.012400 0.547090
H63 H 0.644900 0.030500 0.596300
C64 C 0.555730 0.348090 0.311060
H65 H 0.633300 0.396900 0.331800
C66 C 0.799400 -0.077900 0.557750
H67 H 0.820000 -0.120800 0.614600
C68 C 0.844790 -0.042500 0.403490
H69 H 0.895100 -0.061700 0.354100
C70 C 0.872600 -0.105800 0.486210
H71 H 0.942600 -0.168800 0.493700
O72 O 1.005690 0.380530 0.367530
O73 O 1.009620 0.307280 0.183550
O74 O 0.819940 0.313710 0.426700
O75 O 0.852810 0.159240 0.133570
S76 S 0.720030 0.130710 0.285780
C77 C 0.358700 0.108200 1.006080
H78 H 0.294300 0.120900 1.050700
H79 H 0.360900 0.014700 0.989100
H80 H 0.447300 0.135600 1.032600
C81 C 0.402250 0.182420 0.859270
C82 C 0.351680 0.261550 0.782280
C83 C 0.414300 0.258870 0.698660
C84 C 0.405700 0.334800 0.546740
H85 H 0.499100 0.363100 0.553600
H86 H 0.399900 0.244000 0.523800
H87 H 0.354200 0.393300 0.503700
C88 C -0.069300 0.092900 0.804480
H89 H -0.077000 0.002800 0.821200
C90 C -0.047180 0.355500 0.754710
H91 H -0.039300 0.445200 0.737100
C92 C 0.242710 0.451180 0.893870
C93 C -0.182460 0.163100 0.774020
H94 H -0.267400 0.121900 0.770300
C95 C 0.166500 0.423600 0.964450
H96 H 0.095300 0.362000 0.956400
C97 C 0.064530 0.283490 0.786680
C98 C -0.170870 0.294400 0.748860
H99 H -0.248300 0.342900 0.727400
C100 C 0.195800 0.487600 1.047090
H101 H 0.144900 0.469500 1.096300
C102 C 0.055730 0.151910 0.811060
H103 H 0.133300 0.103100 0.831800
C104 C 0.299400 0.577900 1.057750
H105 H 0.320000 0.620800 1.114600
C106 C 0.344790 0.542500 0.903490
H107 H 0.395100 0.561700 0.854100
C108 C 0.372600 0.605800 0.986210
H109 H 0.442600 0.668800 0.993700
O110 O 0.505690 0.119470 0.867530
O111 O 0.509620 0.192720 0.683550
O112 O 0.319940 0.186290 0.926700
O113 O 0.352810 0.340760 0.633570
S114 S 0.220030 0.369290 0.785780
C115 C 0.141300 0.608200 0.493920
H116 H 0.205700 0.620900 0.449300
H117 H 0.139100 0.514700 0.510900
H118 H 0.052700 0.635600 0.467400
C119 C 0.097750 0.682420 0.640730
C120 C 0.148320 0.761550 0.717720
C121 C 0.085700 0.758870 0.801340
C122 C 0.094300 0.834800 0.953260
H123 H 0.000900 0.863100 0.946400
H124 H 0.100100 0.744000 0.976200
H125 H 0.145800 0.893300 0.996300
C126 C 0.569300 0.592900 0.695520
H127 H 0.577000 0.502800 0.678800
C128 C 0.547180 0.855500 0.745290
H129 H 0.539300 0.945200 0.762900
C130 C 0.257290 0.951180 0.606130
C131 C 0.682460 0.663100 0.725980
H132 H 0.767400 0.621900 0.729700
C133 C 0.333500 0.923600 0.535550
H134 H 0.404700 0.862000 0.543600
C135 C 0.435470 0.783490 0.713320
C136 C 0.670870 0.794400 0.751140
H137 H 0.748300 0.842900 0.772600
C138 C 0.304200 0.987600 0.452910
H139 H 0.355100 0.969500 0.403700
C140 C 0.444270 0.651910 0.688940
H141 H 0.366700 0.603100 0.668200
C142 C 0.200600 1.077900 0.442250
H143 H 0.180000 1.120800 0.385400
C144 C 0.155210 1.042500 0.596510
H145 H 0.104900 1.061700 0.645900
C146 C 0.127400 1.105800 0.513790
H147 H 0.057400 1.168800 0.506300
O148 O -0.005690 0.619470 0.632470
O149 O -0.009620 0.692720 0.816450
O150 O 0.180060 0.686290 0.573300
O151 O 0.147190 0.840760 0.866430
S152 S 0.279970 0.869290 0.714220

#END
