./LAFSUI_from_xyz.cif_generated_by_CrystalShift
_symmetry_cell_setting triclinic
_symmetry_space_group_name_H-M 'P 1'
loop_
_symmetry_equiv_pos_site_id
_symmetry_equiv_pos_as_xyz
1 x,y,z
_cell_length_a 10.245900
_cell_length_b 20.387000
_cell_length_c 8.121200
_cell_angle_alpha 90.000000
_cell_angle_beta 102.949000
_cell_angle_gamma 90.000000
_cell_volume 1653.242768
loop_
_atom_site_label
_atom_site_type_symbol
_atom_site_fract_x
_atom_site_fract_y
_atom_site_fract_z
C1 C 0.730710 0.137990 0.950440
C2 C 0.821980 0.176130 1.072860
C3 C 0.710110 0.069590 0.955890
C4 C 0.926700 0.140430 1.200870
C5 C 0.990980 0.083880 1.163500
H6 H 0.972500 0.067300 1.051400
C7 C 1.081990 0.051810 1.290500
H8 H 1.125900 0.013300 1.265100
C9 C 1.108850 0.075950 1.454100
H10 H 1.169500 0.053400 1.541300
C11 C 1.047480 0.132900 1.490800
H12 H 1.067200 0.149800 1.602700
C13 C 0.957100 0.165440 1.364150
H14 H 0.916000 0.204800 1.389200
C15 C 0.462780 0.188920 0.846430
C16 C 0.405560 0.137340 0.917460
H17 H 0.452400 0.097100 0.944300
C18 C 0.278910 0.145670 0.948460
H19 H 0.238300 0.111000 0.997100
C20 C 0.211180 0.204750 0.908440
H21 H 0.124500 0.210200 0.930200
C22 C 0.269130 0.255590 0.837230
H23 H 0.222000 0.295700 0.809600
C24 C 0.396100 0.248030 0.806110
H25 H 0.436700 0.282800 0.757900
C26 C 0.595060 0.131300 0.615950
C27 C 0.707570 0.114550 0.555720
H28 H 0.794000 0.129200 0.612400
C29 C 0.691370 0.076260 0.411840
H30 H 0.767400 0.063900 0.370200
C31 C 0.564550 0.055850 0.328000
H32 H 0.554000 0.029600 0.229200
C33 C 0.453720 0.073710 0.388170
H34 H 0.367100 0.059900 0.329900
C35 C 0.468080 0.111630 0.533120
H36 H 0.392000 0.123900 0.574700
N37 N 0.691310 0.013820 0.958440
O38 O 0.814770 0.236670 1.078320
S39 S 0.624490 0.184086 0.797460
C40 C 0.269290 0.637990 0.549560
C41 C 0.178020 0.676130 0.427140
C42 C 0.289890 0.569590 0.544110
C43 C 0.073300 0.640430 0.299130
C44 C 0.009020 0.583880 0.336500
H45 H 0.027500 0.567300 0.448600
C46 C -0.081990 0.551810 0.209500
H47 H -0.125900 0.513300 0.234900
C48 C -0.108850 0.575950 0.045900
H49 H -0.169500 0.553400 -0.041300
C50 C -0.047480 0.632900 0.009200
H51 H -0.067200 0.649800 -0.102700
C52 C 0.042900 0.665440 0.135850
H53 H 0.084000 0.704800 0.110800
C54 C 0.537220 0.688920 0.653570
C55 C 0.594440 0.637340 0.582540
H56 H 0.547600 0.597100 0.555700
C57 C 0.721090 0.645670 0.551540
H58 H 0.761700 0.611000 0.502900
C59 C 0.788820 0.704750 0.591560
H60 H 0.875500 0.710200 0.569800
C61 C 0.730870 0.755590 0.662770
H62 H 0.778000 0.795700 0.690400
C63 C 0.603900 0.748030 0.693890
H64 H 0.563300 0.782800 0.742100
C65 C 0.404940 0.631300 0.884050
C66 C 0.292430 0.614550 0.944280
H67 H 0.206000 0.629200 0.887600
C68 C 0.308630 0.576260 1.088160
H69 H 0.232600 0.563900 1.129800
C70 C 0.435450 0.555850 1.172000
H71 H 0.446000 0.529600 1.270800
C72 C 0.546280 0.573710 1.111830
H73 H 0.632900 0.559900 1.170100
C74 C 0.531920 0.611630 0.966880
H75 H 0.608000 0.623900 0.925300
N76 N 0.308690 0.513820 0.541560
O77 O 0.185230 0.736670 0.421680
S78 S 0.375510 0.684086 0.702540
C79 C 0.269290 0.862010 0.049560
C80 C 0.178020 0.823870 -0.072860
C81 C 0.289890 0.930410 0.044110
C82 C 0.073300 0.859570 -0.200870
C83 C 0.009020 0.916120 -0.163500
H84 H 0.027500 0.932700 -0.051400
C85 C -0.081990 0.948190 -0.290500
H86 H -0.125900 0.986700 -0.265100
C87 C -0.108850 0.924050 -0.454100
H88 H -0.169500 0.946600 -0.541300
C89 C -0.047480 0.867100 -0.490800
H90 H -0.067200 0.850200 -0.602700
C91 C 0.042900 0.834560 -0.364150
H92 H 0.084000 0.795200 -0.389200
C93 C 0.537220 0.811080 0.153570
C94 C 0.594440 0.862660 0.082540
H95 H 0.547600 0.902900 0.055700
C96 C 0.721090 0.854330 0.051540
H97 H 0.761700 0.889000 0.002900
C98 C 0.788820 0.795250 0.091560
H99 H 0.875500 0.789800 0.069800
C100 C 0.730870 0.744410 0.162770
H101 H 0.778000 0.704300 0.190400
C102 C 0.603900 0.751970 0.193890
H103 H 0.563300 0.717200 0.242100
C104 C 0.404940 0.868700 0.384050
C105 C 0.292430 0.885450 0.444280
H106 H 0.206000 0.870800 0.387600
C107 C 0.308630 0.923740 0.588160
H108 H 0.232600 0.936100 0.629800
C109 C 0.435450 0.944150 0.672000
H110 H 0.446000 0.970400 0.770800
C111 C 0.546280 0.926290 0.611830
H112 H 0.632900 0.940100 0.670100
C113 C 0.531920 0.888370 0.466880
H114 H 0.608000 0.876100 0.425300
N115 N 0.308690 0.986180 0.041560
O116 O 0.185230 0.763330 -0.078320
S117 S 0.375510 0.815914 0.202540
C118 C 0.730710 0.362010 0.450440
C119 C 0.821980 0.323870 0.572860
C120 C 0.710110 0.430410 0.455890
C121 C 0.926700 0.359570 0.700870
C122 C 0.990980 0.416120 0.663500
H123 H 0.972500 0.432700 0.551400
C124 C 1.081990 0.448190 0.790500
H125 H 1.125900 0.486700 0.765100
C126 C 1.108850 0.424050 0.954100
H127 H 1.169500 0.446600 1.041300
C128 C 1.047480 0.367100 0.990800
H129 H 1.067200 0.350200 1.102700
C130 C 0.957100 0.334560 0.864150
H131 H 0.916000 0.295200 0.889200
C132 C 0.462780 0.311080 0.346430
C133 C 0.405560 0.362660 0.417460
H134 H 0.452400 0.402900 0.444300
C135 C 0.278910 0.354330 0.448460
H136 H 0.238300 0.389000 0.497100
C137 C 0.211180 0.295250 0.408440
H138 H 0.124500 0.289800 0.430200
C139 C 0.269130 0.244410 0.337230
H140 H 0.222000 0.204300 0.309600
C141 C 0.396100 0.251970 0.306110
H142 H 0.436700 0.217200 0.257900
C143 C 0.595060 0.368700 0.115950
C144 C 0.707570 0.385450 0.055720
H145 H 0.794000 0.370800 0.112400
C146 C 0.691370 0.423740 -0.088160
H147 H 0.767400 0.436100 -0.129800
C148 C 0.564550 0.444150 -0.172000
H149 H 0.554000 0.470400 -0.270800
C150 C 0.453720 0.426290 -0.111830
H151 H 0.367100 0.440100 -0.170100
C152 C 0.468080 0.388370 0.033120
H153 H 0.392000 0.376100 0.074700
N154 N 0.691310 0.486180 0.458440
O155 O 0.814770 0.263330 0.578320
S156 S 0.624490 0.315914 0.297460

#END
