
#######################################################################
#
#                 Cambridge Crystallographic Data Centre
#                                CCDC 
#
#######################################################################
#
# If this CIF has been generated from an entry in the Cambridge 
# Structural Database, then it will include bibliographic, chemical, 
# crystal, experimental, refinement or atomic coordinate data resulting 
# from the CCDC's data processing and validation procedures.
#
#######################################################################

data_LAFTAQ
_symmetry_cell_setting           rhombohedral
_symmetry_space_group_name_H-M   'R -3'
_symmetry_Int_Tables_number      148
_space_group_name_Hall           '-R 3'
loop_
_symmetry_equiv_pos_site_id
_symmetry_equiv_pos_as_xyz
1 x,y,z
2 -y,x-y,z
3 -x+y,-x,z
4 2/3+x,1/3+y,1/3+z
5 2/3-y,1/3+x-y,1/3+z
6 2/3-x+y,1/3-x,1/3+z
7 1/3+x,2/3+y,2/3+z
8 1/3-y,2/3+x-y,2/3+z
9 1/3-x+y,2/3-x,2/3+z
10 -x,-y,-z
11 y,-x+y,-z
12 x-y,x,-z
13 1/3-x,2/3-y,2/3-z
14 1/3+y,2/3-x+y,2/3-z
15 1/3+x-y,2/3+x,2/3-z
16 2/3-x,1/3-y,1/3-z
17 2/3+y,1/3-x+y,1/3-z
18 2/3+x-y,1/3+x,1/3-z
_cell_length_a                   19.3483(6)
_cell_length_b                   19.3483(6)
_cell_length_c                   6.2252(3)
_cell_angle_alpha                90
_cell_angle_beta                 90
_cell_angle_gamma                120
_cell_volume                     2018.22
loop_
_atom_site_label
_atom_site_type_symbol
_atom_site_fract_x
_atom_site_fract_y
_atom_site_fract_z
C1 C -0.23728(8) -0.05342(9) 0.0112(3)
C2 C -0.23362(9) -0.00799(10) -0.1688(3)
C3 C -0.18260(9) 0.07382(10) -0.1704(3)
C4 C -0.13527(9) 0.11307(9) 0.0080(3)
C5 C -0.15485(10) 0.07014(10) 0.1993(3)
C6 C -0.20487(10) -0.01167(10) 0.2006(3)
H1 H -0.2641(12) -0.0356(11) -0.304(3)
H2 H -0.1775(12) 0.1015(13) -0.312(3)
H3 H -0.1260(12) 0.0938(12) 0.339(3)
H4 H -0.2077(12) -0.0391(12) 0.334(3)
C1J C -0.05342(9) 0.18386(12) -0.0112(3)
C2J C -0.00799(10) 0.22563(13) 0.1688(3)
C3J C 0.07382(10) 0.25642(13) 0.1704(3)
C4J C 0.11307(9) 0.24834(13) -0.0080(3)
C5J C 0.07014(10) 0.22499(14) -0.1993(3)
C6J C -0.01167(10) 0.19320(14) -0.2006(3)
H1J H -0.0356(11) 0.2285(16) 0.304(3)
H2J H 0.1015(13) 0.2790(18) 0.312(3)
H3J H 0.0938(12) 0.2198(17) -0.339(3)
H4J H -0.0391(12) 0.1686(17) -0.334(3)
C1K C -0.18386(12) -0.23728(8) -0.0112(3)
C2K C -0.22563(13) -0.23362(9) 0.1688(3)
C3K C -0.25642(13) -0.18260(9) 0.1704(3)
C4K C -0.24834(13) -0.13527(9) -0.0080(3)
C5K C -0.22499(14) -0.15485(10) -0.1993(3)
C6K C -0.19320(14) -0.20487(10) -0.2006(3)
H1K H -0.2285(16) -0.2641(12) 0.304(3)
H2K H -0.2790(18) -0.1775(12) 0.312(3)
H3K H -0.2198(17) -0.1260(12) -0.339(3)
H4K H -0.1686(17) -0.2077(12) -0.334(3)
C1A C 0.05342(9) -0.18386(12) 0.0112(3)
C2A C 0.00799(10) -0.22563(13) -0.1688(3)
C3A C -0.07382(10) -0.25642(13) -0.1704(3)
C4A C -0.11307(9) -0.24834(13) 0.0080(3)
C5A C -0.07014(10) -0.22499(14) 0.1993(3)
C6A C 0.01167(10) -0.19320(14) 0.2006(3)
H1A H 0.0356(11) -0.2285(16) -0.304(3)
H2A H -0.1015(13) -0.2790(18) -0.312(3)
H3A H -0.0938(12) -0.2198(17) 0.339(3)
H4A H 0.0391(12) -0.1686(17) 0.334(3)
C1B C 0.18386(12) 0.23728(8) 0.0112(3)
C2B C 0.22563(13) 0.23362(9) -0.1688(3)
C3B C 0.25642(13) 0.18260(9) -0.1704(3)
C4B C 0.24834(13) 0.13527(9) 0.0080(3)
C5B C 0.22499(14) 0.15485(10) 0.1993(3)
C6B C 0.19320(14) 0.20487(10) 0.2006(3)
H1B H 0.2285(16) 0.2641(12) -0.304(3)
H2B H 0.2790(18) 0.1775(12) -0.312(3)
H3B H 0.2198(17) 0.1260(12) 0.339(3)
H4B H 0.1686(17) 0.2077(12) 0.334(3)
C1I C 0.23728(8) 0.05342(9) -0.0112(3)
C2I C 0.23362(9) 0.00799(10) 0.1688(3)
C3I C 0.18260(9) -0.07382(10) 0.1704(3)
C4I C 0.13527(9) -0.11307(9) -0.0080(3)
C5I C 0.15485(10) -0.07014(10) -0.1993(3)
C6I C 0.20487(10) 0.01167(10) -0.2006(3)
H1I H 0.2641(12) 0.0356(11) 0.304(3)
H2I H 0.1775(12) -0.1015(13) 0.312(3)
H3I H 0.1260(12) -0.0938(12) -0.339(3)
H4I H 0.2077(12) 0.0391(12) -0.334(3)
C1 C -0.23728(8) -0.05342(9) 1.0112(3)
C2 C -0.23362(9) -0.00799(10) 0.8312(3)
C3 C -0.18260(9) 0.07382(10) 0.8296(3)
C4 C -0.13527(9) 0.11307(9) 1.0080(3)
C5 C -0.15485(10) 0.07014(10) 1.1993(3)
C6 C -0.20487(10) -0.01167(10) 1.2006(3)
H1 H -0.2641(12) -0.0356(11) 0.696(3)
H2 H -0.1775(12) 0.1015(13) 0.688(3)
H3 H -0.1260(12) 0.0938(12) 1.339(3)
H4 H -0.2077(12) -0.0391(12) 1.334(3)
C1J C -0.05342(9) 0.18386(12) 0.9888(3)
C2J C -0.00799(10) 0.22563(13) 1.1688(3)
C3J C 0.07382(10) 0.25642(13) 1.1704(3)
C4J C 0.11307(9) 0.24834(13) 0.9920(3)
C5J C 0.07014(10) 0.22499(14) 0.8007(3)
C6J C -0.01167(10) 0.19320(14) 0.7994(3)
H1J H -0.0356(11) 0.2285(16) 1.304(3)
H2J H 0.1015(13) 0.2790(18) 1.312(3)
H3J H 0.0938(12) 0.2198(17) 0.661(3)
H4J H -0.0391(12) 0.1686(17) 0.666(3)
C1K C -0.18386(12) -0.23728(8) 0.9888(3)
C2K C -0.22563(13) -0.23362(9) 1.1688(3)
C3K C -0.25642(13) -0.18260(9) 1.1704(3)
C4K C -0.24834(13) -0.13527(9) 0.9920(3)
C5K C -0.22499(14) -0.15485(10) 0.8007(3)
C6K C -0.19320(14) -0.20487(10) 0.7994(3)
H1K H -0.2285(16) -0.2641(12) 1.304(3)
H2K H -0.2790(18) -0.1775(12) 1.312(3)
H3K H -0.2198(17) -0.1260(12) 0.661(3)
H4K H -0.1686(17) -0.2077(12) 0.666(3)
C1A C 0.05342(9) -0.18386(12) 1.0112(3)
C2A C 0.00799(10) -0.22563(13) 0.8312(3)
C3A C -0.07382(10) -0.25642(13) 0.8296(3)
C4A C -0.11307(9) -0.24834(13) 1.0080(3)
C5A C -0.07014(10) -0.22499(14) 1.1993(3)
C6A C 0.01167(10) -0.19320(14) 1.2006(3)
H1A H 0.0356(11) -0.2285(16) 0.696(3)
H2A H -0.1015(13) -0.2790(18) 0.688(3)
H3A H -0.0938(12) -0.2198(17) 1.339(3)
H4A H 0.0391(12) -0.1686(17) 1.334(3)
C1B C 0.18386(12) 0.23728(8) 1.0112(3)
C2B C 0.22563(13) 0.23362(9) 0.8312(3)
C3B C 0.25642(13) 0.18260(9) 0.8296(3)
C4B C 0.24834(13) 0.13527(9) 1.0080(3)
C5B C 0.22499(14) 0.15485(10) 1.1993(3)
C6B C 0.19320(14) 0.20487(10) 1.2006(3)
H1B H 0.2285(16) 0.2641(12) 0.696(3)
H2B H 0.2790(18) 0.1775(12) 0.688(3)
H3B H 0.2198(17) 0.1260(12) 1.339(3)
H4B H 0.1686(17) 0.2077(12) 1.334(3)
C1I C 0.23728(8) 0.05342(9) 0.9888(3)
C2I C 0.23362(9) 0.00799(10) 1.1688(3)
C3I C 0.18260(9) -0.07382(10) 1.1704(3)
C4I C 0.13527(9) -0.11307(9) 0.9920(3)
C5I C 0.15485(10) -0.07014(10) 0.8007(3)
C6I C 0.20487(10) 0.01167(10) 0.7994(3)
H1I H 0.2641(12) 0.0356(11) 1.304(3)
H2I H 0.1775(12) -0.1015(13) 1.312(3)
H3I H 0.1260(12) -0.0938(12) 0.661(3)
H4I H 0.2077(12) 0.0391(12) 0.666(3)
C1 C -0.23728(8) 0.94658(9) 0.0112(3)
C2 C -0.23362(9) 0.99201(10) -0.1688(3)
C3 C -0.18260(9) 1.07382(10) -0.1704(3)
C4 C -0.13527(9) 1.11307(9) 0.0080(3)
C5 C -0.15485(10) 1.07014(10) 0.1993(3)
C6 C -0.20487(10) 0.98833(10) 0.2006(3)
H1 H -0.2641(12) 0.9644(11) -0.304(3)
H2 H -0.1775(12) 1.1015(13) -0.312(3)
H3 H -0.1260(12) 1.0938(12) 0.339(3)
H4 H -0.2077(12) 0.9609(12) 0.334(3)
C1J C -0.05342(9) 1.18386(12) -0.0112(3)
C2J C -0.00799(10) 1.22563(13) 0.1688(3)
C3J C 0.07382(10) 1.25642(13) 0.1704(3)
C4J C 0.11307(9) 1.24834(13) -0.0080(3)
C5J C 0.07014(10) 1.22499(14) -0.1993(3)
C6J C -0.01167(10) 1.19320(14) -0.2006(3)
H1J H -0.0356(11) 1.2285(16) 0.304(3)
H2J H 0.1015(13) 1.2790(18) 0.312(3)
H3J H 0.0938(12) 1.2198(17) -0.339(3)
H4J H -0.0391(12) 1.1686(17) -0.334(3)
C1K C -0.18386(12) 0.76272(8) -0.0112(3)
C2K C -0.22563(13) 0.76638(9) 0.1688(3)
C3K C -0.25642(13) 0.81740(9) 0.1704(3)
C4K C -0.24834(13) 0.86473(9) -0.0080(3)
C5K C -0.22499(14) 0.84515(10) -0.1993(3)
C6K C -0.19320(14) 0.79513(10) -0.2006(3)
H1K H -0.2285(16) 0.7359(12) 0.304(3)
H2K H -0.2790(18) 0.8225(12) 0.312(3)
H3K H -0.2198(17) 0.8740(12) -0.339(3)
H4K H -0.1686(17) 0.7923(12) -0.334(3)
C1A C 0.05342(9) 0.81614(12) 0.0112(3)
C2A C 0.00799(10) 0.77437(13) -0.1688(3)
C3A C -0.07382(10) 0.74358(13) -0.1704(3)
C4A C -0.11307(9) 0.75166(13) 0.0080(3)
C5A C -0.07014(10) 0.77501(14) 0.1993(3)
C6A C 0.01167(10) 0.80680(14) 0.2006(3)
H1A H 0.0356(11) 0.7715(16) -0.304(3)
H2A H -0.1015(13) 0.7210(18) -0.312(3)
H3A H -0.0938(12) 0.7802(17) 0.339(3)
H4A H 0.0391(12) 0.8314(17) 0.334(3)
C1B C 0.18386(12) 1.23728(8) 0.0112(3)
C2B C 0.22563(13) 1.23362(9) -0.1688(3)
C3B C 0.25642(13) 1.18260(9) -0.1704(3)
C4B C 0.24834(13) 1.13527(9) 0.0080(3)
C5B C 0.22499(14) 1.15485(10) 0.1993(3)
C6B C 0.19320(14) 1.20487(10) 0.2006(3)
H1B H 0.2285(16) 1.2641(12) -0.304(3)
H2B H 0.2790(18) 1.1775(12) -0.312(3)
H3B H 0.2198(17) 1.1260(12) 0.339(3)
H4B H 0.1686(17) 1.2077(12) 0.334(3)
C1I C 0.23728(8) 1.05342(9) -0.0112(3)
C2I C 0.23362(9) 1.00799(10) 0.1688(3)
C3I C 0.18260(9) 0.92618(10) 0.1704(3)
C4I C 0.13527(9) 0.88693(9) -0.0080(3)
C5I C 0.15485(10) 0.92986(10) -0.1993(3)
C6I C 0.20487(10) 1.01167(10) -0.2006(3)
H1I H 0.2641(12) 1.0356(11) 0.304(3)
H2I H 0.1775(12) 0.8985(13) 0.312(3)
H3I H 0.1260(12) 0.9062(12) -0.339(3)
H4I H 0.2077(12) 1.0391(12) -0.334(3)
C1 C -0.23728(8) 0.94658(9) 1.0112(3)
C2 C -0.23362(9) 0.99201(10) 0.8312(3)
C3 C -0.18260(9) 1.07382(10) 0.8296(3)
C4 C -0.13527(9) 1.11307(9) 1.0080(3)
C5 C -0.15485(10) 1.07014(10) 1.1993(3)
C6 C -0.20487(10) 0.98833(10) 1.2006(3)
H1 H -0.2641(12) 0.9644(11) 0.696(3)
H2 H -0.1775(12) 1.1015(13) 0.688(3)
H3 H -0.1260(12) 1.0938(12) 1.339(3)
H4 H -0.2077(12) 0.9609(12) 1.334(3)
C1J C -0.05342(9) 1.18386(12) 0.9888(3)
C2J C -0.00799(10) 1.22563(13) 1.1688(3)
C3J C 0.07382(10) 1.25642(13) 1.1704(3)
C4J C 0.11307(9) 1.24834(13) 0.9920(3)
C5J C 0.07014(10) 1.22499(14) 0.8007(3)
C6J C -0.01167(10) 1.19320(14) 0.7994(3)
H1J H -0.0356(11) 1.2285(16) 1.304(3)
H2J H 0.1015(13) 1.2790(18) 1.312(3)
H3J H 0.0938(12) 1.2198(17) 0.661(3)
H4J H -0.0391(12) 1.1686(17) 0.666(3)
C1K C -0.18386(12) 0.76272(8) 0.9888(3)
C2K C -0.22563(13) 0.76638(9) 1.1688(3)
C3K C -0.25642(13) 0.81740(9) 1.1704(3)
C4K C -0.24834(13) 0.86473(9) 0.9920(3)
C5K C -0.22499(14) 0.84515(10) 0.8007(3)
C6K C -0.19320(14) 0.79513(10) 0.7994(3)
H1K H -0.2285(16) 0.7359(12) 1.304(3)
H2K H -0.2790(18) 0.8225(12) 1.312(3)
H3K H -0.2198(17) 0.8740(12) 0.661(3)
H4K H -0.1686(17) 0.7923(12) 0.666(3)
C1A C 0.05342(9) 0.81614(12) 1.0112(3)
C2A C 0.00799(10) 0.77437(13) 0.8312(3)
C3A C -0.07382(10) 0.74358(13) 0.8296(3)
C4A C -0.11307(9) 0.75166(13) 1.0080(3)
C5A C -0.07014(10) 0.77501(14) 1.1993(3)
C6A C 0.01167(10) 0.80680(14) 1.2006(3)
H1A H 0.0356(11) 0.7715(16) 0.696(3)
H2A H -0.1015(13) 0.7210(18) 0.688(3)
H3A H -0.0938(12) 0.7802(17) 1.339(3)
H4A H 0.0391(12) 0.8314(17) 1.334(3)
C1B C 0.18386(12) 1.23728(8) 1.0112(3)
C2B C 0.22563(13) 1.23362(9) 0.8312(3)
C3B C 0.25642(13) 1.18260(9) 0.8296(3)
C4B C 0.24834(13) 1.13527(9) 1.0080(3)
C5B C 0.22499(14) 1.15485(10) 1.1993(3)
C6B C 0.19320(14) 1.20487(10) 1.2006(3)
H1B H 0.2285(16) 1.2641(12) 0.696(3)
H2B H 0.2790(18) 1.1775(12) 0.688(3)
H3B H 0.2198(17) 1.1260(12) 1.339(3)
H4B H 0.1686(17) 1.2077(12) 1.334(3)
C1I C 0.23728(8) 1.05342(9) 0.9888(3)
C2I C 0.23362(9) 1.00799(10) 1.1688(3)
C3I C 0.18260(9) 0.92618(10) 1.1704(3)
C4I C 0.13527(9) 0.88693(9) 0.9920(3)
C5I C 0.15485(10) 0.92986(10) 0.8007(3)
C6I C 0.20487(10) 1.01167(10) 0.7994(3)
H1I H 0.2641(12) 1.0356(11) 1.304(3)
H2I H 0.1775(12) 0.8985(13) 1.312(3)
H3I H 0.1260(12) 0.9062(12) 0.661(3)
H4I H 0.2077(12) 1.0391(12) 0.666(3)
C1 C 0.76272(8) -0.05342(9) 0.0112(3)
C2 C 0.76638(9) -0.00799(10) -0.1688(3)
C3 C 0.81740(9) 0.07382(10) -0.1704(3)
C4 C 0.86473(9) 0.11307(9) 0.0080(3)
C5 C 0.84515(10) 0.07014(10) 0.1993(3)
C6 C 0.79513(10) -0.01167(10) 0.2006(3)
H1 H 0.7359(12) -0.0356(11) -0.304(3)
H2 H 0.8225(12) 0.1015(13) -0.312(3)
H3 H 0.8740(12) 0.0938(12) 0.339(3)
H4 H 0.7923(12) -0.0391(12) 0.334(3)
C1J C 0.94658(9) 0.18386(12) -0.0112(3)
C2J C 0.99201(10) 0.22563(13) 0.1688(3)
C3J C 1.07382(10) 0.25642(13) 0.1704(3)
C4J C 1.11307(9) 0.24834(13) -0.0080(3)
C5J C 1.07014(10) 0.22499(14) -0.1993(3)
C6J C 0.98833(10) 0.19320(14) -0.2006(3)
H1J H 0.9644(11) 0.2285(16) 0.304(3)
H2J H 1.1015(13) 0.2790(18) 0.312(3)
H3J H 1.0938(12) 0.2198(17) -0.339(3)
H4J H 0.9609(12) 0.1686(17) -0.334(3)
C1K C 0.81614(12) -0.23728(8) -0.0112(3)
C2K C 0.77437(13) -0.23362(9) 0.1688(3)
C3K C 0.74358(13) -0.18260(9) 0.1704(3)
C4K C 0.75166(13) -0.13527(9) -0.0080(3)
C5K C 0.77501(14) -0.15485(10) -0.1993(3)
C6K C 0.80680(14) -0.20487(10) -0.2006(3)
H1K H 0.7715(16) -0.2641(12) 0.304(3)
H2K H 0.7210(18) -0.1775(12) 0.312(3)
H3K H 0.7802(17) -0.1260(12) -0.339(3)
H4K H 0.8314(17) -0.2077(12) -0.334(3)
C1A C 1.05342(9) -0.18386(12) 0.0112(3)
C2A C 1.00799(10) -0.22563(13) -0.1688(3)
C3A C 0.92618(10) -0.25642(13) -0.1704(3)
C4A C 0.88693(9) -0.24834(13) 0.0080(3)
C5A C 0.92986(10) -0.22499(14) 0.1993(3)
C6A C 1.01167(10) -0.19320(14) 0.2006(3)
H1A H 1.0356(11) -0.2285(16) -0.304(3)
H2A H 0.8985(13) -0.2790(18) -0.312(3)
H3A H 0.9062(12) -0.2198(17) 0.339(3)
H4A H 1.0391(12) -0.1686(17) 0.334(3)
C1B C 1.18386(12) 0.23728(8) 0.0112(3)
C2B C 1.22563(13) 0.23362(9) -0.1688(3)
C3B C 1.25642(13) 0.18260(9) -0.1704(3)
C4B C 1.24834(13) 0.13527(9) 0.0080(3)
C5B C 1.22499(14) 0.15485(10) 0.1993(3)
C6B C 1.19320(14) 0.20487(10) 0.2006(3)
H1B H 1.2285(16) 0.2641(12) -0.304(3)
H2B H 1.2790(18) 0.1775(12) -0.312(3)
H3B H 1.2198(17) 0.1260(12) 0.339(3)
H4B H 1.1686(17) 0.2077(12) 0.334(3)
C1I C 1.23728(8) 0.05342(9) -0.0112(3)
C2I C 1.23362(9) 0.00799(10) 0.1688(3)
C3I C 1.18260(9) -0.07382(10) 0.1704(3)
C4I C 1.13527(9) -0.11307(9) -0.0080(3)
C5I C 1.15485(10) -0.07014(10) -0.1993(3)
C6I C 1.20487(10) 0.01167(10) -0.2006(3)
H1I H 1.2641(12) 0.0356(11) 0.304(3)
H2I H 1.1775(12) -0.1015(13) 0.312(3)
H3I H 1.1260(12) -0.0938(12) -0.339(3)
H4I H 1.2077(12) 0.0391(12) -0.334(3)
C1 C 0.76272(8) -0.05342(9) 1.0112(3)
C2 C 0.76638(9) -0.00799(10) 0.8312(3)
C3 C 0.81740(9) 0.07382(10) 0.8296(3)
C4 C 0.86473(9) 0.11307(9) 1.0080(3)
C5 C 0.84515(10) 0.07014(10) 1.1993(3)
C6 C 0.79513(10) -0.01167(10) 1.2006(3)
H1 H 0.7359(12) -0.0356(11) 0.696(3)
H2 H 0.8225(12) 0.1015(13) 0.688(3)
H3 H 0.8740(12) 0.0938(12) 1.339(3)
H4 H 0.7923(12) -0.0391(12) 1.334(3)
C1J C 0.94658(9) 0.18386(12) 0.9888(3)
C2J C 0.99201(10) 0.22563(13) 1.1688(3)
C3J C 1.07382(10) 0.25642(13) 1.1704(3)
C4J C 1.11307(9) 0.24834(13) 0.9920(3)
C5J C 1.07014(10) 0.22499(14) 0.8007(3)
C6J C 0.98833(10) 0.19320(14) 0.7994(3)
H1J H 0.9644(11) 0.2285(16) 1.304(3)
H2J H 1.1015(13) 0.2790(18) 1.312(3)
H3J H 1.0938(12) 0.2198(17) 0.661(3)
H4J H 0.9609(12) 0.1686(17) 0.666(3)
C1K C 0.81614(12) -0.23728(8) 0.9888(3)
C2K C 0.77437(13) -0.23362(9) 1.1688(3)
C3K C 0.74358(13) -0.18260(9) 1.1704(3)
C4K C 0.75166(13) -0.13527(9) 0.9920(3)
C5K C 0.77501(14) -0.15485(10) 0.8007(3)
C6K C 0.80680(14) -0.20487(10) 0.7994(3)
H1K H 0.7715(16) -0.2641(12) 1.304(3)
H2K H 0.7210(18) -0.1775(12) 1.312(3)
H3K H 0.7802(17) -0.1260(12) 0.661(3)
H4K H 0.8314(17) -0.2077(12) 0.666(3)
C1A C 1.05342(9) -0.18386(12) 1.0112(3)
C2A C 1.00799(10) -0.22563(13) 0.8312(3)
C3A C 0.92618(10) -0.25642(13) 0.8296(3)
C4A C 0.88693(9) -0.24834(13) 1.0080(3)
C5A C 0.92986(10) -0.22499(14) 1.1993(3)
C6A C 1.01167(10) -0.19320(14) 1.2006(3)
H1A H 1.0356(11) -0.2285(16) 0.696(3)
H2A H 0.8985(13) -0.2790(18) 0.688(3)
H3A H 0.9062(12) -0.2198(17) 1.339(3)
H4A H 1.0391(12) -0.1686(17) 1.334(3)
C1B C 1.18386(12) 0.23728(8) 1.0112(3)
C2B C 1.22563(13) 0.23362(9) 0.8312(3)
C3B C 1.25642(13) 0.18260(9) 0.8296(3)
C4B C 1.24834(13) 0.13527(9) 1.0080(3)
C5B C 1.22499(14) 0.15485(10) 1.1993(3)
C6B C 1.19320(14) 0.20487(10) 1.2006(3)
H1B H 1.2285(16) 0.2641(12) 0.696(3)
H2B H 1.2790(18) 0.1775(12) 0.688(3)
H3B H 1.2198(17) 0.1260(12) 1.339(3)
H4B H 1.1686(17) 0.2077(12) 1.334(3)
C1I C 1.23728(8) 0.05342(9) 0.9888(3)
C2I C 1.23362(9) 0.00799(10) 1.1688(3)
C3I C 1.18260(9) -0.07382(10) 1.1704(3)
C4I C 1.13527(9) -0.11307(9) 0.9920(3)
C5I C 1.15485(10) -0.07014(10) 0.8007(3)
C6I C 1.20487(10) 0.01167(10) 0.7994(3)
H1I H 1.2641(12) 0.0356(11) 1.304(3)
H2I H 1.1775(12) -0.1015(13) 1.312(3)
H3I H 1.1260(12) -0.0938(12) 0.661(3)
H4I H 1.2077(12) 0.0391(12) 0.666(3)
C1 C 0.76272(8) 0.94658(9) 0.0112(3)
C2 C 0.76638(9) 0.99201(10) -0.1688(3)
C3 C 0.81740(9) 1.07382(10) -0.1704(3)
C4 C 0.86473(9) 1.11307(9) 0.0080(3)
C5 C 0.84515(10) 1.07014(10) 0.1993(3)
C6 C 0.79513(10) 0.98833(10) 0.2006(3)
H1 H 0.7359(12) 0.9644(11) -0.304(3)
H2 H 0.8225(12) 1.1015(13) -0.312(3)
H3 H 0.8740(12) 1.0938(12) 0.339(3)
H4 H 0.7923(12) 0.9609(12) 0.334(3)
C1J C 0.94658(9) 1.18386(12) -0.0112(3)
C2J C 0.99201(10) 1.22563(13) 0.1688(3)
C3J C 1.07382(10) 1.25642(13) 0.1704(3)
C4J C 1.11307(9) 1.24834(13) -0.0080(3)
C5J C 1.07014(10) 1.22499(14) -0.1993(3)
C6J C 0.98833(10) 1.19320(14) -0.2006(3)
H1J H 0.9644(11) 1.2285(16) 0.304(3)
H2J H 1.1015(13) 1.2790(18) 0.312(3)
H3J H 1.0938(12) 1.2198(17) -0.339(3)
H4J H 0.9609(12) 1.1686(17) -0.334(3)
C1K C 0.81614(12) 0.76272(8) -0.0112(3)
C2K C 0.77437(13) 0.76638(9) 0.1688(3)
C3K C 0.74358(13) 0.81740(9) 0.1704(3)
C4K C 0.75166(13) 0.86473(9) -0.0080(3)
C5K C 0.77501(14) 0.84515(10) -0.1993(3)
C6K C 0.80680(14) 0.79513(10) -0.2006(3)
H1K H 0.7715(16) 0.7359(12) 0.304(3)
H2K H 0.7210(18) 0.8225(12) 0.312(3)
H3K H 0.7802(17) 0.8740(12) -0.339(3)
H4K H 0.8314(17) 0.7923(12) -0.334(3)
C1A C 1.05342(9) 0.81614(12) 0.0112(3)
C2A C 1.00799(10) 0.77437(13) -0.1688(3)
C3A C 0.92618(10) 0.74358(13) -0.1704(3)
C4A C 0.88693(9) 0.75166(13) 0.0080(3)
C5A C 0.92986(10) 0.77501(14) 0.1993(3)
C6A C 1.01167(10) 0.80680(14) 0.2006(3)
H1A H 1.0356(11) 0.7715(16) -0.304(3)
H2A H 0.8985(13) 0.7210(18) -0.312(3)
H3A H 0.9062(12) 0.7802(17) 0.339(3)
H4A H 1.0391(12) 0.8314(17) 0.334(3)
C1B C 1.18386(12) 1.23728(8) 0.0112(3)
C2B C 1.22563(13) 1.23362(9) -0.1688(3)
C3B C 1.25642(13) 1.18260(9) -0.1704(3)
C4B C 1.24834(13) 1.13527(9) 0.0080(3)
C5B C 1.22499(14) 1.15485(10) 0.1993(3)
C6B C 1.19320(14) 1.20487(10) 0.2006(3)
H1B H 1.2285(16) 1.2641(12) -0.304(3)
H2B H 1.2790(18) 1.1775(12) -0.312(3)
H3B H 1.2198(17) 1.1260(12) 0.339(3)
H4B H 1.1686(17) 1.2077(12) 0.334(3)
C1I C 1.23728(8) 1.05342(9) -0.0112(3)
C2I C 1.23362(9) 1.00799(10) 0.1688(3)
C3I C 1.18260(9) 0.92618(10) 0.1704(3)
C4I C 1.13527(9) 0.88693(9) -0.0080(3)
C5I C 1.15485(10) 0.92986(10) -0.1993(3)
C6I C 1.20487(10) 1.01167(10) -0.2006(3)
H1I H 1.2641(12) 1.0356(11) 0.304(3)
H2I H 1.1775(12) 0.8985(13) 0.312(3)
H3I H 1.1260(12) 0.9062(12) -0.339(3)
H4I H 1.2077(12) 1.0391(12) -0.334(3)
C1 C 0.76272(8) 0.94658(9) 1.0112(3)
C2 C 0.76638(9) 0.99201(10) 0.8312(3)
C3 C 0.81740(9) 1.07382(10) 0.8296(3)
C4 C 0.86473(9) 1.11307(9) 1.0080(3)
C5 C 0.84515(10) 1.07014(10) 1.1993(3)
C6 C 0.79513(10) 0.98833(10) 1.2006(3)
H1 H 0.7359(12) 0.9644(11) 0.696(3)
H2 H 0.8225(12) 1.1015(13) 0.688(3)
H3 H 0.8740(12) 1.0938(12) 1.339(3)
H4 H 0.7923(12) 0.9609(12) 1.334(3)
C1J C 0.94658(9) 1.18386(12) 0.9888(3)
C2J C 0.99201(10) 1.22563(13) 1.1688(3)
C3J C 1.07382(10) 1.25642(13) 1.1704(3)
C4J C 1.11307(9) 1.24834(13) 0.9920(3)
C5J C 1.07014(10) 1.22499(14) 0.8007(3)
C6J C 0.98833(10) 1.19320(14) 0.7994(3)
H1J H 0.9644(11) 1.2285(16) 1.304(3)
H2J H 1.1015(13) 1.2790(18) 1.312(3)
H3J H 1.0938(12) 1.2198(17) 0.661(3)
H4J H 0.9609(12) 1.1686(17) 0.666(3)
C1K C 0.81614(12) 0.76272(8) 0.9888(3)
C2K C 0.77437(13) 0.76638(9) 1.1688(3)
C3K C 0.74358(13) 0.81740(9) 1.1704(3)
C4K C 0.75166(13) 0.86473(9) 0.9920(3)
C5K C 0.77501(14) 0.84515(10) 0.8007(3)
C6K C 0.80680(14) 0.79513(10) 0.7994(3)
H1K H 0.7715(16) 0.7359(12) 1.304(3)
H2K H 0.7210(18) 0.8225(12) 1.312(3)
H3K H 0.7802(17) 0.8740(12) 0.661(3)
H4K H 0.8314(17) 0.7923(12) 0.666(3)
C1A C 1.05342(9) 0.81614(12) 1.0112(3)
C2A C 1.00799(10) 0.77437(13) 0.8312(3)
C3A C 0.92618(10) 0.74358(13) 0.8296(3)
C4A C 0.88693(9) 0.75166(13) 1.0080(3)
C5A C 0.92986(10) 0.77501(14) 1.1993(3)
C6A C 1.01167(10) 0.80680(14) 1.2006(3)
H1A H 1.0356(11) 0.7715(16) 0.696(3)
H2A H 0.8985(13) 0.7210(18) 0.688(3)
H3A H 0.9062(12) 0.7802(17) 1.339(3)
H4A H 1.0391(12) 0.8314(17) 1.334(3)
C1B C 1.18386(12) 1.23728(8) 1.0112(3)
C2B C 1.22563(13) 1.23362(9) 0.8312(3)
C3B C 1.25642(13) 1.18260(9) 0.8296(3)
C4B C 1.24834(13) 1.13527(9) 1.0080(3)
C5B C 1.22499(14) 1.15485(10) 1.1993(3)
C6B C 1.19320(14) 1.20487(10) 1.2006(3)
H1B H 1.2285(16) 1.2641(12) 0.696(3)
H2B H 1.2790(18) 1.1775(12) 0.688(3)
H3B H 1.2198(17) 1.1260(12) 1.339(3)
H4B H 1.1686(17) 1.2077(12) 1.334(3)
C1I C 1.23728(8) 1.05342(9) 0.9888(3)
C2I C 1.23362(9) 1.00799(10) 1.1688(3)
C3I C 1.18260(9) 0.92618(10) 1.1704(3)
C4I C 1.13527(9) 0.88693(9) 0.9920(3)
C5I C 1.15485(10) 0.92986(10) 0.8007(3)
C6I C 1.20487(10) 1.01167(10) 0.7994(3)
H1I H 1.2641(12) 1.0356(11) 1.304(3)
H2I H 1.1775(12) 0.8985(13) 1.312(3)
H3I H 1.1260(12) 0.9062(12) 0.661(3)
H4I H 1.2077(12) 1.0391(12) 0.666(3)
C1 C 0.42939(8) 0.27991(9) 0.3445(3)
C2 C 0.43305(9) 0.32534(10) 0.1645(3)
C3 C 0.48407(9) 0.40715(10) 0.1629(3)
C4 C 0.53140(9) 0.44640(9) 0.3413(3)
C5 C 0.51182(10) 0.40347(10) 0.5326(3)
C6 C 0.46180(10) 0.32166(10) 0.5339(3)
H1 H 0.4026(12) 0.2977(11) 0.029(3)
H2 H 0.4892(12) 0.4348(13) 0.021(3)
H3 H 0.5407(12) 0.4271(12) 0.672(3)
H4 H 0.4590(12) 0.2942(12) 0.667(3)
C1J C 0.61325(9) 0.51719(12) 0.3221(3)
C2J C 0.65868(10) 0.55896(13) 0.5021(3)
C3J C 0.74049(10) 0.58975(13) 0.5037(3)
C4J C 0.77974(9) 0.58167(13) 0.3253(3)
C5J C 0.73681(10) 0.55832(14) 0.1340(3)
C6J C 0.65500(10) 0.52653(14) 0.1327(3)
H1J H 0.6311(11) 0.5618(16) 0.637(3)
H2J H 0.7682(13) 0.6123(18) 0.645(3)
H3J H 0.7605(12) 0.5531(17) -0.006(3)
H4J H 0.6276(12) 0.5019(17) -0.001(3)
C1K C 0.48281(12) 0.09605(8) 0.3221(3)
C2K C 0.44104(13) 0.09971(9) 0.5021(3)
C3K C 0.41025(13) 0.15073(9) 0.5037(3)
C4K C 0.41833(13) 0.19806(9) 0.3253(3)
C5K C 0.44168(14) 0.17848(10) 0.1340(3)
C6K C 0.47347(14) 0.12846(10) 0.1327(3)
H1K H 0.4382(16) 0.0692(12) 0.637(3)
H2K H 0.3877(18) 0.1558(12) 0.645(3)
H3K H 0.4469(17) 0.2073(12) -0.006(3)
H4K H 0.4981(17) 0.1256(12) -0.001(3)
C1A C 0.72009(9) 0.14947(12) 0.3445(3)
C2A C 0.67466(10) 0.10770(13) 0.1645(3)
C3A C 0.59285(10) 0.07691(13) 0.1629(3)
C4A C 0.55360(9) 0.08499(13) 0.3413(3)
C5A C 0.59653(10) 0.10834(14) 0.5326(3)
C6A C 0.67834(10) 0.14013(14) 0.5339(3)
H1A H 0.7023(11) 0.1048(16) 0.029(3)
H2A H 0.5652(13) 0.0543(18) 0.021(3)
H3A H 0.5729(12) 0.1135(17) 0.672(3)
H4A H 0.7058(12) 0.1647(17) 0.667(3)
C1B C 0.85053(12) 0.57061(8) 0.3445(3)
C2B C 0.89230(13) 0.56695(9) 0.1645(3)
C3B C 0.92309(13) 0.51593(9) 0.1629(3)
C4B C 0.91501(13) 0.46860(9) 0.3413(3)
C5B C 0.89166(14) 0.48818(10) 0.5326(3)
C6B C 0.85987(14) 0.53820(10) 0.5339(3)
H1B H 0.8952(16) 0.5974(12) 0.029(3)
H2B H 0.9457(18) 0.5108(12) 0.021(3)
H3B H 0.8865(17) 0.4593(12) 0.672(3)
H4B H 0.8353(17) 0.5410(12) 0.667(3)
C1I C 0.90395(8) 0.38675(9) 0.3221(3)
C2I C 0.90029(9) 0.34132(10) 0.5021(3)
C3I C 0.84927(9) 0.25951(10) 0.5037(3)
C4I C 0.80194(9) 0.22026(9) 0.3253(3)
C5I C 0.82152(10) 0.26319(10) 0.1340(3)
C6I C 0.87154(10) 0.34500(10) 0.1327(3)
H1I H 0.9308(12) 0.3689(11) 0.637(3)
H2I H 0.8442(12) 0.2318(13) 0.645(3)
H3I H 0.7927(12) 0.2395(12) -0.006(3)
H4I H 0.8744(12) 0.3724(12) -0.001(3)
C1 C 0.09605(8) 0.61325(9) 0.6779(3)
C2 C 0.09971(9) 0.65868(10) 0.4979(3)
C3 C 0.15073(9) 0.74049(10) 0.4963(3)
C4 C 0.19806(9) 0.77974(9) 0.6747(3)
C5 C 0.17848(10) 0.73681(10) 0.8660(3)
C6 C 0.12846(10) 0.65500(10) 0.8673(3)
H1 H 0.0692(12) 0.6311(11) 0.363(3)
H2 H 0.1558(12) 0.7682(13) 0.355(3)
H3 H 0.2073(12) 0.7605(12) 1.006(3)
H4 H 0.1256(12) 0.6276(12) 1.001(3)
C1J C 0.27991(9) 0.85053(12) 0.6555(3)
C2J C 0.32534(10) 0.89230(13) 0.8355(3)
C3J C 0.40715(10) 0.92309(13) 0.8371(3)
C4J C 0.44640(9) 0.91501(13) 0.6587(3)
C5J C 0.40347(10) 0.89166(14) 0.4674(3)
C6J C 0.32166(10) 0.85987(14) 0.4661(3)
H1J H 0.2977(11) 0.8952(16) 0.971(3)
H2J H 0.4348(13) 0.9457(18) 0.979(3)
H3J H 0.4271(12) 0.8865(17) 0.328(3)
H4J H 0.2942(12) 0.8353(17) 0.333(3)
C1K C 0.14947(12) 0.42939(8) 0.6555(3)
C2K C 0.10770(13) 0.43305(9) 0.8355(3)
C3K C 0.07691(13) 0.48407(9) 0.8371(3)
C4K C 0.08499(13) 0.53140(9) 0.6587(3)
C5K C 0.10834(14) 0.51182(10) 0.4674(3)
C6K C 0.14013(14) 0.46180(10) 0.4661(3)
H1K H 0.1048(16) 0.4026(12) 0.971(3)
H2K H 0.0543(18) 0.4892(12) 0.979(3)
H3K H 0.1135(17) 0.5407(12) 0.328(3)
H4K H 0.1647(17) 0.4590(12) 0.333(3)
C1A C 0.38675(9) 0.48281(12) 0.6779(3)
C2A C 0.34132(10) 0.44104(13) 0.4979(3)
C3A C 0.25951(10) 0.41025(13) 0.4963(3)
C4A C 0.22026(9) 0.41833(13) 0.6747(3)
C5A C 0.26319(10) 0.44168(14) 0.8660(3)
C6A C 0.34500(10) 0.47347(14) 0.8673(3)
H1A H 0.3689(11) 0.4382(16) 0.363(3)
H2A H 0.2318(13) 0.3877(18) 0.355(3)
H3A H 0.2395(12) 0.4469(17) 1.006(3)
H4A H 0.3724(12) 0.4981(17) 1.001(3)
C1B C 0.51719(12) 0.90395(8) 0.6779(3)
C2B C 0.55896(13) 0.90029(9) 0.4979(3)
C3B C 0.58975(13) 0.84927(9) 0.4963(3)
C4B C 0.58167(13) 0.80194(9) 0.6747(3)
C5B C 0.55832(14) 0.82152(10) 0.8660(3)
C6B C 0.52653(14) 0.87154(10) 0.8673(3)
H1B H 0.5618(16) 0.9308(12) 0.363(3)
H2B H 0.6123(18) 0.8442(12) 0.355(3)
H3B H 0.5531(17) 0.7927(12) 1.006(3)
H4B H 0.5019(17) 0.8744(12) 1.001(3)
C1I C 0.57061(8) 0.72009(9) 0.6555(3)
C2I C 0.56695(9) 0.67466(10) 0.8355(3)
C3I C 0.51593(9) 0.59285(10) 0.8371(3)
C4I C 0.46860(9) 0.55360(9) 0.6587(3)
C5I C 0.48818(10) 0.59653(10) 0.4674(3)
C6I C 0.53820(10) 0.67834(10) 0.4661(3)
H1I H 0.5974(12) 0.7023(11) 0.971(3)
H2I H 0.5108(12) 0.5652(13) 0.979(3)
H3I H 0.4593(12) 0.5729(12) 0.328(3)
H4I H 0.5410(12) 0.7058(12) 0.333(3)
N1? N 0.76638(9) -0.00799(10) -0.1688(3)
N2? N 0.81740(9) 0.07382(10) -0.1704(3)
N3? N 0.84515(10) 0.07014(10) 0.1993(3)
N4? N 0.79513(10) -0.01167(10) 0.2006(3)
N1? N 1.00799(10) 0.77437(13) -0.1688(3)
N2? N 0.92618(10) 0.74358(13) -0.1704(3)
N3? N 0.92986(10) 0.77501(14) 0.1993(3)
N4? N 1.01167(10) 0.80680(14) 0.2006(3)
N1? N 0.22563(13) 0.23362(9) -0.1688(3)
N2? N 0.25642(13) 0.18260(9) -0.1704(3)
N3? N 0.22499(14) 0.15485(10) 0.1993(3)
N4? N 0.19320(14) 0.20487(10) 0.2006(3)
N1? N 0.43305(9) 0.32534(10) 0.1645(3)
N2? N 0.48407(9) 0.40715(10) 0.1629(3)
N3? N 0.51182(10) 0.40347(10) 0.5326(3)
N4? N 0.46180(10) 0.32166(10) 0.5339(3)
N1? N 0.67466(10) 0.10770(13) 0.1645(3)
N2? N 0.59285(10) 0.07691(13) 0.1629(3)
N3? N 0.59653(10) 0.10834(14) 0.5326(3)
N4? N 0.67834(10) 0.14013(14) 0.5339(3)
N1? N 0.89230(13) 0.56695(9) 0.1645(3)
N2? N 0.92309(13) 0.51593(9) 0.1629(3)
N3? N 0.89166(14) 0.48818(10) 0.5326(3)
N4? N 0.85987(14) 0.53820(10) 0.5339(3)
N1? N 0.09971(9) 0.65868(10) 0.4979(3)
N2? N 0.15073(9) 0.74049(10) 0.4963(3)
N3? N 0.17848(10) 0.73681(10) 0.8660(3)
N4? N 0.12846(10) 0.65500(10) 0.8673(3)
N1? N 0.34132(10) 0.44104(13) 0.4979(3)
N2? N 0.25951(10) 0.41025(13) 0.4963(3)
N3? N 0.26319(10) 0.44168(14) 0.8660(3)
N4? N 0.34500(10) 0.47347(14) 0.8673(3)
N1? N 0.55896(13) 0.90029(9) 0.4979(3)
N2? N 0.58975(13) 0.84927(9) 0.4963(3)
N3? N 0.55832(14) 0.82152(10) 0.8660(3)
N4? N 0.52653(14) 0.87154(10) 0.8673(3)
N1? N 0.23362(9) 1.00799(10) 1.1688(3)
N2? N 0.18260(9) 0.92618(10) 1.1704(3)
N3? N 0.15485(10) 0.92986(10) 0.8007(3)
N4? N 0.20487(10) 1.01167(10) 0.7994(3)
N1? N -0.00799(10) 0.22563(13) 1.1688(3)
N2? N 0.07382(10) 0.25642(13) 1.1704(3)
N3? N 0.07014(10) 0.22499(14) 0.8007(3)
N4? N -0.01167(10) 0.19320(14) 0.7994(3)
N1? N 0.77437(13) 0.76638(9) 1.1688(3)
N2? N 0.74358(13) 0.81740(9) 1.1704(3)
N3? N 0.77501(14) 0.84515(10) 0.8007(3)
N4? N 0.80680(14) 0.79513(10) 0.7994(3)
N1? N 0.56695(9) 0.67466(10) 0.8355(3)
N2? N 0.51593(9) 0.59285(10) 0.8371(3)
N3? N 0.48818(10) 0.59653(10) 0.4674(3)
N4? N 0.53820(10) 0.67834(10) 0.4661(3)
N1? N 0.32534(10) 0.89230(13) 0.8355(3)
N2? N 0.40715(10) 0.92309(13) 0.8371(3)
N3? N 0.40347(10) 0.89166(14) 0.4674(3)
N4? N 0.32166(10) 0.85987(14) 0.4661(3)
N1? N 0.10770(13) 0.43305(9) 0.8355(3)
N2? N 0.07691(13) 0.48407(9) 0.8371(3)
N3? N 0.10834(14) 0.51182(10) 0.4674(3)
N4? N 0.14013(14) 0.46180(10) 0.4661(3)
N1? N 0.90029(9) 0.34132(10) 0.5021(3)
N2? N 0.84927(9) 0.25951(10) 0.5037(3)
N3? N 0.82152(10) 0.26319(10) 0.1340(3)
N4? N 0.87154(10) 0.34500(10) 0.1327(3)
N1? N 0.65868(10) 0.55896(13) 0.5021(3)
N2? N 0.74049(10) 0.58975(13) 0.5037(3)
N3? N 0.73681(10) 0.55832(14) 0.1340(3)
N4? N 0.65500(10) 0.52653(14) 0.1327(3)
N1? N 0.44104(13) 0.09971(9) 0.5021(3)
N2? N 0.41025(13) 0.15073(9) 0.5037(3)
N3? N 0.44168(14) 0.17848(10) 0.1340(3)
N4? N 0.47347(14) 0.12846(10) 0.1327(3)

#END
