./LAFTAP_from_xyz.cif_generated_by_CrystalShift
_symmetry_cell_setting triclinic
_symmetry_space_group_name_H-M 'P 1'
loop_
_symmetry_equiv_pos_site_id
_symmetry_equiv_pos_as_xyz
1 x,y,z
_cell_length_a 8.683700
_cell_length_b 9.177700
_cell_length_c 12.766600
_cell_angle_alpha 100.399000
_cell_angle_beta 108.776000
_cell_angle_gamma 102.207000
_cell_volume 906.926891
loop_
_atom_site_label
_atom_site_type_symbol
_atom_site_fract_x
_atom_site_fract_y
_atom_site_fract_z
S1 S 0.865980 0.754110 0.207440
O2 O 0.731000 0.671500 0.383840
O3 O 0.723400 0.857150 0.522310
N4 N 0.811400 1.080180 0.425650
C5 C 0.803640 0.934990 0.378870
C6 C 0.846240 0.920920 0.279480
C7 C 0.888440 1.074580 0.266520
C8 C 0.945920 1.144640 0.191550
H9 H 0.963600 1.084700 0.129900
C10 C 0.976110 1.303160 0.209630
H11 H 1.016100 1.352200 0.160000
C12 C 0.948780 1.393460 0.300060
H13 H 0.969800 1.501900 0.310000
C14 C 0.891960 1.326550 0.374250
H15 H 0.872900 1.387600 0.434700
C16 C 0.862870 1.166410 0.358650
C17 C 0.750480 0.806240 0.426850
C18 C 0.663380 0.741100 0.575100
H19 H 0.702000 0.786900 0.658900
H20 H 0.712100 0.654100 0.562900
C21 C 0.472040 0.681450 0.524080
H22 H 0.434200 0.633400 0.441600
H23 H 0.424000 0.767600 0.536100
H24 H 0.433600 0.604600 0.561400
C25 C 1.072360 0.810180 0.200340
C26 C 1.205810 0.847590 0.305690
H27 H 1.184900 0.838900 0.373200
C28 C 1.370660 0.898070 0.309650
H29 H 1.463800 0.926000 0.381000
C30 C 1.400380 0.908050 0.210360
H31 H 1.513600 0.943400 0.214100
C32 C 1.265460 0.866650 0.105450
H33 H 1.286700 0.871500 0.037500
C34 C 1.099220 0.818070 0.099730
H35 H 1.006100 0.790900 0.028500
C36 C 0.725930 0.703640 0.060480
C37 C 0.711740 0.560490 -0.007610
H38 H 0.777000 0.496500 0.023400
C39 C 0.600330 0.513240 -0.121650
H40 H 0.591400 0.417500 -0.169800
C41 C 0.501700 0.605730 -0.165570
H42 H 0.425000 0.572300 -0.243400
C43 C 0.514890 0.746440 -0.096210
H44 H 0.446400 0.808500 -0.126500
C45 C 0.628410 0.797060 0.017810
H46 H 0.638800 0.893800 0.065500
S47 S 0.134020 0.245890 0.792560
O48 O 0.269000 0.328500 0.616160
O49 O 0.276600 0.142850 0.477690
N50 N 0.188600 -0.080180 0.574350
C51 C 0.196360 0.065010 0.621130
C52 C 0.153760 0.079080 0.720520
C53 C 0.111560 -0.074580 0.733480
C54 C 0.054080 -0.144640 0.808450
H55 H 0.036400 -0.084700 0.870100
C56 C 0.023890 -0.303160 0.790370
H57 H -0.016100 -0.352200 0.840000
C58 C 0.051220 -0.393460 0.699940
H59 H 0.030200 -0.501900 0.690000
C60 C 0.108040 -0.326550 0.625750
H61 H 0.127100 -0.387600 0.565300
C62 C 0.137130 -0.166410 0.641350
C63 C 0.249520 0.193760 0.573150
C64 C 0.336620 0.258900 0.424900
H65 H 0.298000 0.213100 0.341100
H66 H 0.287900 0.345900 0.437100
C67 C 0.527960 0.318550 0.475920
H68 H 0.565800 0.366600 0.558400
H69 H 0.576000 0.232400 0.463900
H70 H 0.566400 0.395400 0.438600
C71 C -0.072360 0.189820 0.799660
C72 C -0.205810 0.152410 0.694310
H73 H -0.184900 0.161100 0.626800
C74 C -0.370660 0.101930 0.690350
H75 H -0.463800 0.074000 0.619000
C76 C -0.400380 0.091950 0.789640
H77 H -0.513600 0.056600 0.785900
C78 C -0.265460 0.133350 0.894550
H79 H -0.286700 0.128500 0.962500
C80 C -0.099220 0.181930 0.900270
H81 H -0.006100 0.209100 0.971500
C82 C 0.274070 0.296360 0.939520
C83 C 0.288260 0.439510 1.007610
H84 H 0.223000 0.503500 0.976600
C85 C 0.399670 0.486760 1.121650
H86 H 0.408600 0.582500 1.169800
C87 C 0.498300 0.394270 1.165570
H88 H 0.575000 0.427700 1.243400
C89 C 0.485110 0.253560 1.096210
H90 H 0.553600 0.191500 1.126500
C91 C 0.371590 0.202940 0.982190
H92 H 0.361200 0.106200 0.934500

#END
