./LAFTET_from_xyz.cif_generated_by_CrystalShift
_symmetry_cell_setting triclinic
_symmetry_space_group_name_H-M 'P 1'
loop_
_symmetry_equiv_pos_site_id
_symmetry_equiv_pos_as_xyz
1 x,y,z
_cell_length_a 10.949000
_cell_length_b 11.234000
_cell_length_c 12.420000
_cell_angle_alpha 90.000000
_cell_angle_beta 90.000000
_cell_angle_gamma 90.000000
_cell_volume 1527.673240
loop_
_atom_site_label
_atom_site_type_symbol
_atom_site_fract_x
_atom_site_fract_y
_atom_site_fract_z
C1 C 0.191680 0.098990 0.482920
C2 C 0.185010 0.003560 0.555290
H3 H 0.131000 -0.005900 0.614500
C4 C 0.274980 -0.073530 0.520780
H5 H 0.295900 -0.148200 0.551600
C6 C 0.329850 -0.019110 0.430230
C7 C 0.425560 -0.066690 0.360930
C8 C 0.544390 -0.236130 0.320580
H9 H 0.523900 -0.222200 0.244800
H10 H 0.545400 -0.321900 0.334900
H11 H 0.625100 -0.202600 0.336000
C12 C 0.017370 0.232660 0.364110
C13 C 0.037380 0.150970 0.282260
H14 H 0.096800 0.090000 0.289900
C15 C -0.031690 0.160620 0.188980
H16 H -0.020200 0.104900 0.132300
C17 C -0.116980 0.250400 0.177630
H18 H -0.163100 0.256700 0.113100
C19 C -0.135360 0.331410 0.260520
H20 H -0.193800 0.393300 0.252300
C21 C -0.068780 0.322440 0.355340
H22 H -0.082000 0.376600 0.412900
C23 C 0.191330 0.348900 0.493700
C24 C 0.255500 0.384220 0.403520
H25 H 0.246600 0.342900 0.337300
C26 C 0.333050 0.481080 0.411540
H27 H 0.376600 0.507800 0.350000
C28 C 0.347410 0.539260 0.509350
H29 H 0.400900 0.605600 0.514600
C30 C 0.284210 0.500960 0.599050
H31 H 0.295300 0.540300 0.666000
C32 C 0.204480 0.405030 0.591720
H33 H 0.160000 0.378700 0.652900
N34 N 0.278860 0.088620 0.406880
O35 O 0.454690 -0.179990 0.388070
O36 O 0.473920 -0.015730 0.286180
S37 S 0.094010 0.220910 0.491640
C38 C 0.308320 0.901010 0.982920
C39 C 0.314990 0.996440 1.055290
H40 H 0.369000 1.005900 1.114500
C41 C 0.225020 1.073530 1.020780
H42 H 0.204100 1.148200 1.051600
C43 C 0.170150 1.019110 0.930230
C44 C 0.074440 1.066690 0.860930
C45 C -0.044390 1.236130 0.820580
H46 H -0.023900 1.222200 0.744800
H47 H -0.045400 1.321900 0.834900
H48 H -0.125100 1.202600 0.836000
C49 C 0.482630 0.767340 0.864110
C50 C 0.462620 0.849030 0.782260
H51 H 0.403200 0.910000 0.789900
C52 C 0.531690 0.839380 0.688980
H53 H 0.520200 0.895100 0.632300
C54 C 0.616980 0.749600 0.677630
H55 H 0.663100 0.743300 0.613100
C56 C 0.635360 0.668590 0.760520
H57 H 0.693800 0.606700 0.752300
C58 C 0.568780 0.677560 0.855340
H59 H 0.582000 0.623400 0.912900
C60 C 0.308670 0.651100 0.993700
C61 C 0.244500 0.615780 0.903520
H62 H 0.253400 0.657100 0.837300
C63 C 0.166950 0.518920 0.911540
H64 H 0.123400 0.492200 0.850000
C65 C 0.152590 0.460740 1.009350
H66 H 0.099100 0.394400 1.014600
C67 C 0.215790 0.499040 1.099050
H68 H 0.204700 0.459700 1.166000
C69 C 0.295520 0.594970 1.091720
H70 H 0.340000 0.621300 1.152900
N71 N 0.221140 0.911380 0.906880
O72 O 0.045310 1.179990 0.888070
O73 O 0.026080 1.015730 0.786180
S74 S 0.405990 0.779090 0.991640
C75 C 0.808320 0.598990 0.017080
C76 C 0.814990 0.503560 -0.055290
H77 H 0.869000 0.494100 -0.114500
C78 C 0.725020 0.426470 -0.020780
H79 H 0.704100 0.351800 -0.051600
C80 C 0.670150 0.480890 0.069770
C81 C 0.574440 0.433310 0.139070
C82 C 0.455610 0.263870 0.179420
H83 H 0.476100 0.277800 0.255200
H84 H 0.454600 0.178100 0.165100
H85 H 0.374900 0.297400 0.164000
C86 C 0.982630 0.732660 0.135890
C87 C 0.962620 0.650970 0.217740
H88 H 0.903200 0.590000 0.210100
C89 C 1.031690 0.660620 0.311020
H90 H 1.020200 0.604900 0.367700
C91 C 1.116980 0.750400 0.322370
H92 H 1.163100 0.756700 0.386900
C93 C 1.135360 0.831410 0.239480
H94 H 1.193800 0.893300 0.247700
C95 C 1.068780 0.822440 0.144660
H96 H 1.082000 0.876600 0.087100
C97 C 0.808670 0.848900 0.006300
C98 C 0.744500 0.884220 0.096480
H99 H 0.753400 0.842900 0.162700
C100 C 0.666950 0.981080 0.088460
H101 H 0.623400 1.007800 0.150000
C102 C 0.652590 1.039260 -0.009350
H103 H 0.599100 1.105600 -0.014600
C104 C 0.715790 1.000960 -0.099050
H105 H 0.704700 1.040300 -0.166000
C106 C 0.795520 0.905030 -0.091720
H107 H 0.840000 0.878700 -0.152900
N108 N 0.721140 0.588620 0.093120
O109 O 0.545310 0.320010 0.111930
O110 O 0.526080 0.484270 0.213820
S111 S 0.905990 0.720910 0.008360
C112 C 0.691680 0.401010 0.517080
C113 C 0.685010 0.496440 0.444710
H114 H 0.631000 0.505900 0.385500
C115 C 0.774980 0.573530 0.479220
H116 H 0.795900 0.648200 0.448400
C117 C 0.829850 0.519110 0.569770
C118 C 0.925560 0.566690 0.639070
C119 C 1.044390 0.736130 0.679420
H120 H 1.023900 0.722200 0.755200
H121 H 1.045400 0.821900 0.665100
H122 H 1.125100 0.702600 0.664000
C123 C 0.517370 0.267340 0.635890
C124 C 0.537380 0.349030 0.717740
H125 H 0.596800 0.410000 0.710100
C126 C 0.468310 0.339380 0.811020
H127 H 0.479800 0.395100 0.867700
C128 C 0.383020 0.249600 0.822370
H129 H 0.336900 0.243300 0.886900
C130 C 0.364640 0.168590 0.739480
H131 H 0.306200 0.106700 0.747700
C132 C 0.431220 0.177560 0.644660
H133 H 0.418000 0.123400 0.587100
C134 C 0.691330 0.151100 0.506300
C135 C 0.755500 0.115780 0.596480
H136 H 0.746600 0.157100 0.662700
C137 C 0.833050 0.018920 0.588460
H138 H 0.876600 -0.007800 0.650000
C139 C 0.847410 -0.039260 0.490650
H140 H 0.900900 -0.105600 0.485400
C141 C 0.784210 -0.000960 0.400950
H142 H 0.795300 -0.040300 0.334000
C143 C 0.704480 0.094970 0.408280
H144 H 0.660000 0.121300 0.347100
N145 N 0.778860 0.411380 0.593120
O146 O 0.954690 0.679990 0.611930
O147 O 0.973920 0.515730 0.713820
S148 S 0.594010 0.279090 0.508360

#END
