
#######################################################################
#
#                 Cambridge Crystallographic Data Centre
#                                CCDC 
#
#######################################################################
#
# If this CIF has been generated from an entry in the Cambridge 
# Structural Database, then it will include bibliographic, chemical, 
# crystal, experimental, refinement or atomic coordinate data resulting 
# from the CCDC's data processing and validation procedures.
#
#######################################################################

data_LAFWOF
_symmetry_cell_setting           monoclinic
_symmetry_space_group_name_H-M   'P 21'
_symmetry_Int_Tables_number      4
_space_group_name_Hall           'P 2yb'
loop_
_symmetry_equiv_pos_site_id
_symmetry_equiv_pos_as_xyz
1 x,y,z
2 -x,1/2+y,-z
_cell_length_a                   11.118(4)
_cell_length_b                   5.564(2)
_cell_length_c                   15.194(5)
_cell_angle_alpha                90
_cell_angle_beta                 103.76(2)
_cell_angle_gamma                90
_cell_volume                     912.934
loop_
_atom_site_label
_atom_site_type_symbol
_atom_site_fract_x
_atom_site_fract_y
_atom_site_fract_z
O1 O 0.23688(13) 0.2411(3) 0.27058(9)
O2 O 0.26305(15) 0.5269(4) 0.42402(10)
O3 O 0.01913(16) 0.3485(5) 0.12145(13)
H1 H 0.061(3) 0.372(9) 0.172(2)
O4 O 0.68683(13) 0.4765(4) 0.08988(9)
O5 O 0.85832(15) 0.5988(4) 0.39230(10)
O6 O 0.90504(16) 0.8671(5) 0.29511(13)
N1 N 0.59171(14) 0.3878(4) 0.13678(10)
C1 C 0.43042(16) 0.3543(3) 0.25469(10)
C2 C 0.34115(16) 0.3770(4) 0.30422(11)
C3 C 0.35763(18) 0.5221(4) 0.38085(12)
C4 C 0.46937(19) 0.6435(5) 0.40644(12)
H2 H 0.4828 0.7473 0.4558
C5 C 0.56226(18) 0.6130(4) 0.35945(12)
H3 H 0.6371 0.6936 0.3794
C6 C 0.54586(16) 0.4653(3) 0.28366(11)
C7 C 0.64957(16) 0.4048(4) 0.23652(11)
H4 H 0.6863 0.2494 0.2585
C8 C 0.5609(2) 0.1448(5) 0.10148(14)
H5 H 0.6358 0.0489 0.1116
H6 H 0.5256 0.1527 0.0367
C9 C 0.4689(2) 0.0253(4) 0.14756(14)
H7 H 0.5144 -0.0525 0.2025
H8 H 0.4246 -0.0986 0.1078
C10 C 0.37404(17) 0.1988(3) 0.17191(11)
C11 C 0.31405(17) 0.3632(3) 0.09325(11)
H9 H 0.3660 0.4663 0.0713
C12 C 0.19468(17) 0.3715(4) 0.05372(12)
H10 H 0.1682 0.4833 0.0077
C13 C 0.0996(2) 0.2121(5) 0.07841(15)
H11 H 0.0483 0.1476 0.0218
C14 C 0.1589(2) 0.0000(4) 0.13474(18)
H12 H 0.1819 -0.1191 0.0951
H13 H 0.0987 -0.0728 0.1634
C15 C 0.2727(2) 0.0691(4) 0.20715(14)
H14 H 0.3078 -0.0753 0.2405
C16 C 0.2784(3) 0.6813(7) 0.50112(16)
H15 H 0.2074 0.6679 0.5265
H16 H 0.2867 0.8445 0.4829
H17 H 0.3514 0.6352 0.5457
C17 C 0.75188(17) 0.5859(4) 0.23731(13)
C18 C 0.76648(19) 0.6026(5) 0.15292(14)
H18 H 0.8285 0.6964 0.1387
C19 C 0.84091(18) 0.6796(5) 0.31656(15)
C20 C 1.0018(3) 0.9675(9) 0.3668(2)
H19 H 1.0143 1.1333 0.3539
H20 H 1.0774 0.8800 0.3707
H21 H 0.9781 0.9556 0.4234
O1 O 0.76312(13) 0.7411(3) 0.72942(9)
O2 O 0.73695(15) 1.0269(4) 0.57598(10)
O3 O 0.98087(16) 0.8485(5) 0.87855(13)
H1 H 0.939(3) 0.872(9) 0.828(2)
O4 O 0.31317(13) 0.9765(4) 0.91012(9)
O5 O 0.14168(15) 1.0988(4) 0.60770(10)
O6 O 0.09496(16) 1.3671(5) 0.70489(13)
N1 N 0.40829(14) 0.8878(4) 0.86322(10)
C1 C 0.56958(16) 0.8543(3) 0.74531(10)
C2 C 0.65885(16) 0.8770(4) 0.69578(11)
C3 C 0.64237(18) 1.0221(4) 0.61915(12)
C4 C 0.53063(19) 1.1435(5) 0.59356(12)
H2 H 0.5172 1.2473 0.5442
C5 C 0.43774(18) 1.1130(4) 0.64055(12)
H3 H 0.3629 1.1936 0.6206
C6 C 0.45414(16) 0.9653(3) 0.71634(11)
C7 C 0.35043(16) 0.9048(4) 0.76348(11)
H4 H 0.3137 0.7494 0.7415
C8 C 0.4391(2) 0.6448(5) 0.89852(14)
H5 H 0.3642 0.5489 0.8884
H6 H 0.4744 0.6527 0.9633
C9 C 0.5311(2) 0.5253(4) 0.85244(14)
H7 H 0.4856 0.4475 0.7975
H8 H 0.5754 0.4014 0.8922
C10 C 0.62596(17) 0.6988(3) 0.82809(11)
C11 C 0.68595(17) 0.8632(3) 0.90675(11)
H9 H 0.6340 0.9663 0.9287
C12 C 0.80532(17) 0.8715(4) 0.94628(12)
H10 H 0.8318 0.9833 0.9923
C13 C 0.9004(2) 0.7121(5) 0.92159(15)
H11 H 0.9517 0.6476 0.9782
C14 C 0.8411(2) 0.5000(4) 0.86526(18)
H12 H 0.8181 0.3809 0.9049
H13 H 0.9013 0.4272 0.8366
C15 C 0.7273(2) 0.5691(4) 0.79285(14)
H14 H 0.6922 0.4247 0.7595
C16 C 0.7216(3) 1.1813(7) 0.49888(16)
H15 H 0.7926 1.1679 0.4735
H16 H 0.7133 1.3445 0.5171
H17 H 0.6486 1.1352 0.4543
C17 C 0.24812(17) 1.0859(4) 0.76269(13)
C18 C 0.23352(19) 1.1026(5) 0.84708(14)
H18 H 0.1715 1.1964 0.8613
C19 C 0.15909(18) 1.1796(5) 0.68344(15)
C20 C -0.0018(3) 1.4675(9) 0.6332(2)
H19 H -0.0143 1.6333 0.6461
H20 H -0.0774 1.3800 0.6293
H21 H 0.0219 1.4556 0.5766

#END
