./LAFZAT_from_xyz.cif_generated_by_CrystalShift
_symmetry_cell_setting triclinic
_symmetry_space_group_name_H-M 'P 1'
loop_
_symmetry_equiv_pos_site_id
_symmetry_equiv_pos_as_xyz
1 x,y,z
_cell_length_a 13.786000
_cell_length_b 9.349000
_cell_length_c 7.146000
_cell_angle_alpha 90.000000
_cell_angle_beta 91.250000
_cell_angle_gamma 90.000000
_cell_volume 920.795220
loop_
_atom_site_label
_atom_site_type_symbol
_atom_site_fract_x
_atom_site_fract_y
_atom_site_fract_z
O1 O 0.138900 0.010600 0.875100
H2 H 0.116000 0.010000 0.737000
O3 O 0.028300 0.129600 1.147600
N4 N 0.299700 0.282300 1.057100
C5 C 0.308700 0.144300 0.629800
H6 H 0.351700 0.115000 0.535100
H7 H 0.332200 0.229700 0.686600
H8 H 0.246200 0.161100 0.575700
C9 C 0.327300 0.093900 0.807200
H10 H 0.304200 -0.001400 0.816900
H11 H 0.393700 0.097400 0.845800
C12 C 0.263600 0.170700 0.950000
C13 C 0.172600 0.123200 0.982500
C14 C 0.109700 0.178300 1.122300
C15 C 0.153500 0.293000 1.226600
H16 H 0.104000 0.335000 1.344000
C17 C 0.243100 0.338700 1.191300
H18 H 0.288000 0.420000 1.286000
C19 C 0.468500 0.248500 1.170300
H20 H 0.536200 0.265700 1.162400
H21 H 0.455000 0.152200 1.136600
H22 H 0.448500 0.265200 1.294800
C23 C 0.402100 0.331700 1.045800
H24 H 0.419500 0.325800 0.918100
H25 H 0.417000 0.424400 1.092500
O26 O 0.361100 0.510600 0.624900
H27 H 0.384000 0.510000 0.763000
O28 O 0.471700 0.629600 0.352400
N29 N 0.200300 0.782300 0.442900
C30 C 0.191300 0.644300 0.870200
H31 H 0.148300 0.615000 0.964900
H32 H 0.167800 0.729700 0.813400
H33 H 0.253800 0.661100 0.924300
C34 C 0.172700 0.593900 0.692800
H35 H 0.195800 0.498600 0.683100
H36 H 0.106300 0.597400 0.654200
C37 C 0.236400 0.670700 0.550000
C38 C 0.327400 0.623200 0.517500
C39 C 0.390300 0.678300 0.377700
C40 C 0.346500 0.793000 0.273400
H41 H 0.396000 0.835000 0.156000
C42 C 0.256900 0.838700 0.308700
H43 H 0.212000 0.920000 0.214000
C44 C 0.031500 0.748500 0.329700
H45 H -0.036200 0.765700 0.337600
H46 H 0.045000 0.652200 0.363400
H47 H 0.051500 0.765200 0.205200
C48 C 0.097900 0.831700 0.454200
H49 H 0.080500 0.825800 0.581900
H50 H 0.083000 0.924400 0.407500
O51 O 0.861100 0.989400 0.124900
H52 H 0.884000 0.990000 0.263000
O53 O 0.971700 0.870400 -0.147600
N54 N 0.700300 0.717700 -0.057100
C55 C 0.691300 0.855700 0.370200
H56 H 0.648300 0.885000 0.464900
H57 H 0.667800 0.770300 0.313400
H58 H 0.753800 0.838900 0.424300
C59 C 0.672700 0.906100 0.192800
H60 H 0.695800 1.001400 0.183100
H61 H 0.606300 0.902600 0.154200
C62 C 0.736400 0.829300 0.050000
C63 C 0.827400 0.876800 0.017500
C64 C 0.890300 0.821700 -0.122300
C65 C 0.846500 0.707000 -0.226600
H66 H 0.896000 0.665000 -0.344000
C67 C 0.756900 0.661300 -0.191300
H68 H 0.712000 0.580000 -0.286000
C69 C 0.531500 0.751500 -0.170300
H70 H 0.463800 0.734300 -0.162400
H71 H 0.545000 0.847800 -0.136600
H72 H 0.551500 0.734800 -0.294800
C73 C 0.597900 0.668300 -0.045800
H74 H 0.580500 0.674200 0.081900
H75 H 0.583000 0.575600 -0.092500
O76 O 0.638900 0.489400 0.375100
H77 H 0.616000 0.490000 0.237000
O78 O 0.528300 0.370400 0.647600
N79 N 0.799700 0.217700 0.557100
C80 C 0.808700 0.355700 0.129800
H81 H 0.851700 0.385000 0.035100
H82 H 0.832200 0.270300 0.186600
H83 H 0.746200 0.338900 0.075700
C84 C 0.827300 0.406100 0.307200
H85 H 0.804200 0.501400 0.316900
H86 H 0.893700 0.402600 0.345800
C87 C 0.763600 0.329300 0.450000
C88 C 0.672600 0.376800 0.482500
C89 C 0.609700 0.321700 0.622300
C90 C 0.653500 0.207000 0.726600
H91 H 0.604000 0.165000 0.844000
C92 C 0.743100 0.161300 0.691300
H93 H 0.788000 0.080000 0.786000
C94 C 0.968500 0.251500 0.670300
H95 H 1.036200 0.234300 0.662400
H96 H 0.955000 0.347800 0.636600
H97 H 0.948500 0.234800 0.794800
C98 C 0.902100 0.168300 0.545800
H99 H 0.919500 0.174200 0.418100
H100 H 0.917000 0.075600 0.592500

#END
