./LAGCIF_from_xyz.cif_generated_by_CrystalShift
_symmetry_cell_setting triclinic
_symmetry_space_group_name_H-M 'P 1'
loop_
_symmetry_equiv_pos_site_id
_symmetry_equiv_pos_as_xyz
1 x,y,z
_cell_length_a 12.873000
_cell_length_b 7.455000
_cell_length_c 12.071000
_cell_angle_alpha 90.000000
_cell_angle_beta 113.980000
_cell_angle_gamma 90.000000
_cell_volume 1058.444959
loop_
_atom_site_label
_atom_site_type_symbol
_atom_site_fract_x
_atom_site_fract_y
_atom_site_fract_z
C1 C 0.226600 0.362800 0.605700
C2 C 0.340000 0.462100 0.659200
C3 C 0.430400 0.426700 0.609200
C4 C 0.542800 0.426300 0.723600
O5 O 0.636200 0.430100 0.717500
C6 C 0.517000 0.415400 0.826200
C7 C 0.404200 0.421300 0.792300
O8 O 0.350900 0.408400 0.866700
C9 C 0.235600 0.333700 0.813500
C10 C 0.165800 0.407900 0.687400
C11 C 0.043300 0.342200 0.645200
C12 C -0.019300 0.397600 0.709500
C13 C -0.131400 0.344500 0.675800
C14 C -0.182000 0.239700 0.574300
C15 C -0.122700 0.186400 0.507300
C16 C -0.009900 0.239800 0.542900
H17 H 0.239100 0.231800 0.604900
H18 H 0.181200 0.403100 0.521600
H19 H 0.323100 0.593600 0.651400
H20 H 0.430200 0.522500 0.552300
H21 H 0.417600 0.309600 0.567000
H22 H 0.571600 0.405300 0.907500
H23 H 0.196500 0.361500 0.867200
H24 H 0.240300 0.201600 0.808700
H25 H 0.164800 0.541500 0.694300
H26 H 0.015400 0.473300 0.778000
H27 H -0.172400 0.380000 0.722100
H28 H -0.258900 0.203600 0.550000
H29 H -0.158300 0.113700 0.437400
H30 H 0.030600 0.205100 0.495800
C31 C 0.773400 0.862800 0.894300
C32 C 0.660000 0.962100 0.840800
C33 C 0.569600 0.926700 0.890800
C34 C 0.457200 0.926300 0.776400
O35 O 0.363800 0.930100 0.782500
C36 C 0.483000 0.915400 0.673800
C37 C 0.595800 0.921300 0.707700
O38 O 0.649100 0.908400 0.633300
C39 C 0.764400 0.833700 0.686500
C40 C 0.834200 0.907900 0.812600
C41 C 0.956700 0.842200 0.854800
C42 C 1.019300 0.897600 0.790500
C43 C 1.131400 0.844500 0.824200
C44 C 1.182000 0.739700 0.925700
C45 C 1.122700 0.686400 0.992700
C46 C 1.009900 0.739800 0.957100
H47 H 0.760900 0.731800 0.895100
H48 H 0.818800 0.903100 0.978400
H49 H 0.676900 1.093600 0.848600
H50 H 0.569800 1.022500 0.947700
H51 H 0.582400 0.809600 0.933000
H52 H 0.428400 0.905300 0.592500
H53 H 0.803500 0.861500 0.632800
H54 H 0.759700 0.701600 0.691300
H55 H 0.835200 1.041500 0.805700
H56 H 0.984600 0.973300 0.722000
H57 H 1.172400 0.880000 0.777900
H58 H 1.258900 0.703600 0.950000
H59 H 1.158300 0.613700 1.062600
H60 H 0.969400 0.705100 1.004200
C61 C 0.773400 0.637200 0.394300
C62 C 0.660000 0.537900 0.340800
C63 C 0.569600 0.573300 0.390800
C64 C 0.457200 0.573700 0.276400
O65 O 0.363800 0.569900 0.282500
C66 C 0.483000 0.584600 0.173800
C67 C 0.595800 0.578700 0.207700
O68 O 0.649100 0.591600 0.133300
C69 C 0.764400 0.666300 0.186500
C70 C 0.834200 0.592100 0.312600
C71 C 0.956700 0.657800 0.354800
C72 C 1.019300 0.602400 0.290500
C73 C 1.131400 0.655500 0.324200
C74 C 1.182000 0.760300 0.425700
C75 C 1.122700 0.813600 0.492700
C76 C 1.009900 0.760200 0.457100
H77 H 0.760900 0.768200 0.395100
H78 H 0.818800 0.596900 0.478400
H79 H 0.676900 0.406400 0.348600
H80 H 0.569800 0.477500 0.447700
H81 H 0.582400 0.690400 0.433000
H82 H 0.428400 0.594700 0.092500
H83 H 0.803500 0.638500 0.132800
H84 H 0.759700 0.798400 0.191300
H85 H 0.835200 0.458500 0.305700
H86 H 0.984600 0.526700 0.222000
H87 H 1.172400 0.620000 0.277900
H88 H 1.258900 0.796400 0.450000
H89 H 1.158300 0.886300 0.562600
H90 H 0.969400 0.794900 0.504200
C91 C 0.226600 0.137200 0.105700
C92 C 0.340000 0.037900 0.159200
C93 C 0.430400 0.073300 0.109200
C94 C 0.542800 0.073700 0.223600
O95 O 0.636200 0.069900 0.217500
C96 C 0.517000 0.084600 0.326200
C97 C 0.404200 0.078700 0.292300
O98 O 0.350900 0.091600 0.366700
C99 C 0.235600 0.166300 0.313500
C100 C 0.165800 0.092100 0.187400
C101 C 0.043300 0.157800 0.145200
C102 C -0.019300 0.102400 0.209500
C103 C -0.131400 0.155500 0.175800
C104 C -0.182000 0.260300 0.074300
C105 C -0.122700 0.313600 0.007300
C106 C -0.009900 0.260200 0.042900
H107 H 0.239100 0.268200 0.104900
H108 H 0.181200 0.096900 0.021600
H109 H 0.323100 -0.093600 0.151400
H110 H 0.430200 -0.022500 0.052300
H111 H 0.417600 0.190400 0.067000
H112 H 0.571600 0.094700 0.407500
H113 H 0.196500 0.138500 0.367200
H114 H 0.240300 0.298400 0.308700
H115 H 0.164800 -0.041500 0.194300
H116 H 0.015400 0.026700 0.278000
H117 H -0.172400 0.120000 0.222100
H118 H -0.258900 0.296400 0.050000
H119 H -0.158300 0.386300 -0.062600
H120 H 0.030600 0.294900 -0.004200

#END
