./KAGYUM_from_POSCAR.cif_generated_by_CrystalShift
_symmetry_cell_setting triclinic
_symmetry_space_group_name_H-M 'P 1'
loop_
_symmetry_equiv_pos_site_id
_symmetry_equiv_pos_as_xyz
1 x,y,z
_cell_length_a 8.521000
_cell_length_b 15.687000
_cell_length_c 10.370000
_cell_angle_alpha 90.000000
_cell_angle_beta 109.080000
_cell_angle_gamma 90.000000
_cell_volume 1309.996132
loop_
_atom_site_label
_atom_site_type_symbol
_atom_site_fract_x
_atom_site_fract_y
_atom_site_fract_z
H1 H -0.407600 0.856100 0.590900
H2 H 0.619300 1.069800 0.681000
H3 H 0.673700 1.100200 0.833300
H4 H 0.499700 1.126600 0.731600
H5 H -0.007500 0.859500 0.836000
H6 H 0.271800 1.022800 0.662800
H7 H 0.309000 0.808000 0.885800
H8 H 0.575200 0.774000 1.066300
H9 H 0.851000 0.797400 1.170900
H10 H 0.809900 1.007600 0.919700
H11 H 0.229400 0.878000 0.483700
H12 H 0.907600 0.356100 0.909100
H13 H 0.820600 0.307500 0.772200
H14 H 0.848700 0.261700 0.912300
H15 H 0.438900 0.375200 1.137400
H16 H -0.320600 0.807500 0.727800
H17 H 0.270600 0.378000 1.016300
H18 H 0.373100 0.461900 1.064500
H19 H -0.119300 0.569800 0.819000
H20 H 1.309900 0.492400 0.419700
H21 H 1.351000 0.702600 0.670900
H22 H 1.075200 0.726000 0.566300
H23 H 0.809000 0.692000 0.385800
H24 H 0.771800 0.477200 0.162800
H25 H 0.492500 0.640500 0.336000
H26 H 0.999700 0.373400 0.231600
H27 H 1.173700 0.399800 0.333300
H28 H 1.119300 0.430200 0.181000
H29 H 0.626900 0.538100 -0.064500
H30 H 0.729400 0.622000 -0.016300
H31 H 0.561100 0.624800 -0.137400
H32 H 0.151300 0.738300 0.087700
H33 H 0.179400 0.692500 0.227800
H34 H 0.092400 0.643900 0.090900
H35 H -0.173700 0.600200 0.666700
H36 H 0.000300 0.626600 0.768400
H37 H 0.507500 0.359500 0.664000
H38 H 0.228200 0.522800 0.837200
H39 H 0.191000 0.308000 0.614200
H40 H -0.075200 0.274000 0.433700
H41 H -0.351000 0.297400 0.329100
H42 H -0.309900 0.507600 0.580300
H43 H 0.061100 0.875200 0.362600
H44 H 1.407600 0.143900 0.409100
H45 H 1.320600 0.192500 0.272200
H46 H 1.348700 0.238300 0.412300
H47 H 0.938900 0.124800 0.637400
H48 H 0.770600 0.122000 0.516300
H49 H 0.873100 0.038100 0.564500
H50 H -0.348700 0.761700 0.587700
H51 H 0.380700 -0.069800 0.319000
H52 H 0.326300 -0.100200 0.166700
H53 H 0.500300 -0.126600 0.268400
H54 H 0.190100 -0.007600 0.080300
H55 H 0.149000 0.202600 -0.170900
H56 H 0.424800 0.226000 -0.066300
H57 H 0.691000 0.192000 0.114200
H58 H 0.728200 -0.022800 0.337200
H59 H 1.007500 0.140500 0.164000
H60 H 0.126900 0.961900 0.435500
C61 C 0.880400 0.098400 0.551600
C62 C 0.418500 -0.082100 0.243400
C63 C 1.019700 0.135900 0.259100
C64 C 1.155900 0.153200 0.366300
C65 C 1.371600 0.596500 0.555200
C66 C 0.971300 0.114400 0.453100
C67 C 1.288900 0.665700 0.598400
C68 C 0.399900 0.053600 0.106500
C69 C 1.127100 0.678500 0.538100
C70 C -0.371600 0.403500 0.444800
C71 C -0.288900 0.334300 0.401600
C72 C -0.127100 0.321500 0.461900
C73 C -0.027900 0.376400 0.567500
C74 C 0.140300 0.357700 0.637600
C75 C 0.230500 0.410800 0.739000
C76 C 0.160100 0.484400 0.770000
C77 C -0.006600 0.503900 0.706100
C78 C -0.100100 0.446400 0.606500
C79 C 1.027900 0.623600 0.432500
C80 C 0.471300 0.385600 0.953100
C81 C 0.859700 0.642300 0.362400
C82 C 0.655900 0.346800 0.866300
C83 C 0.519700 0.364100 0.759100
C84 C 0.493400 -0.003900 0.206100
C85 C -0.081500 0.582100 0.743400
C86 C 0.380400 0.401600 1.051600
C87 C 0.823600 0.315100 0.864800
C88 C 0.660100 0.015600 0.270000
C89 C 0.730500 0.089200 0.239000
C90 C 0.640300 0.142300 0.137600
C91 C 0.472100 0.123600 0.067500
C92 C 0.372900 0.178500 -0.038100
C93 C 0.211100 0.165700 -0.098400
C94 C 0.128400 0.096500 -0.055200
C95 C 0.769500 0.589200 0.261000
C96 C 0.176400 0.684900 0.135200
C97 C 0.619600 0.598400 -0.051600
C98 C 1.081500 0.417900 0.256600
C99 C 0.480300 0.635900 0.240900
C100 C 0.344100 0.653200 0.133700
C101 C 0.839900 0.515600 0.230000
C102 C 0.528700 0.614400 0.046900
C103 C 1.006600 0.496100 0.293900
C104 C 0.871600 0.903500 1.055200
C105 C 0.788900 0.834300 1.098400
C106 C 0.627100 0.821500 1.038100
C107 C 0.527900 0.876400 0.932500
C108 C 0.359700 0.857700 0.862400
C109 C 0.269500 0.910800 0.761000
C110 C 0.339900 0.984400 0.730000
C111 C 0.506600 1.003900 0.793900
C112 C 0.600100 0.946400 0.893500
C113 C 1.100100 0.553600 0.393500
C114 C 0.028700 0.885600 0.546900
C115 C -0.323600 0.815100 0.635200
C116 C -0.155900 0.846800 0.633700
C117 C -0.019700 0.864100 0.740900
C118 C 0.119600 0.901600 0.448400
C119 C 0.581500 1.082100 0.756600
C120 C 1.323600 0.184900 0.364800
N121 N -0.126700 0.859500 0.513100
N122 N 0.098600 0.889900 0.684800
N123 N 0.771200 0.958600 0.958000
N124 N 0.373300 0.640500 0.013100
N125 N 0.228800 0.041400 0.042000
N126 N 0.626700 0.359500 0.986900
N127 N 0.401400 0.389900 0.815200
N128 N -0.271200 0.458600 0.542000
N129 N 0.901400 0.110100 0.315200
N130 N 1.126700 0.140500 0.486900
N131 N 0.598600 0.610100 0.184800
N132 N 1.271200 0.541400 0.458000
O133 O -0.024700 0.084900 -0.098700
O134 O 1.524700 0.584900 0.598700
O135 O -0.524700 0.415100 0.401300
O136 O 1.024700 0.915100 1.098700

#END
