./KAGYEZ_from_POSCAR.cif_generated_by_CrystalShift
_symmetry_cell_setting triclinic
_symmetry_space_group_name_H-M 'P 1'
loop_
_symmetry_equiv_pos_site_id
_symmetry_equiv_pos_as_xyz
1 x,y,z
_cell_length_a 10.231000
_cell_length_b 7.584000
_cell_length_c 41.816000
_cell_angle_alpha 90.000000
_cell_angle_beta 90.000000
_cell_angle_gamma 90.000000
_cell_volume 3244.583058
loop_
_atom_site_label
_atom_site_type_symbol
_atom_site_fract_x
_atom_site_fract_y
_atom_site_fract_z
H1 H 0.912000 0.915000 0.623500
H2 H 0.939300 0.779900 0.402200
H3 H 0.949800 0.771600 0.547100
H4 H 0.577000 -0.111400 0.699300
H5 H 0.731100 0.499200 0.467800
H6 H 0.515400 -0.120200 0.755200
H7 H 1.072200 0.892000 0.443400
H8 H 1.033500 0.812400 0.496800
H9 H 0.535200 -0.040800 0.645700
H10 H 0.786500 0.502400 0.524200
H11 H 0.196300 0.202300 0.672000
H12 H 0.790400 0.516700 0.580400
H13 H 0.236800 0.130300 0.725700
H14 H 0.588000 0.085000 0.123500
H15 H 0.346100 0.118600 0.631900
H16 H 0.731400 0.417200 -0.085500
H17 H 0.308800 0.094200 0.776300
H18 H 0.560700 0.220100 -0.097800
H19 H 0.492100 -0.121200 0.811700
H20 H 0.248000 0.163000 0.853900
H21 H 0.550200 0.228400 0.047100
H22 H 0.768900 0.500800 -0.032200
H23 H 0.427800 0.108000 -0.056600
H24 H -0.077000 1.111400 0.199300
H25 H 0.466500 0.187600 -0.003200
H26 H -0.015400 1.120200 0.255200
H27 H 0.713500 0.497600 0.024200
H28 H 0.709600 0.483300 0.080400
H29 H -0.035200 1.040800 0.145700
H30 H 0.088000 0.415000 0.876500
H31 H 0.303700 0.797700 0.172000
H32 H 0.231400 0.082800 1.085500
H33 H 0.263200 0.869700 0.225700
H34 H 0.060700 0.279900 1.097800
H35 H 0.153900 0.881400 0.131900
H36 H 0.050200 0.271600 0.952900
H37 H 0.191200 0.905800 0.276300
H38 H 0.268900 -0.000800 1.032200
H39 H 0.007900 1.121200 0.311700
H40 H 0.252000 0.837000 0.353900
H41 H -0.072200 0.392000 1.056600
H42 H -0.033500 0.312400 1.003200
H43 H 0.213500 0.002400 0.975800
H44 H 0.423000 0.388600 0.800700
H45 H 0.209600 0.016700 0.919600
H46 H 0.484600 0.379800 0.744800
H47 H 0.412000 0.585000 0.376500
H48 H 0.268600 0.917200 0.585500
H49 H 0.464800 0.459200 0.854300
H50 H 0.439300 0.720100 0.597800
H51 H 0.803700 0.702300 0.828000
H52 H 0.449800 0.728400 0.452900
H53 H 0.763200 0.630300 0.774300
H54 H 0.231100 1.000800 0.532200
H55 H 0.653900 0.618600 0.868100
H56 H 0.572200 0.608000 0.556600
H57 H 0.691200 0.594200 0.723700
H58 H 0.533500 0.687600 0.503200
H59 H 0.507900 0.378800 0.688300
H60 H 0.752000 0.663000 0.646100
H61 H 0.286500 0.997600 0.475800
H62 H 0.290400 0.983300 0.419600
H63 H 0.088000 0.085000 0.376500
H64 H 1.077000 0.611400 0.300700
H65 H 0.231400 0.417200 0.585500
H66 H 1.015400 0.620200 0.244800
H67 H 0.060700 0.220100 0.597800
H68 H 0.050200 0.228400 0.452900
H69 H 1.035200 0.540800 0.354300
H70 H 0.268900 0.500800 0.532200
H71 H 0.696300 0.297700 0.328000
H72 H -0.072200 0.108000 0.556600
H73 H 0.736800 0.369700 0.274300
H74 H -0.033500 0.187600 0.503200
H75 H 0.846100 0.381400 0.368100
H76 H 0.213500 0.497600 0.475800
H77 H 0.808800 0.405800 0.223700
H78 H 0.209600 0.483300 0.419600
H79 H 0.992100 0.621200 0.188300
H80 H 0.748000 0.337000 0.146100
H81 H 0.412000 0.915000 0.876500
H82 H 0.268600 0.582800 1.085500
H83 H 0.439300 0.779900 1.097800
H84 H 0.423000 1.111400 0.300700
H85 H 0.449800 0.771600 0.952900
H86 H 0.484600 1.120200 0.244800
H87 H 0.231100 0.499200 1.032200
H88 H 0.572200 0.892000 1.056600
H89 H 0.464800 1.040800 0.354300
H90 H 0.533500 0.812400 1.003200
H91 H 0.803700 0.797700 0.328000
H92 H 0.286500 0.502400 0.975800
H93 H 0.763200 0.869700 0.274300
H94 H 0.290400 0.516700 0.919600
H95 H 0.653900 0.881400 0.368100
H96 H 0.912000 0.585000 0.123500
H97 H 0.691200 0.905800 0.223700
H98 H 0.768600 0.917200 -0.085500
H99 H 0.507900 1.121200 0.188300
H100 H 0.752000 0.837000 0.146100
H101 H 0.939300 0.720100 -0.097800
H102 H 0.949800 0.728400 0.047100
H103 H 0.731100 1.000800 -0.032200
H104 H 1.077000 -0.111400 0.800700
H105 H 1.072200 0.608000 -0.056600
H106 H 1.015400 -0.120200 0.744800
H107 H 1.033500 0.687600 -0.003200
H108 H 0.786500 0.997600 0.024200
H109 H 1.035200 -0.040800 0.854300
H110 H 0.790400 0.983300 0.080400
H111 H 0.696300 0.202300 0.828000
H112 H 0.588000 0.415000 0.623500
H113 H 0.736800 0.130300 0.774300
H114 H 0.731400 0.082800 0.414500
H115 H 0.846100 0.118600 0.868100
H116 H 0.560700 0.279900 0.402200
H117 H 0.808800 0.094200 0.723700
H118 H 0.550200 0.271600 0.547100
H119 H 0.992100 -0.121200 0.688300
H120 H 0.748000 0.163000 0.646100
H121 H 0.768900 -0.000800 0.467800
H122 H 0.427800 0.392000 0.443400
H123 H 0.466500 0.312400 0.496800
H124 H 0.577000 0.611400 0.199300
H125 H 0.713500 0.002400 0.524200
H126 H 0.515400 0.620200 0.255200
H127 H 0.709600 0.016700 0.580400
H128 H 0.252000 0.663000 0.853900
H129 H 0.535200 0.540800 0.145700
H130 H 0.007900 0.378800 0.811700
H131 H 0.196300 0.297700 0.172000
H132 H 0.191200 0.594200 0.776300
H133 H 0.236800 0.369700 0.225700
H134 H 0.153900 0.618600 0.631900
H135 H 0.346100 0.381400 0.131900
H136 H 0.263200 0.630300 0.725700
H137 H 0.308800 0.405800 0.276300
H138 H 0.303700 0.702300 0.672000
H139 H 0.492100 0.621200 0.311700
H140 H 0.248000 0.337000 0.353900
H141 H -0.035200 0.459200 0.645700
H142 H -0.015400 0.379800 0.755200
H143 H -0.077000 0.388600 0.699300
H144 H 0.768600 0.582800 0.414500
C145 C 0.055940 0.457890 0.751920
C146 C 0.822030 0.629020 0.431060
C147 C 0.087820 0.503250 0.718370
C148 C 0.024660 0.494520 0.661870
C149 C 0.923750 0.746230 0.423720
C150 C 0.226830 0.639170 0.677600
C151 C 0.423810 0.536530 0.310570
C152 C 0.202400 0.596440 0.709660
C153 C 0.381380 0.483080 0.278540
C154 C 0.137580 0.588820 0.653580
C155 C 0.362420 0.411180 0.153580
C156 C 0.118620 0.516920 0.778540
C157 C 0.297600 0.403560 0.209660
C158 C 0.076190 0.463470 0.810570
C159 C 0.273170 0.360830 0.177600
C160 C 0.475340 0.505480 0.161870
C161 C 0.500120 -0.047740 0.693940
C162 C 0.886540 0.680130 0.548430
C163 C 0.664260 0.125920 0.579730
C164 C 0.412180 0.496750 0.218370
C165 C 0.656490 0.100180 0.521430
C166 C 0.444060 0.542110 0.251920
C167 C 0.623830 0.149520 0.488050
C168 C 0.520380 0.266180 0.480300
C169 C 0.500120 0.547740 0.193940
C170 C 0.497300 0.313670 0.448380
C171 C 0.444060 -0.042110 0.751920
C172 C 0.700790 0.080110 0.462970
C173 C 0.799210 0.580110 0.462970
C174 C 0.613460 0.180130 0.548430
C175 C 0.923810 -0.036530 0.689430
C176 C 0.576250 0.246230 0.423720
C177 C 0.881380 0.016920 0.721460
C178 C 0.677970 0.129020 0.431060
C179 C 0.862420 0.088820 0.846420
C180 C 0.797600 0.096440 0.790340
C181 C 0.412180 0.003250 0.718370
C182 C 1.002700 0.813670 0.448380
C183 C 0.835740 0.874080 0.079730
C184 C 0.773170 0.139170 0.822400
C185 C 0.843510 0.899820 0.021430
C186 C 0.975340 -0.005480 0.838130
C187 C 0.876170 0.850480 -0.011950
C188 C 0.979620 0.733820 -0.019700
C189 C 0.912180 0.003250 0.781630
C190 C 1.002700 0.686330 -0.051620
C191 C 0.944060 -0.042110 0.748080
C192 C 0.799210 0.919890 -0.037030
C193 C 1.000120 -0.047740 0.806060
C194 C 0.886540 0.819870 0.048430
C195 C 0.475340 -0.005480 0.661870
C196 C 0.923750 0.753770 -0.076280
C197 C 0.979620 0.766180 0.480300
C198 C 0.822030 0.870980 -0.068940
C199 C 0.576190 1.036530 0.189430
C200 C 0.618620 0.983080 0.221460
C201 C 0.876170 0.649520 0.488050
C202 C 0.273170 0.139170 0.677600
C203 C 0.335740 0.625920 0.920270
C204 C 0.637580 0.911180 0.346420
C205 C 0.343510 0.600180 0.978570
C206 C 0.702400 0.903560 0.290340
C207 C 0.376170 0.649520 1.011950
C208 C 0.479620 0.766180 1.019700
C209 C 0.726830 0.860830 0.322400
C210 C 0.502700 0.813670 1.051620
C211 C 0.524660 1.005480 0.338130
C212 C 0.299210 0.580110 1.037030
C213 C 0.587820 0.996750 0.281630
C214 C 0.386540 0.680130 0.951570
C215 C 0.555940 1.042110 0.248080
C216 C 0.423750 0.746230 1.076280
C217 C 0.499880 1.047740 0.306060
C218 C 0.322030 0.629020 1.068940
C219 C 0.843510 0.600180 0.521430
C220 C 0.297600 0.096440 0.709660
C221 C 0.835740 0.625920 0.579730
C222 C 0.362420 0.088820 0.653580
C223 C 0.164260 0.374080 0.420270
C224 C 0.923810 0.536530 0.189430
C225 C 0.156490 0.399820 0.478570
C226 C 0.881380 0.483080 0.221460
C227 C 0.123830 0.350480 0.511950
C228 C 0.020380 0.233820 0.519700
C229 C 0.862420 0.411180 0.346420
C230 C -0.002700 0.186330 0.551620
C231 C 0.797600 0.403560 0.290340
C232 C 0.200790 0.419890 0.537030
C233 C 0.773170 0.360830 0.322400
C234 C 0.113460 0.319870 0.451570
C235 C 0.975340 0.505480 0.338130
C236 C 0.076250 0.253770 0.576280
C237 C 0.912180 0.496750 0.281630
C238 C 0.177970 0.370980 0.568940
C239 C 0.944060 0.542110 0.248080
C240 C 1.000120 0.547740 0.306060
C241 C 0.381380 0.016920 0.778540
C242 C 0.677970 0.370980 -0.068940
C243 C 0.335740 0.874080 0.420270
C244 C 0.423810 -0.036530 0.810570
C245 C 0.343510 0.899820 0.478570
C246 C 0.576250 0.253770 -0.076280
C247 C 0.376170 0.850480 0.511950
C248 C 0.479620 0.733820 0.519700
C249 C 0.576190 0.463470 0.689430
C250 C 0.502700 0.686330 0.551620
C251 C 0.618620 0.516920 0.721460
C252 C 0.299210 0.919890 0.537030
C253 C 0.637580 0.588820 0.846420
C254 C 0.386540 0.819870 0.451570
C255 C 0.702400 0.596440 0.790340
C256 C 0.423750 0.753770 0.576280
C257 C 0.726830 0.639170 0.822400
C258 C 0.322030 0.870980 0.568940
C259 C 0.524660 0.494520 0.838130
C260 C 0.587820 0.503250 0.781630
C261 C 0.613460 0.319870 0.048430
C262 C 0.700790 0.419890 -0.037030
C263 C 0.164260 0.125920 0.920270
C264 C 0.555940 0.457890 0.748080
C265 C 0.156490 0.100180 0.978570
C266 C 0.499880 0.452260 0.806060
C267 C 0.123830 0.149520 1.011950
C268 C 0.020380 0.266180 1.019700
C269 C -0.000120 1.047740 0.193940
C270 C -0.002700 0.313670 1.051620
C271 C 0.497300 0.186330 -0.051620
C272 C 0.200790 0.080110 1.037030
C273 C 0.076190 1.036530 0.310570
C274 C 0.113460 0.180130 0.951570
C275 C 0.118620 0.983080 0.278540
C276 C 0.076250 0.246230 1.076280
C277 C 0.137580 0.911180 0.153580
C278 C 0.177970 0.129020 1.068940
C279 C 0.202400 0.903560 0.209660
C280 C 0.226830 0.860830 0.177600
C281 C 0.055940 1.042110 0.251920
C282 C 0.520380 0.233820 -0.019700
C283 C 0.664260 0.374080 0.079730
C284 C 0.024660 1.005480 0.161870
C285 C 0.656490 0.399820 0.021430
C286 C 0.087820 0.996750 0.218370
C287 C 0.623830 0.350480 -0.011950
C288 C -0.000120 0.452260 0.693940
N289 N 0.122730 0.520420 0.837550
N290 N 0.377270 0.020420 0.837550
N291 N 0.622730 0.520420 0.662450
N292 N 0.154180 0.210560 0.893420
N293 N 0.122730 0.979580 0.337550
N294 N 0.654180 0.210560 0.606580
N295 N 0.377270 0.479580 0.337550
N296 N 0.845820 0.789440 0.106580
N297 N 0.877270 0.479580 0.162450
N298 N 0.345820 0.789440 0.393420
N299 N 0.877270 0.020420 0.662450
N300 N 0.154180 0.289440 0.393420
N301 N 0.345820 0.710560 0.893420
N302 N 0.845820 0.710560 0.606580
N303 N 0.622730 0.979580 0.162450
N304 N 0.654180 0.289440 0.106580
O305 O 0.078970 0.133780 0.396240
O306 O 0.921030 0.866220 0.603760
O307 O 0.421030 0.866220 0.896240
O308 O 0.779390 0.149180 0.666510
O309 O 0.421030 0.633780 0.396240
O310 O 0.779390 0.350820 0.166510
O311 O 0.921030 0.633780 0.103760
O312 O 0.279390 0.350820 0.333490
O313 O 0.220610 0.850820 0.333490
O314 O 0.078970 0.366220 0.896240
O315 O 0.578970 0.366220 0.603760
O316 O 0.220610 0.649180 0.833490
O317 O 0.720610 0.649180 0.666510
O318 O 0.578970 0.133780 0.103760
O319 O 0.720610 0.850820 0.166510
O320 O 0.279390 0.149180 0.833490

#END
