./KAHBOM_from_POSCAR.cif_generated_by_CrystalShift
_symmetry_cell_setting triclinic
_symmetry_space_group_name_H-M 'P 1'
loop_
_symmetry_equiv_pos_site_id
_symmetry_equiv_pos_as_xyz
1 x,y,z
_cell_length_a 8.607100
_cell_length_b 11.167000
_cell_length_c 9.382600
_cell_angle_alpha 90.000000
_cell_angle_beta 115.100000
_cell_angle_gamma 90.000000
_cell_volume 816.653857
loop_
_atom_site_label
_atom_site_type_symbol
_atom_site_fract_x
_atom_site_fract_y
_atom_site_fract_z
H1 H 0.801800 0.001500 1.213700
H2 H 0.472000 0.783800 0.573500
H3 H 0.657700 0.016600 1.037500
H4 H 0.732500 0.899200 0.682400
H5 H 0.824600 0.801400 0.619100
H6 H 0.797200 0.075500 1.436100
H7 H 0.405700 0.090700 0.458800
H8 H 0.659900 0.700900 1.090600
H9 H 0.570100 0.281200 0.839200
H10 H 0.892000 0.177700 1.674400
H11 H 0.127600 -0.008700 -0.454100
H12 H 0.926500 0.384700 1.685100
H13 H 0.073500 -0.115300 -0.685100
H14 H 0.872400 0.491300 1.454100
H15 H 0.108000 -0.322300 -0.674400
H16 H 0.429900 0.781200 0.160800
H17 H 0.202800 -0.424500 -0.436100
H18 H 0.997900 0.504900 0.993800
H19 H 0.594300 0.590700 0.541200
H20 H 0.950500 0.629300 0.778300
H21 H 0.342300 -0.483400 -0.037500
H22 H 0.393900 -0.477100 -0.182400
H23 H 0.198200 -0.498500 -0.213700
H24 H 0.615900 0.826200 0.877900
H25 H 0.528000 0.283800 0.426500
H26 H 0.267500 0.399200 0.317600
H27 H 0.002100 0.004900 0.006200
H28 H 0.175400 0.301400 0.380900
H29 H 0.049500 0.129300 0.221700
H30 H 0.340100 0.200900 -0.090600
H31 H 0.384100 0.326200 0.122100
H32 H 0.606100 0.022900 1.182400
C33 C 0.281600 0.186250 -0.026270
C34 C 0.222380 0.239280 0.195080
C35 C 0.264700 0.313170 0.342010
C36 C 0.109300 0.144070 0.158500
C37 C 0.081200 0.069430 0.031100
C38 C 0.439660 0.274800 0.468660
C39 C 0.170100 0.091110 -0.057760
C40 C 0.508500 0.144190 0.681280
C41 C 0.496840 0.344110 0.621720
C42 C 0.718400 0.686250 1.026270
C43 C 0.238130 -0.083610 -0.159270
C44 C 0.692500 0.760370 0.899990
C45 C 0.777620 0.739280 0.804920
C46 C 0.305000 -0.457420 -0.146800
C47 C 0.890700 0.644070 0.841500
C48 C 0.199570 -0.152270 -0.305480
C49 C 0.223590 -0.277520 -0.299450
C50 C 0.188300 -0.340050 -0.438500
C51 C 0.856600 0.406980 1.449850
C52 C 0.132100 -0.278890 -0.580320
C53 C 0.889500 0.343910 1.587390
C54 C 0.110500 -0.156090 -0.587390
C55 C 0.867900 0.221110 1.580320
C56 C 0.143400 -0.093020 -0.449850
C57 C 0.811700 0.159950 1.438500
C58 C 0.735300 0.813170 0.657990
C59 C 0.776410 0.222480 1.299450
C60 C 0.800430 0.347730 1.305480
C61 C 0.695000 0.042580 1.146800
C62 C 0.560340 0.774800 0.531340
C63 C 0.307500 0.260370 0.100010
C64 C 0.503160 0.844110 0.378280
C65 C 0.761870 0.416390 1.159270
C66 C 0.829900 0.591110 1.057760
C67 C 0.918800 0.569430 0.968900
C68 C 0.491500 0.644190 0.318720
N69 N 0.557360 0.652570 0.477580
N70 N 0.442640 0.152570 0.522420
N71 N 0.534220 0.262440 0.739160
N72 N 0.465780 0.762440 0.260840
O73 O 0.659370 0.390310 1.029110
O74 O 0.723230 0.169720 1.157000
O75 O 0.462100 0.554810 0.238990
O76 O 0.491960 0.952100 0.362190
O77 O 0.508040 0.452100 0.637810
O78 O 0.537900 0.054810 0.761010
O79 O 0.141280 0.017430 -0.188960
O80 O 0.340630 -0.109690 -0.029110
O81 O 0.858720 0.517430 1.188960
O82 O 0.276770 -0.330280 -0.157000

#END
