./KAHFEF_from_POSCAR.cif_generated_by_CrystalShift
_symmetry_cell_setting triclinic
_symmetry_space_group_name_H-M 'P 1'
loop_
_symmetry_equiv_pos_site_id
_symmetry_equiv_pos_as_xyz
1 x,y,z
_cell_length_a 14.194100
_cell_length_b 6.283100
_cell_length_c 20.947500
_cell_angle_alpha 90.000000
_cell_angle_beta 101.762000
_cell_angle_gamma 90.000000
_cell_volume 1828.933714
loop_
_atom_site_label
_atom_site_type_symbol
_atom_site_fract_x
_atom_site_fract_y
_atom_site_fract_z
H1 H 1.243400 -0.234000 0.836900
H2 H 1.126500 0.121000 0.973800
H3 H -0.019300 1.018000 0.595000
H4 H 0.005900 0.848000 0.538200
H5 H 1.212200 0.046000 0.939900
H6 H 0.138100 1.082000 0.572800
H7 H 0.144100 1.028000 0.648200
H8 H 1.115800 -0.100000 0.931300
H9 H 0.181800 0.726000 0.554200
H10 H 1.130200 0.317000 0.877400
H11 H 0.313700 0.917000 0.662700
H12 H 0.338900 0.716000 0.621200
H13 H 0.950000 -0.071000 0.846000
H14 H 0.948400 -0.015000 0.922900
H15 H 0.372800 1.237000 0.633900
H16 H 0.810800 0.157000 0.809800
H17 H 0.427700 1.456000 0.559600
H18 H 0.788700 -0.016000 0.860600
H19 H 0.421900 1.350000 0.452100
H20 H 0.689600 0.283000 1.005600
H21 H 0.364700 1.008000 0.418600
H22 H 0.635300 0.508000 1.081400
H23 H 0.310400 0.783000 0.494400
H24 H 0.578100 0.850000 1.047900
H25 H 0.211300 0.484000 0.639400
H26 H 0.189200 0.657000 0.690200
H27 H 0.572300 0.956000 0.940400
H28 H 0.051600 0.485000 0.577100
H29 H 0.050000 0.429000 0.654000
H30 H 0.627200 0.737000 0.866100
H31 H -0.130200 0.817000 0.622600
H32 H 0.661100 0.216000 0.878800
H33 H -0.115800 0.400000 0.568700
H34 H -0.212200 0.546000 0.560100
H35 H -0.126500 0.621000 0.526200
H36 H 0.686300 0.417000 0.837300
H37 H -0.087100 0.412000 0.688200
H38 H 0.818200 0.226000 0.945800
H39 H -0.012300 0.753000 0.726200
H40 H 0.855900 0.528000 0.851800
H41 H 0.861900 0.582000 0.927200
H42 H -0.219200 0.871000 0.724300
H43 H 0.994100 0.348000 0.961800
H44 H -0.380700 0.873000 0.733000
H45 H 1.019300 0.518000 0.905000
H46 H 1.407400 -0.234000 0.827600
H47 H 1.219200 0.371000 0.775700
H48 H -0.407400 0.266000 0.672400
H49 H 1.243400 0.734000 0.336900
H50 H -0.243400 0.266000 0.663100
H51 H 1.407400 0.734000 0.327600
H52 H 1.380700 0.127000 0.267000
H53 H -0.019300 0.482000 0.095000
H54 H 0.005900 0.652000 0.038200
H55 H 1.219200 0.129000 0.275700
H56 H 0.138100 0.418000 0.072800
H57 H 0.144100 0.472000 0.148200
H58 H 1.012300 0.247000 0.273800
H59 H 0.181800 0.774000 0.054200
H60 H 1.380700 0.373000 0.767000
H61 H 0.313700 0.583000 0.162700
H62 H 0.338900 0.784000 0.121200
H63 H 1.087100 0.588000 0.311800
H64 H 1.126500 0.379000 0.473800
H65 H 0.372800 0.263000 0.133900
H66 H 1.212200 0.454000 0.439900
H67 H 0.427700 0.044000 0.059600
H68 H 1.115800 0.600000 0.431300
H69 H 0.421900 0.150000 -0.047900
H70 H 1.130200 0.183000 0.377400
H71 H 0.364700 0.492000 -0.081400
H72 H 0.950000 0.571000 0.346000
H73 H 0.310400 0.717000 -0.005600
H74 H 0.948400 0.515000 0.422900
H75 H 0.211300 1.016000 0.139400
H76 H 0.189200 0.843000 0.190200
H77 H 0.810800 0.343000 0.309800
H78 H 0.051600 1.015000 0.077100
H79 H 0.050000 1.071000 0.154000
H80 H 0.788700 0.516000 0.360600
H81 H -0.130200 0.683000 0.122600
H82 H 0.689600 0.217000 0.505600
H83 H -0.115800 1.100000 0.068700
H84 H -0.212200 0.954000 0.060100
H85 H -0.126500 0.879000 0.026200
H86 H 0.635300 -0.008000 0.581400
H87 H -0.087100 1.088000 0.188200
H88 H 0.578100 -0.350000 0.547900
H89 H -0.012300 0.747000 0.226200
H90 H 0.572300 -0.456000 0.440400
H91 H 0.627200 -0.237000 0.366100
H92 H -0.219200 0.629000 0.224300
H93 H 0.661100 0.284000 0.378800
H94 H -0.380700 0.627000 0.233000
H95 H 0.686300 0.083000 0.337300
H96 H 0.818200 0.274000 0.445800
H97 H 0.855900 -0.028000 0.351800
H98 H -0.407400 1.234000 0.172400
H99 H 0.861900 -0.082000 0.427200
H100 H -0.243400 1.234000 0.163100
H101 H 1.012300 0.253000 0.773800
H102 H 0.994100 0.152000 0.461800
H103 H 1.019300 -0.018000 0.405000
H104 H 1.087100 -0.088000 0.811800
C105 C 0.872030 0.031700 0.395920
C106 C -0.272850 1.107500 0.178140
C107 C -0.368950 1.107900 0.182490
C108 C 0.805300 0.216500 0.400540
C109 C 1.406430 0.072800 0.797180
C110 C 0.698780 0.156500 0.382070
C111 C -0.406430 0.927200 0.202820
C112 C -0.353250 0.747100 0.219230
C113 C 0.664440 0.010300 0.429610
C114 C 0.628490 -0.188900 0.411230
C115 C -0.257400 0.749600 0.214440
C116 C 0.596160 -0.321600 0.454770
C117 C -0.216150 0.928900 0.193780
C118 C 0.598840 -0.256000 0.517390
C119 C 1.368950 -0.107900 0.817510
C120 C 0.634500 -0.058900 0.536750
C121 C -0.111880 0.928800 0.187750
C122 C 0.666440 0.073200 0.493300
C123 C -0.143430 0.947500 0.064330
C124 C 0.829180 0.396800 0.357840
C125 C -0.097560 0.820000 0.124520
C126 C 0.065090 0.955900 0.124440
C127 C 0.934910 0.455900 0.375560
C128 C 0.170820 0.896800 0.142160
C129 C 0.333560 0.573200 0.006700
C130 C 1.097560 0.320000 0.375480
C131 C 0.365500 0.441100 -0.036750
C132 C 1.143430 0.447500 0.435670
C133 C 0.401160 0.244000 -0.017390
C134 C 0.403840 0.178400 0.045230
C135 C 0.371510 0.311100 0.088770
C136 C 1.111880 0.428800 0.312250
C137 C 0.335560 0.510300 0.070390
C138 C 0.301220 0.656500 0.117930
C139 C 0.194700 0.716500 0.099460
C140 C 1.216150 0.428900 0.306220
C141 C 1.257400 0.249600 0.285560
C142 C 0.127970 0.531700 0.104080
C143 C 1.353250 0.247100 0.280770
C144 C 0.023500 0.599000 0.088370
C145 C 1.406430 0.427200 0.297180
C146 C 1.353250 0.252900 0.780770
C147 C 1.368950 0.607900 0.317510
C148 C 1.216150 0.071100 0.806220
C149 C 1.272850 0.607500 0.321860
C150 C -0.272850 0.392500 0.678140
C151 C -0.368950 0.392100 0.682490
C152 C 0.976500 0.401000 0.911630
C153 C -0.406430 0.572800 0.702820
C154 C -0.353250 0.752900 0.719230
C155 C 0.872030 0.468300 0.895920
C156 C -0.257400 0.750400 0.714440
C157 C -0.216150 0.571100 0.693780
C158 C 0.805300 0.283500 0.900540
C159 C 1.272850 -0.107500 0.821860
C160 C 0.698780 0.343500 0.882070
C161 C -0.111880 0.571200 0.687750
C162 C -0.143430 0.552500 0.564330
C163 C 0.664440 0.489700 0.929610
C164 C 0.628490 0.688900 0.911230
C165 C -0.097560 0.680000 0.624520
C166 C 0.596160 0.821600 0.954770
C167 C 0.065090 0.544100 0.624440
C168 C 0.598840 0.756000 1.017390
C169 C 0.170820 0.603200 0.642160
C170 C 0.634500 0.558900 1.036750
C171 C 0.333560 0.926800 0.506700
C172 C 0.666440 0.426800 0.993300
C173 C 0.365500 1.058900 0.463250
C174 C 0.829180 0.103200 0.857840
C175 C 0.401160 1.256000 0.482610
C176 C 0.403840 1.321600 0.545230
C177 C 0.934910 0.044100 0.875560
C178 C 0.371510 1.188900 0.588770
C179 C 0.335560 0.989700 0.570390
C180 C 1.097560 0.180000 0.875480
C181 C 0.301220 0.843500 0.617930
C182 C 1.143430 0.052500 0.935670
C183 C 0.194700 0.783500 0.599460
C184 C 0.127970 0.968300 0.604080
C185 C 0.023500 0.901000 0.588370
C186 C 1.111880 0.071200 0.812250
C187 C 0.976500 0.099000 0.411630
C188 C 1.257400 0.250400 0.785560
N189 N 0.005350 0.771930 0.131210
N190 N 0.994650 0.271930 0.368790
N191 N 0.994650 0.228070 0.868790
N192 N 0.005350 0.728070 0.631210
O193 O -0.055690 0.677200 0.741640
O194 O 1.055690 0.322800 0.258360
O195 O -0.055690 0.822800 0.241640
O196 O 1.055690 0.177200 0.758360
F197 F -0.500310 0.573600 0.707910
F198 F 1.500310 0.426400 0.292090
F199 F 1.500310 0.073600 0.792090
F200 F -0.500310 0.926400 0.207910

#END
