./KAHGAC_from_POSCAR.cif_generated_by_CrystalShift
_symmetry_cell_setting triclinic
_symmetry_space_group_name_H-M 'P 1'
loop_
_symmetry_equiv_pos_site_id
_symmetry_equiv_pos_as_xyz
1 x,y,z
_cell_length_a 8.911000
_cell_length_b 9.584000
_cell_length_c 24.040000
_cell_angle_alpha 90.000000
_cell_angle_beta 90.000000
_cell_angle_gamma 90.000000
_cell_volume 2053.088697
loop_
_atom_site_label
_atom_site_type_symbol
_atom_site_fract_x
_atom_site_fract_y
_atom_site_fract_z
H1 H 0.155700 0.280900 1.064600
H2 H 0.277200 0.301100 1.018100
H3 H 0.621600 0.339100 0.196100
H4 H -0.164100 -0.174200 0.936300
H5 H 0.515700 0.467900 0.109500
H6 H -0.228000 -0.265200 1.022000
H7 H 0.750300 0.177500 0.071000
H8 H -0.130400 -0.178800 1.102900
H9 H 0.041900 0.001800 1.101100
H10 H 0.849800 0.499200 0.070000
H11 H 0.024200 0.610200 0.902200
H12 H 1.060800 0.603700 0.107400
H13 H -0.093600 0.513300 0.931400
H14 H 0.078100 0.492700 0.943000
H15 H 1.113200 0.281400 0.210900
H16 H -0.061000 0.200300 0.713000
H17 H 0.901100 0.177300 0.174600
H18 H -0.250000 0.342800 0.681400
H19 H -0.334700 0.524000 0.733500
H20 H -0.228100 0.579300 0.819200
H21 H 0.401100 0.322700 0.825400
H22 H 0.271900 -0.079300 0.180800
H23 H 0.613200 0.218600 0.789100
H24 H 0.165300 -0.024000 0.266500
H25 H 0.560800 -0.103700 0.892600
H26 H 0.250000 0.157200 0.318600
H27 H 0.349800 0.000800 0.930000
H28 H 0.439000 0.299700 0.287000
H29 H 0.250300 0.322500 0.929000
H30 H 0.015700 0.032100 0.890500
H31 H 0.578100 0.007300 0.057000
H32 H 0.406400 -0.013300 0.068600
H33 H 0.524200 -0.110200 0.097800
H34 H 0.121600 0.160900 0.803900
H35 H 0.344300 0.719100 0.564600
H36 H 0.208000 0.822000 0.560700
H37 H 0.222800 0.698900 0.518100
H38 H 0.541900 0.498200 -0.101100
H39 H 0.664100 1.174200 0.436300
H40 H 0.369600 0.678800 -0.102900
H41 H 0.728000 1.265200 0.522000
H42 H 0.272000 0.765200 -0.022000
H43 H 0.630400 1.178800 0.602900
H44 H 0.335900 0.674200 0.063700
H45 H 0.458100 0.998200 0.601100
H46 H 0.475800 0.389800 0.402200
H47 H 0.777200 0.198900 -0.018100
H48 H 0.792000 0.322000 -0.060700
H49 H 0.655700 0.219100 -0.064600
H50 H 0.593600 0.486700 0.431400
H51 H 0.421900 0.507300 0.443000
H52 H 0.878400 0.660900 0.696100
H53 H 0.561000 0.799700 0.213000
H54 H 0.984300 0.532100 0.609500
H55 H 0.750000 0.657200 0.181400
H56 H 0.749700 0.822500 0.571000
H57 H 0.834700 0.476000 0.233500
H58 H 0.728100 0.420700 0.319200
H59 H 0.650200 0.500800 0.570000
H60 H 0.098900 0.677300 0.325400
H61 H 0.439200 0.396300 0.607400
H62 H -0.113200 0.781400 0.289100
H63 H -0.060800 1.103700 0.392600
H64 H 0.386800 0.718600 0.710900
H65 H 0.150200 0.999200 0.430000
H66 H 0.598900 0.822700 0.674600
H67 H 0.249700 0.677500 0.429000
H68 H 0.484300 0.967900 0.390500
H69 H 0.378400 0.839100 0.303900
H70 H 0.844300 0.780900 0.435400
H71 H 1.228100 1.079300 0.680800
H72 H 0.708000 0.678000 0.439300
H73 H 1.334700 1.024000 0.766500
H74 H 0.722800 0.801100 0.481900
H75 H 1.250000 0.842800 0.818600
H76 H 1.164100 0.325800 0.563700
H77 H 1.061000 0.700300 0.787000
H78 H 1.228000 0.234800 0.478000
H79 H 1.130400 0.321200 0.397100
H80 H 0.921900 0.992700 0.557000
H81 H 1.093600 1.013300 0.568600
H82 H 0.975800 1.110200 0.597800
H83 H 0.958100 0.501800 0.398900
H84 H 0.292000 0.178000 1.060700
C85 C 0.960800 0.528600 0.482250
C86 C 0.999900 0.468900 0.431840
C87 C 0.871100 0.650200 0.554620
C88 C 1.101600 0.360000 0.430900
C89 C 0.995100 1.017300 0.584700
C90 C 1.160400 0.308600 0.479800
C91 C 1.031900 0.805300 0.713900
C92 C 1.123700 0.361700 0.531000
C93 C 1.094500 0.775300 0.765800
C94 C 1.023000 0.472000 0.531250
C95 C 0.777200 0.733600 0.460380
C96 C 1.206400 0.860000 0.784100
C97 C 1.256300 0.969800 0.752900
C98 C 1.193400 1.003600 0.701300
C99 C 0.222800 0.233600 1.039620
C100 C -0.023000 -0.028000 0.968750
C101 C 1.074400 0.918100 0.681190
C102 C -0.123700 -0.138300 0.969000
C103 C 0.985600 0.917700 0.632060
C104 C 0.286700 0.755700 0.406560
C105 C 0.891700 0.805300 0.635860
C106 C 0.148800 0.827000 0.381730
C107 C 0.098400 0.955100 0.401330
C108 C 0.567500 0.736800 0.660920
C109 C -0.027600 1.018300 0.378980
C110 C 0.441300 0.674400 0.683060
C111 C -0.102500 0.953400 0.336590
C112 C -0.058700 0.825600 0.316940
C113 C 0.397500 0.546600 0.663410
C114 C 0.067500 0.763200 0.339080
C115 C 0.472400 0.481700 0.621020
C116 C 0.391700 0.694700 0.364140
C117 C 0.485600 0.582300 0.367940
C118 C 0.574400 0.581900 0.318810
C119 C 0.693400 0.496400 0.298700
C120 C 0.598400 0.544900 0.598670
C121 C 0.756300 0.530200 0.247100
C122 C 0.648800 0.673000 0.618270
C123 C 0.706400 0.640000 0.215900
C124 C 0.786700 0.744300 0.593440
C125 C 0.594500 0.724700 0.234200
C126 C 0.713300 0.255700 0.093440
C127 C 0.531900 0.694700 0.286100
C128 C 0.495100 0.482700 0.415300
C129 C -0.160400 -0.191400 1.020200
C130 C 0.851200 0.327000 0.118270
C131 C 0.722800 0.266400 -0.039620
C132 C 0.371100 0.849800 0.445380
C133 C 0.364800 0.857600 0.501870
C134 C 0.460800 0.971400 0.517750
C135 C 0.499900 1.031100 0.568160
C136 C 0.477000 0.528000 0.031250
C137 C 0.601600 1.140000 0.569100
C138 C 0.376300 0.638300 0.031000
C139 C 0.660400 1.191400 0.520200
C140 C 0.339600 0.691400 -0.020200
C141 C 0.623700 1.138300 0.469000
C142 C 0.398400 0.640000 -0.069100
C143 C 0.523000 1.028000 0.468750
C144 C 0.277200 0.766400 0.539620
C145 C 0.500100 0.531100 -0.068160
C146 C 0.539200 0.471400 -0.017750
C147 C 0.635200 0.357600 -0.001870
C148 C -0.101600 -0.140000 1.069100
C149 C 0.901600 0.455100 0.098670
C150 C 0.628900 0.349800 0.054620
C151 C 0.000100 -0.031100 1.068160
C152 C 0.504900 -0.017300 0.084700
C153 C 0.213300 0.244300 0.906560
C154 C 0.468100 0.194700 0.213900
C155 C 0.351200 0.173000 0.881730
C156 C 0.401600 0.044900 0.901330
C157 C 0.405500 0.224700 0.265800
C158 C 0.527600 -0.018300 0.878980
C159 C 0.293600 0.140000 0.284100
C160 C 0.602500 0.046600 0.836590
C161 C 0.558700 0.174400 0.816940
C162 C 0.243700 0.030200 0.252900
C163 C 0.432500 0.236800 0.839080
C164 C 0.306600 -0.003600 0.201300
C165 C 0.108300 0.305300 0.864140
C166 C 0.014400 0.417700 0.867940
C167 C -0.074400 0.418100 0.818810
C168 C -0.193400 0.503600 0.798700
C169 C 0.425600 0.081900 0.181190
C170 C -0.256300 0.469800 0.747100
C171 C 0.514400 0.082300 0.132060
C172 C -0.206400 0.360000 0.715900
C173 C 0.608300 0.194700 0.135860
C174 C -0.094500 0.275300 0.734200
C175 C 0.932500 0.263200 0.160920
C176 C -0.031900 0.305300 0.786100
C177 C 0.004900 0.517300 0.915300
C178 C 1.058700 0.325600 0.183060
C179 C 1.102500 0.453400 0.163410
C180 C 1.027600 0.518300 0.121020
C181 C 0.128900 0.150200 0.945380
C182 C 0.135200 0.142400 1.001870
C183 C 0.039200 0.028600 1.017750
C184 C 0.864800 0.642400 0.498130
N185 N 0.078000 0.236100 0.814860
N186 N 0.578000 0.263900 0.185140
N187 N 0.422000 0.763900 0.314860
N188 N 0.922000 0.736100 0.685140
N189 N 0.965100 0.546900 0.574920
N190 N 0.465100 0.953100 0.425080
N191 N 0.534900 0.453100 0.074920
N192 N 0.034900 0.046900 0.925080
Br193 Br 0.771620 -0.046320 0.804410
Br194 Br -0.271620 1.046320 0.304410
Br195 Br 0.228380 0.453680 0.695590
Br196 Br 1.271620 0.546320 0.195590

#END
