./KAHGIK_from_POSCAR.cif_generated_by_CrystalShift
_symmetry_cell_setting triclinic
_symmetry_space_group_name_H-M 'P 1'
loop_
_symmetry_equiv_pos_site_id
_symmetry_equiv_pos_as_xyz
1 x,y,z
_cell_length_a 14.221400
_cell_length_b 14.221400
_cell_length_c 9.619000
_cell_angle_alpha 90.000000
_cell_angle_beta 90.000000
_cell_angle_gamma 120.000000
_cell_volume 1684.787998
loop_
_atom_site_label
_atom_site_type_symbol
_atom_site_fract_x
_atom_site_fract_y
_atom_site_fract_z
H1 H 0.006000 0.359000 0.286000
H2 H -0.037100 0.119000 0.502000
H3 H -0.164000 0.334000 0.269000
H4 H -0.223000 0.429000 0.112000
H5 H -0.088800 0.566600 -0.029000
H6 H 0.222000 0.750000 -0.174000
H7 H 0.322000 0.422100 0.304000
H8 H 0.154000 0.771000 -0.095000
H9 H 0.318000 0.556000 0.445000
H10 H 0.094000 0.674000 -0.195000
H11 H 0.164000 0.497000 0.602000
H12 H 0.214300 0.510600 0.169000
H13 H 0.019000 0.327000 0.619000
H14 H 0.641000 0.648000 0.286000
H15 H 0.666000 0.503000 0.269000
H16 H 0.246000 0.239000 0.138000
H17 H 0.283000 0.179000 0.238000
H18 H 0.194000 0.111000 0.159000
H19 H 0.571000 0.349000 0.112000
H20 H 0.000000 0.000000 0.212000
H21 H 0.433400 0.345000 -0.029000
H22 H 0.250000 0.473000 -0.174000
H23 H 0.156100 0.037100 0.502000
H24 H 0.229000 0.384000 -0.095000
H25 H 0.326000 0.421000 -0.195000
H26 H 0.489400 0.703800 0.169000
H27 H 0.333300 0.666700 -0.121000
H28 H -0.007000 -0.246000 0.138000
H29 H -0.104000 -0.283000 0.238000
H30 H -0.083000 -0.194000 0.159000
H31 H 0.527000 0.778000 -0.174000
H32 H 0.100100 -0.322000 0.304000
H33 H 0.616000 0.846000 -0.095000
H34 H 0.238000 -0.318000 0.445000
H35 H 0.579000 0.906000 -0.195000
H36 H 0.333000 -0.164000 0.602000
H37 H 0.352000 0.994000 0.286000
H38 H 0.308000 -0.019000 0.619000
H39 H 0.497000 1.164000 0.269000
H40 H 0.651000 1.223000 0.112000
H41 H -0.119000 -0.156100 0.502000
H42 H 0.655000 1.088800 -0.029000
H43 H 0.296200 0.785700 0.169000
H44 H 0.340000 0.025000 0.952000
H45 H 0.170000 0.000000 0.935000
H46 H -0.239000 0.007000 0.138000
H47 H -0.179000 0.104000 0.238000
H48 H -0.111000 0.083000 0.159000
H49 H 0.111000 0.095000 0.778000
H50 H -0.422100 -0.100100 0.304000
H51 H 0.244600 0.233200 0.637000
H52 H -0.556000 -0.238000 0.445000
H53 H 0.556000 0.416000 0.492000
H54 H -0.497000 -0.333000 0.602000
H55 H 0.488000 0.437000 0.571000
H56 H -0.327000 -0.308000 0.619000
H57 H 0.428000 0.340000 0.471000
H58 H -0.037100 1.119000 0.502000
H59 H 0.547700 0.177200 0.835000
H60 H 0.975000 0.314000 0.952000
H61 H 1.000000 0.169000 0.935000
H62 H 0.905000 0.015000 0.778000
H63 H 0.322000 1.422100 0.304000
H64 H 0.766800 0.011000 0.637000
H65 H 0.318000 1.556000 0.445000
H66 H 0.584000 0.139000 0.492000
H67 H 0.164000 1.497000 0.602000
H68 H 0.563000 0.050000 0.571000
H69 H 0.019000 1.327000 0.619000
H70 H 0.660000 0.087000 0.471000
H71 H 0.822800 0.370400 0.835000
H72 H 0.246000 1.239000 0.138000
H73 H 0.283000 1.179000 0.238000
H74 H 0.194000 1.111000 0.159000
H75 H 0.666700 0.333300 0.545000
H76 H 0.000000 1.000000 0.212000
H77 H 0.861000 0.444000 0.492000
H78 H 0.950000 0.512000 0.571000
H79 H 0.156100 1.037100 0.502000
H80 H 0.913000 0.572000 0.471000
H81 H 0.686000 0.660000 0.952000
H82 H 0.831000 0.830000 0.935000
H83 H 0.985000 0.889000 0.778000
H84 H -0.007000 0.754000 0.138000
H85 H -0.104000 0.717000 0.238000
H86 H -0.083000 0.806000 0.159000
H87 H 0.989000 0.755400 0.637000
H88 H 0.100100 0.678000 0.304000
H89 H 0.629600 0.452300 0.835000
H90 H 0.238000 0.682000 0.445000
H91 H 0.673000 0.692000 0.619000
H92 H 0.333000 0.836000 0.602000
H93 H 0.503000 0.667000 0.602000
H94 H 0.308000 0.981000 0.619000
H95 H 0.444000 0.762000 0.445000
H96 H 0.577900 0.899900 0.304000
H97 H -0.119000 0.843900 0.502000
H98 H 0.889000 1.083000 0.159000
H99 H 0.821000 1.104000 0.238000
H100 H 0.761000 1.007000 0.138000
H101 H 0.881000 0.843900 0.502000
H102 H -0.239000 1.007000 0.138000
H103 H -0.179000 1.104000 0.238000
H104 H -0.111000 1.083000 0.159000
H105 H 1.308000 0.981000 0.619000
H106 H -0.422100 0.899900 0.304000
H107 H 1.333000 0.836000 0.602000
H108 H -0.556000 0.762000 0.445000
H109 H 1.238000 0.682000 0.445000
H110 H -0.497000 0.667000 0.602000
H111 H 1.100100 0.678000 0.304000
H112 H -0.327000 0.692000 0.619000
H113 H 0.917000 0.806000 0.159000
H114 H 0.962900 0.119000 0.502000
H115 H 0.896000 0.717000 0.238000
H116 H 0.993000 0.754000 0.138000
H117 H 1.156100 1.037100 0.502000
H118 H 1.000000 1.000000 0.212000
H119 H 1.322000 0.422100 0.304000
H120 H 1.194000 1.111000 0.159000
H121 H 1.318000 0.556000 0.445000
H122 H 1.283000 1.179000 0.238000
H123 H 1.164000 0.497000 0.602000
H124 H 1.246000 1.239000 0.138000
H125 H 1.019000 0.327000 0.619000
H126 H 1.019000 1.327000 0.619000
H127 H 1.164000 1.497000 0.602000
H128 H 1.246000 0.239000 0.138000
H129 H 1.283000 0.179000 0.238000
H130 H 1.194000 0.111000 0.159000
H131 H 1.318000 1.556000 0.445000
H132 H 1.000000 0.000000 0.212000
H133 H 1.322000 1.422100 0.304000
H134 H 0.962900 1.119000 0.502000
H135 H 1.156100 0.037100 0.502000
H136 H 0.673000 -0.308000 0.619000
H137 H 0.503000 -0.333000 0.602000
H138 H 0.444000 -0.238000 0.445000
H139 H 0.577900 -0.100100 0.304000
H140 H 0.993000 -0.246000 0.138000
H141 H 0.896000 -0.283000 0.238000
H142 H 0.917000 -0.194000 0.159000
H143 H 0.889000 0.083000 0.159000
H144 H 1.100100 -0.322000 0.304000
H145 H 0.821000 0.104000 0.238000
H146 H 1.238000 -0.318000 0.445000
H147 H 0.761000 0.007000 0.138000
H148 H 1.333000 -0.164000 0.602000
H149 H 0.881000 -0.156100 0.502000
H150 H 1.308000 -0.019000 0.619000
C151 C 0.881380 -0.057480 0.358090
C152 C 0.061140 0.118620 0.358090
C153 C 1.259650 -0.085480 0.555300
C154 C 0.731040 -0.177160 0.471070
C155 C 0.702670 -0.119710 0.376310
C156 C 0.800040 -0.043150 0.305370
C157 C 0.810600 0.035900 0.195600
C158 C 1.283870 -0.168000 0.542200
C159 C 1.226880 -0.254200 0.450800
C160 C 1.145610 -0.260970 0.367500
C161 C 0.593420 -0.145610 0.367500
C162 C 0.964100 -0.225300 0.195600
C163 C 0.518920 -0.226880 0.450800
C164 C 1.043150 -0.156810 0.305370
C165 C 0.548130 -0.283870 0.542200
C166 C 1.119710 -0.177620 0.376310
C167 C 0.654870 -0.259650 0.555300
C168 C 1.177160 -0.091800 0.471070
C169 C -0.118540 0.382800 0.208900
C170 C 0.156810 0.199960 0.305370
C171 C 1.061140 1.118620 0.358090
C172 C 1.156810 1.199960 0.305370
C173 C 1.177620 1.297330 0.376310
C174 C 1.260970 1.406580 0.367500
C175 C 1.057480 -0.061140 0.358090
C176 C 1.254200 1.481080 0.450800
C177 C 1.000000 0.000000 0.315200
C178 C 1.168000 1.451870 0.542200
C179 C 1.225300 0.189400 0.195600
C180 C 1.085480 1.345130 0.555300
C181 C 1.091800 0.268960 0.471070
C182 C 1.091800 1.268960 0.471070
C183 C 1.225300 1.189400 0.195600
C184 C 1.085480 0.345130 0.555300
C185 C 1.168000 0.451870 0.542200
C186 C 1.254200 0.481080 0.450800
C187 C 1.000000 1.000000 0.315200
C188 C 1.260970 0.406580 0.367500
C189 C 1.057480 0.938860 0.358090
C190 C -0.147750 0.439790 0.117500
C191 C 1.177620 0.297330 0.376310
C192 C 1.177160 0.908200 0.471070
C193 C 1.119710 0.822380 0.376310
C194 C 1.043150 0.843190 0.305370
C195 C 0.964100 0.774700 0.195600
C196 C 1.156810 0.199960 0.305370
C197 C 1.061140 0.118620 0.358090
C198 C 0.177620 0.297330 0.376310
C199 C 1.145610 0.739030 0.367500
C200 C -0.345130 0.740350 0.555300
C201 C 1.226880 0.745800 0.450800
C202 C -0.451870 0.716130 0.542200
C203 C 1.283870 0.832000 0.542200
C204 C -0.481080 0.773120 0.450800
C205 C 1.259650 0.914520 0.555300
C206 C -0.406580 0.854390 0.367500
C207 C 0.881380 0.942520 0.358090
C208 C -0.073250 0.521060 0.034200
C209 C -0.189400 1.035900 0.195600
C210 C 0.731040 0.822840 0.471070
C211 C 0.702670 0.880290 0.376310
C212 C 0.800040 0.956850 0.305370
C213 C 0.810600 1.035900 0.195600
C214 C -0.199960 0.956850 0.305370
C215 C -0.297330 0.880290 0.376310
C216 C -0.268960 0.822840 0.471070
C217 C 0.593420 0.854390 0.367500
C218 C 0.260970 0.406580 0.367500
C219 C 0.518920 0.773120 0.450800
C220 C -0.118620 0.942520 0.358090
C221 C 0.548130 0.716130 0.542200
C222 C 0.259650 0.914520 0.555300
C223 C 0.654870 0.740350 0.555300
C224 C 0.283870 0.832000 0.542200
C225 C 0.254200 0.481080 0.450800
C226 C 0.226880 0.745800 0.450800
C227 C 0.727810 0.451950 0.691420
C228 C 0.823480 0.533290 0.638700
C229 C 0.844290 0.630660 0.709640
C230 C 0.927640 0.739910 0.700800
C231 C 0.145610 0.739030 0.367500
C232 C 0.920870 0.814410 0.784100
C233 C -0.035900 0.774700 0.195600
C234 C 0.834700 0.785200 0.875500
C235 C 0.043150 0.843190 0.305370
C236 C 0.752150 0.678460 0.888600
C237 C 0.119710 0.822380 0.376310
C238 C 0.758470 0.602290 0.804400
C239 C 0.892000 0.522700 0.528900
C240 C 0.177160 0.908200 0.471070
C241 C 0.168000 0.451870 0.542200
C242 C 0.057480 0.938860 0.358090
C243 C 0.666700 0.333300 0.648500
C244 C 0.000000 1.000000 0.315200
C245 C 0.724150 0.272190 0.691420
C246 C 0.143900 0.702600 -0.137700
C247 C 0.225300 1.189400 0.195600
C248 C 0.843830 0.241530 0.804400
C249 C 0.786380 0.155710 0.709640
C250 C 0.709820 0.176520 0.638700
C251 C 0.630800 0.108000 0.528900
C252 C 0.091800 1.268960 0.471070
C253 C 0.085480 1.345130 0.555300
C254 C 0.168000 1.451870 0.542200
C255 C 0.812280 0.072360 0.700800
C256 C 0.254200 1.481080 0.450800
C257 C 0.893550 0.079130 0.784100
C258 C 0.260970 1.406580 0.367500
C259 C 0.950540 0.165300 0.875500
C260 C 0.177620 1.297330 0.376310
C261 C 0.926320 0.247850 0.888600
C262 C 0.156810 1.199960 0.305370
C263 C 0.548050 0.275850 0.691420
C264 C 0.133370 0.623520 -0.027960
C265 C 0.061140 1.118620 0.358090
C266 C 0.397710 0.156170 0.804400
C267 C 0.369340 0.213620 0.709640
C268 C 0.466710 0.290180 0.638700
C269 C 0.477300 0.369200 0.528900
C270 C 0.036000 0.546960 0.042980
C271 C -0.345130 -0.259650 0.555300
C272 C -0.451870 -0.283870 0.542200
C273 C 0.260090 0.187720 0.700800
C274 C -0.481080 -0.226880 0.450800
C275 C 0.185590 0.106450 0.784100
C276 C -0.406580 -0.145610 0.367500
C277 C 0.214800 0.049460 0.875500
C278 C -0.189400 0.035900 0.195600
C279 C 0.321540 0.073680 0.888600
C280 C -0.199960 -0.043150 0.305370
C281 C 0.064370 0.489510 0.137740
C282 C -0.297330 -0.119710 0.376310
C283 C 0.394470 0.785290 0.024760
C284 C 0.490140 0.866630 -0.027960
C285 C 0.510950 0.964000 0.042980
C286 C 0.594300 1.073250 0.034200
C287 C -0.268960 -0.177160 0.471070
C288 C 0.587530 1.147750 0.117500
C289 C 0.085480 0.345130 0.555300
C290 C 0.501300 1.118540 0.208900
C291 C -0.118620 -0.057480 0.358090
C292 C 0.418810 1.011800 0.222000
C293 C 0.259650 -0.085480 0.555300
C294 C 0.425130 0.935630 0.137740
C295 C 0.558600 0.856100 -0.137700
C296 C 0.283870 -0.168000 0.542200
C297 C 0.226880 -0.254200 0.450800
C298 C 0.145610 -0.260970 0.367500
C299 C 0.333300 0.666700 -0.018100
C300 C -0.035900 -0.225300 0.195600
C301 C 0.390810 0.605530 0.024760
C302 C 0.214710 0.609190 0.024760
C303 C 0.043150 -0.156810 0.305370
C304 C 0.510490 0.574870 0.137740
C305 C 0.453040 0.489050 0.042980
C306 C 0.376480 0.509860 -0.027960
C307 C 0.297400 0.441400 -0.137700
C308 C 0.119710 -0.177620 0.376310
C309 C 0.177160 -0.091800 0.471070
C310 C 0.091800 0.268960 0.471070
C311 C 0.478940 0.405700 0.034200
C312 C 0.057480 -0.061140 0.358090
C313 C 0.560210 0.412470 0.117500
C314 C 0.000000 0.000000 0.315200
C315 C 0.617200 0.498700 0.208900
C316 C 0.225300 0.189400 0.195600
C317 C 0.592980 0.581190 0.222000
C318 C -0.011800 0.407020 0.222000
N319 N 0.469880 0.644250 0.125180
N320 N 0.174360 0.530120 0.125180
N321 N -0.158970 -0.136550 0.458510
N322 N 0.355750 0.825640 0.125180
N323 N 0.022420 1.158970 0.458510
N324 N 0.507700 0.196780 0.791840
N325 N 0.803220 0.310910 0.791840
N326 N 0.136550 0.977580 0.458510
N327 N 0.689090 0.492300 0.791840
N328 N -0.158970 0.863450 0.458510
N329 N 0.841030 0.863450 0.458510
N330 N 1.022420 0.158970 0.458510
N331 N 1.136550 0.977580 0.458510
N332 N 1.136550 -0.022420 0.458510
N333 N 1.022420 1.158970 0.458510
N334 N 0.841030 -0.136550 0.458510
N335 N 0.136550 -0.022420 0.458510
N336 N 0.022420 0.158970 0.458510

#END
