./KAHJAE_from_POSCAR.cif_generated_by_CrystalShift
_symmetry_cell_setting triclinic
_symmetry_space_group_name_H-M 'P 1'
loop_
_symmetry_equiv_pos_site_id
_symmetry_equiv_pos_as_xyz
1 x,y,z
_cell_length_a 6.294000
_cell_length_b 15.865000
_cell_length_c 8.808000
_cell_angle_alpha 90.000000
_cell_angle_beta 90.000000
_cell_angle_gamma 90.000000
_cell_volume 879.516762
loop_
_atom_site_label
_atom_site_type_symbol
_atom_site_fract_x
_atom_site_fract_y
_atom_site_fract_z
H1 H -0.339300 0.579400 0.112500
H2 H -0.247500 0.526700 0.270100
H3 H 0.508500 0.699900 0.363700
H4 H 0.553900 0.750000 0.190100
H5 H 0.508500 0.800100 0.363700
H6 H 0.145200 0.750000 0.347900
H7 H -0.339300 0.920600 0.112500
H8 H 0.252500 0.026700 0.229900
H9 H 0.264300 -0.008500 0.417200
H10 H 0.160700 0.079400 0.387500
H11 H 0.645200 0.250000 0.152100
H12 H 1.008500 0.199900 0.136300
H13 H 1.053900 0.250000 0.309900
H14 H -0.235700 1.008500 0.082800
H15 H 1.008500 0.300100 0.136300
H16 H -0.247500 0.973300 0.270100
H17 H 0.839300 0.579400 0.612500
H18 H 0.735700 0.491500 0.582800
H19 H 0.747500 0.526700 0.770100
H20 H 0.252500 0.473300 0.229900
H21 H 0.264300 0.508500 0.417200
H22 H 0.160700 0.420600 0.387500
H23 H -0.008500 0.699900 0.863700
H24 H -0.053900 0.750000 0.690100
H25 H -0.008500 0.800100 0.863700
H26 H 0.354800 0.750000 0.847900
H27 H 0.839300 0.920600 0.612500
H28 H 0.735700 1.008500 0.582800
H29 H 0.747500 0.973300 0.770100
H30 H 1.247500 0.026700 0.729900
H31 H 1.235700 -0.008500 0.917200
H32 H 1.339300 0.079400 0.887500
H33 H 0.854800 0.250000 0.652100
H34 H 0.491500 0.199900 0.636300
H35 H 0.446100 0.250000 0.809900
H36 H 1.339300 0.420600 0.887500
H37 H 0.491500 0.300100 0.636300
H38 H 1.235700 0.508500 0.917200
H39 H 1.247500 0.473300 0.729900
H40 H -0.235700 0.491500 0.082800
C41 C 1.234800 0.462200 0.849200
C42 C -0.234800 0.537800 0.150800
C43 C 0.265200 0.037800 0.349200
C44 C 0.738200 0.250000 0.239500
C45 C 0.971400 0.250000 0.200300
C46 C 0.471400 0.750000 0.299700
C47 C 0.238200 0.750000 0.260500
C48 C -0.234800 0.962200 0.150800
C49 C 0.734800 0.962200 0.650800
C50 C 0.261800 0.750000 0.760500
C51 C 0.028600 0.750000 0.799700
C52 C 0.528600 0.250000 0.700300
C53 C 0.761800 0.250000 0.739500
C54 C 1.234800 0.037800 0.849200
C55 C 0.265200 0.462200 0.349200
C56 C 0.734800 0.537800 0.650800
N57 N 0.498900 0.856300 0.701100
N58 N 0.317300 0.674500 0.667200
N59 N 0.001100 0.643700 0.201100
N60 N 0.501100 0.143700 0.298900
N61 N 0.498900 0.643700 0.701100
N62 N 0.182700 0.674500 0.167200
N63 N 0.998900 0.143700 0.798900
N64 N 0.817300 0.174500 0.832800
N65 N 0.682700 0.174500 0.332800
N66 N 0.501100 0.356300 0.298900
N67 N 0.817300 0.325500 0.832800
N68 N 0.682700 0.325500 0.332800
N69 N 0.001100 0.856300 0.201100
N70 N 0.182700 0.825500 0.167200
N71 N 0.317300 0.825500 0.667200
N72 N 0.998900 0.356300 0.798900
O73 O 0.193000 0.850700 0.565900
O74 O 0.807000 0.350700 0.434100
O75 O 0.307000 0.850700 0.065900
O76 O 0.534400 0.923300 0.607200
O77 O -0.034400 0.923300 0.107200
O78 O 0.693000 0.350700 0.934100
O79 O 0.465600 0.423300 0.392800
O80 O 0.534400 0.576700 0.607200
O81 O 0.193000 0.649300 0.565900
O82 O 0.307000 0.649300 0.065900
O83 O 1.034400 0.076700 0.892800
O84 O -0.034400 0.576700 0.107200
O85 O 0.693000 0.149300 0.934100
O86 O 0.807000 0.149300 0.434100
O87 O 1.034400 0.423300 0.892800
O88 O 0.465600 0.076700 0.392800

#END
