
#######################################################################
#
#                 Cambridge Crystallographic Data Centre
#                                CCDC 
#
#######################################################################
#
# If this CIF has been generated from an entry in the Cambridge 
# Structural Database, then it will include bibliographic, chemical, 
# crystal, experimental, refinement or atomic coordinate data resulting 
# from the CCDC's data processing and validation procedures.
#
#######################################################################

data_KAHJAE
_symmetry_cell_setting           orthorhombic
_symmetry_space_group_name_H-M   'P c m n'
_symmetry_Int_Tables_number      62
_space_group_name_Hall           '-P 2n 2ac'
loop_
_symmetry_equiv_pos_site_id
_symmetry_equiv_pos_as_xyz
1 x,y,z
2 1/2-x,y,1/2+z
3 x,1/2-y,z
4 1/2-x,1/2-y,1/2+z
5 -x,-y,-z
6 1/2+x,-y,1/2-z
7 -x,1/2+y,-z
8 1/2+x,1/2+y,1/2-z
_cell_length_a                   6.294(1)
_cell_length_b                   15.865(3)
_cell_length_c                   8.808(2)
_cell_angle_alpha                90
_cell_angle_beta                 90
_cell_angle_gamma                90
_cell_volume                     879.517
loop_
_atom_site_label
_atom_site_type_symbol
_atom_site_fract_x
_atom_site_fract_y
_atom_site_fract_z
O1 O 0.4656(2) 0.0767(1) 0.3928(2)
O2 O 0.8070(2) 0.1493(1) 0.4341(2)
N1 N 0.5011(2) 0.1437(1) 0.2989(2)
N2 N 0.6827(2) 0.1745(1) 0.3328(2)
C1 C 0.2652(4) 0.0378(2) 0.3492(4)
C2 C 0.7382(4) 0.2500 0.2395(4)
C3 C 0.9714(5) 0.2500 0.2003(5)
H1 H 0.2525(48) 0.0267(16) 0.2299(30)
H2 H 0.2643(35) -0.0085(15) 0.4172(22)
H3 H 0.1607(36) 0.0794(18) 0.3875(33)
H4 H 0.6452(39) 0.2500 0.1521(31)
H5 H 1.0085(34) 0.1999(13) 0.1363(22)
H6 H 1.0539(42) 0.2500 0.3099(30)
N2B N 0.6827(2) 0.3255(1) 0.3328(2)
H5B H 1.0085(34) 0.3001(13) 0.1363(22)
O2B O 0.8070(2) 0.3507(1) 0.4341(2)
N1B N 0.5011(2) 0.3563(1) 0.2989(2)
O1B O 0.4656(2) 0.4233(1) 0.3928(2)
C1B C 0.2652(4) 0.4622(2) 0.3492(4)
H1B H 0.2525(48) 0.4733(16) 0.2299(30)
H2B H 0.2643(35) 0.5085(15) 0.4172(22)
H3B H 0.1607(36) 0.4206(18) 0.3875(33)
O1 O 1.0344(2) 0.0767(1) 0.8928(2)
O2 O 0.6930(2) 0.1493(1) 0.9341(2)
N1 N 0.9989(2) 0.1437(1) 0.7989(2)
N2 N 0.8173(2) 0.1745(1) 0.8328(2)
C1 C 1.2348(4) 0.0378(2) 0.8492(4)
C2 C 0.7618(4) 0.2500 0.7395(4)
C3 C 0.5286(5) 0.2500 0.7003(5)
H1 H 1.2475(48) 0.0267(16) 0.7299(30)
H2 H 1.2357(35) -0.0085(15) 0.9172(22)
H3 H 1.3393(36) 0.0794(18) 0.8875(33)
H4 H 0.8548(39) 0.2500 0.6521(31)
H5 H 0.4915(34) 0.1999(13) 0.6363(22)
H6 H 0.4461(42) 0.2500 0.8099(30)
N2B N 0.8173(2) 0.3255(1) 0.8328(2)
H5B H 0.4915(34) 0.3001(13) 0.6363(22)
O2B O 0.6930(2) 0.3507(1) 0.9341(2)
N1B N 0.9989(2) 0.3563(1) 0.7989(2)
O1B O 1.0344(2) 0.4233(1) 0.8928(2)
C1B C 1.2348(4) 0.4622(2) 0.8492(4)
H1B H 1.2475(48) 0.4733(16) 0.7299(30)
H2B H 1.2357(35) 0.5085(15) 0.9172(22)
H3B H 1.3393(36) 0.4206(18) 0.8875(33)
O1 O 0.5344(2) 0.9233(1) 0.6072(2)
O2 O 0.1930(2) 0.8507(1) 0.5659(2)
N1 N 0.4989(2) 0.8563(1) 0.7011(2)
N2 N 0.3173(2) 0.8255(1) 0.6672(2)
C1 C 0.7348(4) 0.9622(2) 0.6508(4)
C2 C 0.2618(4) 0.7500 0.7605(4)
C3 C 0.0286(5) 0.7500 0.7997(5)
H1 H 0.7475(48) 0.9733(16) 0.7701(30)
H2 H 0.7357(35) 1.0085(15) 0.5828(22)
H3 H 0.8393(36) 0.9206(18) 0.6125(33)
H4 H 0.3548(39) 0.7500 0.8479(31)
H5 H -0.0085(34) 0.8001(13) 0.8637(22)
H6 H -0.0539(42) 0.7500 0.6901(30)
N2B N 0.3173(2) 0.6745(1) 0.6672(2)
H5B H -0.0085(34) 0.6999(13) 0.8637(22)
O2B O 0.1930(2) 0.6493(1) 0.5659(2)
N1B N 0.4989(2) 0.6437(1) 0.7011(2)
O1B O 0.5344(2) 0.5767(1) 0.6072(2)
C1B C 0.7348(4) 0.5378(2) 0.6508(4)
H1B H 0.7475(48) 0.5267(16) 0.7701(30)
H2B H 0.7357(35) 0.4915(15) 0.5828(22)
H3B H 0.8393(36) 0.5794(18) 0.6125(33)
O1 O -0.0344(2) 0.9233(1) 0.1072(2)
O2 O 0.3070(2) 0.8507(1) 0.0659(2)
N1 N 0.0011(2) 0.8563(1) 0.2011(2)
N2 N 0.1827(2) 0.8255(1) 0.1672(2)
C1 C -0.2348(4) 0.9622(2) 0.1508(4)
C2 C 0.2382(4) 0.7500 0.2605(4)
C3 C 0.4714(5) 0.7500 0.2997(5)
H1 H -0.2475(48) 0.9733(16) 0.2701(30)
H2 H -0.2357(35) 1.0085(15) 0.0828(22)
H3 H -0.3393(36) 0.9206(18) 0.1125(33)
H4 H 0.1452(39) 0.7500 0.3479(31)
H5 H 0.5085(34) 0.8001(13) 0.3637(22)
H6 H 0.5539(42) 0.7500 0.1901(30)
N2B N 0.1827(2) 0.6745(1) 0.1672(2)
H5B H 0.5085(34) 0.6999(13) 0.3637(22)
O2B O 0.3070(2) 0.6493(1) 0.0659(2)
N1B N 0.0011(2) 0.6437(1) 0.2011(2)
O1B O -0.0344(2) 0.5767(1) 0.1072(2)
C1B C -0.2348(4) 0.5378(2) 0.1508(4)
H1B H -0.2475(48) 0.5267(16) 0.2701(30)
H2B H -0.2357(35) 0.4915(15) 0.0828(22)
H3B H -0.3393(36) 0.5794(18) 0.1125(33)

#END
