./KAHLOX_from_POSCAR.cif_generated_by_CrystalShift
_symmetry_cell_setting triclinic
_symmetry_space_group_name_H-M 'P 1'
loop_
_symmetry_equiv_pos_site_id
_symmetry_equiv_pos_as_xyz
1 x,y,z
_cell_length_a 28.279800
_cell_length_b 28.279800
_cell_length_c 5.932100
_cell_angle_alpha 90.000000
_cell_angle_beta 90.000000
_cell_angle_gamma 120.000000
_cell_volume 4108.580141
loop_
_atom_site_label
_atom_site_type_symbol
_atom_site_fract_x
_atom_site_fract_y
_atom_site_fract_z
H1 H 0.532800 0.825100 0.246700
H2 H 0.935800 0.024700 1.084400
H3 H 0.554600 0.889200 0.224600
H4 H 0.865000 0.137800 1.189500
H5 H 0.918400 0.196800 1.161800
H6 H 0.538000 0.774000 -0.119800
H7 H 0.974200 0.157800 1.114700
H8 H 0.938900 0.131900 1.338700
H9 H 0.579400 0.813900 -0.307400
H10 H 0.876800 0.053800 1.139700
H11 H 0.601000 0.813200 -0.058700
H12 H 0.944700 0.100100 0.750400
H13 H 0.891700 0.040400 0.760900
H14 H 0.586900 0.889600 -0.140800
H15 H 0.474200 0.810200 -0.091800
H16 H 0.821700 0.041800 0.561300
H17 H 0.502000 0.831600 -0.332700
H18 H 0.790400 0.120500 0.666100
H19 H 0.493300 0.895700 0.001400
H20 H 0.522000 0.917700 -0.237800
H21 H 0.765500 0.016200 0.272500
H22 H 0.771600 0.059100 0.082800
H23 H 0.405400 0.837700 -0.195700
H24 H 0.434900 0.864200 -0.430000
H25 H 0.691400 -0.019000 0.002700
H26 H 0.672100 -0.027600 0.260100
H27 H 0.440500 0.951200 -0.554000
H28 H 0.620700 0.002000 0.061500
H29 H 0.674700 0.053400 -0.036600
H30 H 0.451500 0.995400 -0.362700
H31 H 0.493600 0.973800 -0.397700
H32 H 0.736700 0.125700 0.201700
H33 H 0.435700 0.932900 -0.078400
H34 H 0.754500 0.181300 0.502700
H35 H 0.716000 0.131600 0.668700
H36 H 0.087400 0.766000 0.313200
H37 H 0.682700 0.185700 0.369900
H38 H 0.646800 0.144100 0.566300
H39 H 0.103500 0.802700 0.081300
H40 H 0.652400 0.121000 0.105300
H41 H 0.345500 0.988100 0.056100
H42 H 0.596200 -0.001500 0.460300
H43 H 0.629700 0.049900 0.622700
H44 H 0.654500 0.011900 0.556100
H45 H 0.370300 0.950100 0.122700
H46 H 0.896500 0.197300 0.581300
H47 H 0.912600 0.234000 0.813200
H48 H 0.403800 1.001500 -0.039700
H49 H 0.564300 0.067100 0.421600
H50 H 0.347600 0.879000 -0.394700
H51 H 0.506400 0.026200 0.102300
H52 H 0.548500 0.004600 0.137300
H53 H 0.559500 0.048800 -0.054000
H54 H 0.353200 0.855900 0.066300
H55 H 0.565100 0.135800 0.070000
H56 H 0.594600 0.162300 0.304300
H57 H 0.317300 0.814300 -0.130100
H58 H 0.478000 0.082300 0.262200
H59 H 0.506700 0.104300 0.501400
H60 H 0.284000 0.868400 0.168700
H61 H 0.498000 0.168400 0.167300
H62 H 0.525800 0.189800 0.408200
H63 H 0.245500 0.818700 0.002700
H64 H 0.413100 0.110400 0.359200
H65 H 0.263300 0.874300 -0.298300
H66 H 0.399000 0.186800 0.441300
H67 H 0.420600 0.186100 0.192600
H68 H 0.462000 0.226000 0.380200
H69 H 0.325300 0.946600 -0.536600
H70 H 0.445400 0.110800 0.724600
H71 H 0.403000 0.132700 0.731000
H72 H 0.467200 0.174900 0.746700
H73 H 0.379300 0.998000 -0.438500
H74 H 0.911100 0.935800 0.917700
H75 H 0.327900 1.027600 -0.239900
H76 H 0.727200 0.865000 1.022800
H77 H 0.721600 0.918400 0.995100
H78 H 0.308600 1.019000 -0.497300
H79 H 0.816400 0.974200 0.948000
H80 H 0.807000 0.938900 1.172000
H81 H 0.228400 0.940900 -0.417200
H82 H 0.823000 0.876800 0.973000
H83 H 0.234500 0.983800 -0.227500
H84 H 0.844600 0.944700 0.583700
H85 H 0.851300 0.891700 0.594200
H86 H 0.209600 0.879500 0.166100
H87 H 0.178300 0.958200 0.061300
H88 H 0.779900 0.821700 0.394600
H89 H 0.108300 0.959600 0.260900
H90 H 0.669900 0.790400 0.499400
H91 H 0.055300 0.899900 0.250400
H92 H 0.123200 0.946200 0.639700
H93 H 0.749300 0.765500 0.105800
H94 H 0.712500 0.771600 -0.083900
H95 H 0.061100 0.868100 0.838700
H96 H 0.025800 0.842200 0.614700
H97 H 0.710400 0.691400 -0.164000
H98 H 0.699700 0.672100 0.093400
H99 H 0.081600 0.803200 0.661800
H100 H 0.618700 0.620700 -0.105200
H101 H 0.621300 0.674700 -0.203300
H102 H 0.135000 0.862200 0.689500
H103 H 0.064200 0.975300 0.584400
H104 H 0.611000 0.736700 0.035000
H105 H 0.707700 0.532800 1.080000
H106 H 0.573200 0.754500 0.336000
H107 H 0.584400 0.716000 0.502000
H108 H 0.729700 0.597000 1.064300
H109 H 0.497000 0.682700 0.203200
H110 H 0.502700 0.646800 0.399600
H111 H 0.665400 0.554600 1.057900
H112 H 0.531400 0.652400 -0.061400
H113 H 0.764000 0.538000 0.713500
H114 H 0.597700 0.596200 0.293600
H115 H 0.579800 0.629700 0.456000
H116 H 0.642600 0.654500 0.389400
H117 H 0.765500 0.579400 0.525900
H118 H 0.699200 0.896500 0.414600
H119 H 0.678600 0.912600 0.646500
H120 H 0.787800 0.601000 0.774600
H121 H 0.497200 0.564300 0.254900
H122 H 0.697300 0.586900 0.692500
H123 H 0.480200 0.506400 -0.064400
H124 H 0.543900 0.548500 -0.029400
H125 H 0.510700 0.559500 -0.220700
H126 H 0.664000 0.474200 0.741500
H127 H 0.429300 0.565100 -0.096700
H128 H 0.432300 0.594600 0.137600
H129 H 0.670400 0.502000 0.500600
H130 H 0.395700 0.478000 0.095500
H131 H 0.402400 0.506700 0.334700
H132 H 0.597600 0.493300 0.834700
H133 H 0.329600 0.498000 0.000600
H134 H 0.336000 0.525800 0.241500
H135 H 0.604300 0.522000 0.595500
H136 H 0.302700 0.413100 0.192500
H137 H 0.567700 0.405400 0.637600
H138 H 0.212200 0.399000 0.274600
H139 H 0.234500 0.420600 0.025900
H140 H 0.236000 0.462000 0.213500
H141 H 0.570700 0.434900 0.403300
H142 H 0.334600 0.445400 0.557900
H143 H 0.270300 0.403000 0.564300
H144 H 0.292300 0.467200 0.580000
H145 H 0.489300 0.440500 0.279300
H146 H 0.024700 0.088900 1.251100
H147 H 0.456100 0.451500 0.470600
H148 H 0.137800 0.272800 1.356200
H149 H 0.196800 0.278400 1.328500
H150 H 0.519800 0.493600 0.435600
H151 H 0.157800 0.183600 1.281400
H152 H 0.131900 0.193000 1.505400
H153 H 0.502800 0.435700 0.754900
H154 H 0.053800 0.177000 1.306400
H155 H 0.321400 0.087400 1.146500
H156 H 0.100100 0.155400 0.917100
H157 H 0.040400 0.148700 0.927600
H158 H 0.300800 0.103500 0.914600
H159 H 0.357400 0.345500 0.889400
H160 H 0.041800 0.220100 0.728000
H161 H 0.420200 0.370300 0.956000
H162 H 0.120500 0.330100 0.832800
H163 H 0.402300 0.403800 0.793600
H164 H 0.468600 0.347600 0.438600
H165 H 0.016200 0.250700 0.439200
H166 H 0.059100 0.287500 0.249500
H167 H 0.497300 0.353200 0.899600
H168 H 0.503000 0.317300 0.703200
H169 H -0.019000 0.289600 0.169400
H170 H -0.027600 0.300300 0.426800
H171 H 0.415600 0.284000 1.002000
H172 H 0.002000 0.381300 0.228200
H173 H 0.053400 0.378700 0.130100
H174 H 0.426800 0.245500 0.836000
H175 H 0.389000 0.263300 0.535000
H176 H 0.125700 0.389000 0.368400
H177 H 0.378700 0.325300 0.296700
H178 H 0.181300 0.426800 0.669400
H179 H 0.131600 0.415600 0.835400
H180 H 0.381300 0.379300 0.394800
H181 H 0.185700 0.503000 0.536600
H182 H 0.144100 0.497300 0.733000
H183 H 0.300300 0.327900 0.593400
H184 H 0.121000 0.468600 0.272000
H185 H 0.289600 0.308600 0.336000
H186 H -0.001500 0.402300 0.627000
H187 H 0.049900 0.420200 0.789400
H188 H 0.011900 0.357400 0.722800
H189 H 0.287500 0.228400 0.416100
H190 H 0.197300 0.300800 0.748000
H191 H 0.234000 0.321400 0.979900
H192 H 0.250700 0.234500 0.605800
H193 H 0.067100 0.502800 0.588300
H194 H 0.330100 0.209600 0.999400
H195 H 0.026200 0.519800 0.269000
H196 H 0.004600 0.456100 0.304000
H197 H 0.048800 0.489300 0.112700
H198 H 0.220100 0.178300 0.894600
H199 H 0.135800 0.570700 0.236700
H200 H 0.162300 0.567700 0.471000
H201 H 0.148700 0.108300 1.094200
H202 H 0.082300 0.604300 0.428900
H203 H 0.104300 0.597600 0.668100
H204 H 0.155400 0.055300 1.083700
H205 H 0.168400 0.670400 0.334000
H206 H 0.189800 0.664000 0.574900
H207 H 0.177000 0.123200 1.473000
H208 H 0.110400 0.697300 0.525900
H209 H 0.193000 0.061100 1.672000
H210 H 0.186800 0.787800 0.608000
H211 H 0.186100 0.765500 0.359300
H212 H 0.226000 0.764000 0.546900
H213 H 0.183600 0.025800 1.448000
H214 H 0.110800 0.665400 0.891300
H215 H 0.132700 0.729700 0.897700
H216 H 0.174900 0.707700 0.913400
H217 H 0.278400 0.081600 1.495100
H218 H 0.975300 0.911100 0.751100
H219 H 0.272800 0.135000 1.522800
H220 H 0.862200 0.727200 0.856200
H221 H 0.803200 0.721600 0.828500
H222 H 0.088900 0.064200 1.417700
H223 H 0.842200 0.816400 0.781400
H224 H 0.868100 0.807000 1.005400
H225 H 0.825100 0.292300 0.413400
H226 H 0.946200 0.823000 0.806400
H227 H 0.867300 0.270300 0.397700
H228 H 0.899900 0.844600 0.417100
H229 H 0.959600 0.851300 0.427600
H230 H 0.889200 0.334600 0.391300
H231 H 0.774000 0.236000 0.046900
H232 H 0.958200 0.779900 0.228000
H233 H 0.813900 0.234500 -0.140700
H234 H 0.879500 0.669900 0.332800
H235 H 0.813200 0.212200 0.108000
H236 H 0.889600 0.302700 0.025900
H237 H 0.983800 0.749300 -0.060800
H238 H 0.940900 0.712500 -0.250500
H239 H 0.810200 0.336000 0.074900
H240 H 0.831600 0.329600 -0.166000
H241 H 1.019000 0.710400 -0.330600
H242 H 1.027600 0.699700 -0.073200
H243 H 0.895700 0.402400 0.168100
H244 H 0.998000 0.618700 -0.271800
H245 H 0.946600 0.621300 -0.369900
H246 H 0.917700 0.395700 -0.071100
H247 H 0.837700 0.432300 -0.029000
H248 H 0.874300 0.611000 -0.131600
H249 H 0.864200 0.429300 -0.263300
H250 H 0.818700 0.573200 0.169400
H251 H 0.868400 0.584400 0.335400
H252 H 0.951200 0.510700 -0.387300
H253 H 0.814300 0.497000 0.036600
H254 H 0.855900 0.502700 0.233000
H255 H 0.995400 0.543900 -0.196000
H256 H 0.879000 0.531400 -0.228000
H257 H 0.973800 0.480200 -0.231000
H258 H 1.001500 0.597700 0.127000
H259 H 0.950100 0.579800 0.289400
H260 H 0.988100 0.642600 0.222800
H261 H 0.932900 0.497200 0.088300
H262 H 0.802700 0.699200 0.248000
H263 H 0.766000 0.678600 0.479900
H264 H 0.597000 0.867300 0.231000
C265 C 0.799970 0.700940 0.407000
C266 C 0.963700 0.508700 -0.235300
C267 C 0.972200 0.604900 0.169300
C268 C 0.895800 0.535100 -0.075900
C269 C 0.850700 0.521400 0.102500
C270 C 0.871300 0.436600 -0.100000
C271 C 0.854600 0.575200 0.178900
C272 C 0.895060 0.616790 0.012000
C273 C 0.885600 0.393000 0.008000
C274 C 0.936370 0.596730 -0.034600
C275 C 0.970600 0.629660 -0.236800
C276 C 0.842000 0.338500 -0.005700
C277 C 0.999700 0.690800 -0.191800
C278 C 0.843940 0.734820 0.528500
C279 C 0.854200 0.296200 0.091000
C280 C 0.961500 0.711400 -0.117600
C281 C 0.809900 0.239700 0.020100
C282 C 0.921310 0.676780 0.063800
C283 C 0.905960 0.696300 0.234300
C284 C 0.924400 0.752970 0.290300
C285 C 0.859400 0.298500 0.346000
C286 C 0.897790 0.770500 0.422200
C287 C 0.921810 0.830000 0.486200
C288 C 0.922300 0.836210 0.740600
C289 C 0.900530 0.158320 1.110600
C290 C 0.866100 0.802890 0.839400
C291 C 0.257790 0.099470 1.443900
C292 C 0.841680 0.742210 0.777300
C293 C 0.560900 0.859400 0.179300
C294 C 0.197110 0.063210 1.506000
C295 C 0.140600 0.701500 0.846000
C296 C 0.190100 0.760300 0.520100
C297 C 0.163790 0.086090 1.407200
C298 C 0.145800 0.703800 0.591000
C299 C 0.170000 0.091810 1.152800
C300 C 0.158000 0.661500 0.494300
C301 C 0.114400 0.607000 0.508000
C302 C 0.229500 0.127290 1.088800
C303 C 0.247030 0.171430 0.956900
C304 C 0.128700 0.563400 0.400000
C305 C 0.303700 0.209660 0.900900
C306 C 0.036300 0.491300 0.264700
C307 C 0.323220 0.244530 0.730400
C308 C 0.288600 0.250100 0.549000
C309 C 0.082300 0.505200 0.433800
C310 C 0.200030 0.299060 0.907000
C311 C 0.265180 0.109120 1.195100
C312 C 0.309200 0.308900 0.474800
C313 C 0.027800 0.395100 0.669300
C314 C 0.104200 0.464900 0.424100
C315 C 0.370340 0.340940 0.429800
C316 C 0.149300 0.478600 0.602500
C317 C 0.145400 0.424800 0.678900
C318 C 0.403270 0.339640 0.632000
C319 C 0.383210 0.278270 0.678600
C320 C 0.104940 0.383210 0.512000
C321 C 0.424800 0.279400 0.845500
C322 C 0.063630 0.403270 0.465400
C323 C 0.029400 0.370340 0.263200
C324 C 0.478600 0.329300 0.769100
C325 C 0.000300 0.309200 0.308200
C326 C 0.156060 0.265180 1.028500
C327 C 0.464900 0.360700 0.590700
C328 C 0.038500 0.288600 0.382400
C329 C 0.395100 0.367300 0.835900
C330 C 0.078690 0.323220 0.563800
C331 C 0.094040 0.303700 0.734300
C332 C 0.075600 0.247030 0.790300
C333 C 0.299060 0.099030 1.073600
C334 C 0.102210 0.229500 0.922200
C335 C 0.078190 0.170000 0.986200
C336 C 0.505200 0.422900 0.600400
C337 C 0.077700 0.163790 1.240600
C338 C 0.491300 0.455000 0.431300
C339 C 0.133900 0.197110 1.339400
C340 C 0.158320 0.257790 1.277300
C341 C 0.936790 0.133900 1.172700
C342 C 0.563400 0.434700 0.566600
C343 C 0.298500 0.439100 0.512600
C344 C 0.239700 0.429800 0.186700
C345 C 0.607000 0.492600 0.674000
C346 C 0.296200 0.442000 0.257600
C347 C 0.338500 0.496500 0.160900
C348 C 0.661500 0.503500 0.660900
C349 C 0.393000 0.507400 0.174000
C350 C 0.436600 0.565300 0.066600
C351 C 0.703800 0.558000 0.757600
C352 C 0.508700 0.545000 -0.068700
C353 C 0.760300 0.570200 0.686700
C354 C 0.494800 0.577100 0.100400
C355 C 0.700940 0.900970 0.573600
C356 C 0.604900 0.632700 0.335900
C357 C 0.701500 0.560900 1.012600
C358 C 0.535100 0.639300 0.090700
C359 C 0.521400 0.670700 0.269100
C360 C 0.575200 0.720600 0.345500
C361 C 0.913910 0.077700 1.073900
C362 C 0.616790 0.721730 0.178600
C363 C 0.099470 0.841680 0.610600
C364 C 0.596730 0.660360 0.132000
C365 C 0.629660 0.659060 -0.070200
C366 C 0.063210 0.866100 0.672700
C367 C 0.690800 0.691100 -0.025200
C368 C 0.734820 0.890880 0.695100
C369 C 0.086090 0.922300 0.573900
C370 C 0.711400 0.749900 0.049000
C371 C 0.091810 0.921810 0.319500
C372 C 0.676780 0.755470 0.230400
C373 C 0.696300 0.790340 0.400900
C374 C 0.127290 0.897790 0.255500
C375 C 0.171430 0.924400 0.123600
C376 C 0.752970 0.828570 0.456900
C377 C 0.209660 0.905960 0.067600
C378 C 0.770500 0.872710 0.588800
C379 C 0.244530 0.921310 -0.102900
C380 C 0.250100 0.961500 -0.284300
C381 C 0.830000 0.908190 0.652800
C382 C 0.836210 0.913910 0.907200
C383 C 0.109120 0.843940 0.361800
C384 C 0.308900 0.999700 -0.358500
C385 C 0.802890 0.936790 1.006000
C386 C 0.742210 0.900530 0.943900
C387 C 0.340940 0.970600 -0.403500
C388 C 0.908190 0.078190 0.819500
C389 C 0.439100 0.140600 0.679300
C390 C 0.339640 0.936370 -0.201300
C391 C 0.278270 0.895060 -0.154700
C392 C 0.429800 0.190100 0.353400
C393 C 0.279400 0.854600 0.012200
C394 C 0.442000 0.145800 0.424300
C395 C 0.496500 0.158000 0.327600
C396 C 0.329300 0.850700 -0.064200
C397 C 0.507400 0.114400 0.341000
C398 C 0.565300 0.128700 0.233300
C399 C 0.360700 0.895800 -0.242600
C400 C 0.545000 0.036300 0.098000
C401 C 0.367300 0.972200 0.002600
C402 C 0.577100 0.082300 0.267100
C403 C 0.900970 0.200030 0.740300
C404 C 0.632700 0.027800 0.502600
C405 C 0.099030 0.799970 0.240300
C406 C 0.639300 0.104200 0.257400
C407 C 0.670700 0.149300 0.435800
C408 C 0.422900 0.917700 -0.232900
C409 C 0.720600 0.145400 0.512200
C410 C 0.455000 0.963700 -0.402000
C411 C 0.721730 0.104940 0.345300
C412 C 0.660360 0.063630 0.298700
C413 C 0.659060 0.029400 0.096500
C414 C 0.434700 0.871300 -0.266700
C415 C 0.691100 0.000300 0.141500
C416 C 0.890880 0.156060 0.861800
C417 C 0.492600 0.885600 -0.159000
C418 C 0.749900 0.038500 0.215700
C419 C 0.755470 0.078690 0.397100
C420 C 0.503500 0.842000 -0.172400
C421 C 0.790340 0.094040 0.567600
C422 C 0.828570 0.075600 0.623600
C423 C 0.558000 0.854200 -0.075700
C424 C 0.872710 0.102210 0.755500
C425 C 0.570200 0.809900 -0.146600
C426 C 0.917700 0.494800 -0.066200
O427 O 0.056130 0.107890 1.305400
O428 O 0.943870 0.892110 0.805400
O429 O 0.107890 0.051760 1.472000
O430 O 0.051760 0.943870 0.638700
O431 O 0.892110 0.948240 0.972000
O432 O 0.948240 0.056130 1.138700

#END
