./KAHNUF_from_POSCAR.cif_generated_by_CrystalShift
_symmetry_cell_setting triclinic
_symmetry_space_group_name_H-M 'P 1'
loop_
_symmetry_equiv_pos_site_id
_symmetry_equiv_pos_as_xyz
1 x,y,z
_cell_length_a 16.660000
_cell_length_b 6.124000
_cell_length_c 17.274000
_cell_angle_alpha 90.000000
_cell_angle_beta 106.504000
_cell_angle_gamma 90.000000
_cell_volume 1689.783544
loop_
_atom_site_label
_atom_site_type_symbol
_atom_site_fract_x
_atom_site_fract_y
_atom_site_fract_z
H1 H 0.571500 0.127500 0.057700
H2 H 0.501800 0.018200 0.092800
H3 H 0.725600 -0.084600 0.326300
H4 H 0.635900 -0.132900 0.196200
H5 H 0.566100 0.500600 0.189600
H6 H 0.652000 0.550400 0.320800
H7 H 0.777400 0.154700 0.653700
H8 H 0.851900 0.189500 0.613100
H9 H 0.018500 0.124200 1.055300
H10 H 0.799600 -0.104700 0.522400
H11 H -0.045600 0.294200 1.143800
H12 H 0.670500 -0.264800 0.509000
H13 H 0.000000 0.635300 1.197900
H14 H 0.724500 -0.300700 0.600900
H15 H 0.108800 0.813500 1.164300
H16 H 0.608800 -0.313500 0.664300
H17 H 0.500000 -0.135300 0.697900
H18 H 0.224500 0.800700 1.100900
H19 H 0.170500 0.764800 1.009000
H20 H 0.454400 0.205800 0.643800
H21 H 0.299600 0.604700 1.022400
H22 H 0.518500 0.375800 0.555300
H23 H 0.928500 0.627500 0.442300
H24 H 0.351900 0.310500 1.113100
H25 H 0.277400 0.345300 1.153700
H26 H 0.998900 0.776300 0.421900
H27 H 0.998200 0.518200 0.407200
H28 H 0.152000 -0.050400 0.820800
H29 H 0.774400 0.415400 0.173700
H30 H 0.066100 -0.000600 0.689600
H31 H 0.864100 0.367100 0.303800
H32 H 0.933900 1.000600 0.310400
H33 H 0.135900 0.632900 0.696200
H34 H 0.848000 1.050400 0.179200
H35 H 0.225600 0.584600 0.826300
H36 H 0.722600 0.654700 -0.153700
H37 H 0.001800 0.481800 0.592800
H38 H 0.001100 0.223700 0.578100
H39 H 0.071500 0.372500 0.557700
H40 H 0.648100 0.689500 -0.113100
H41 H 0.700400 0.395300 -0.022400
H42 H 0.829500 0.235200 -0.009000
H43 H 0.775500 0.199300 -0.100900
H44 H 0.891200 0.186500 -0.164300
H45 H 1.000000 0.364700 -0.197900
H46 H 1.045600 0.705800 -0.143800
H47 H 0.981500 0.875800 -0.055300
H48 H 0.481500 0.624200 0.444700
H49 H 0.428500 0.872500 0.942300
H50 H 0.545600 0.794200 0.356200
H51 H 0.498900 0.723700 0.921900
H52 H 0.500000 1.135300 0.302100
H53 H 0.498200 0.981800 0.907200
H54 H 0.391200 1.313500 0.335700
H55 H 0.274400 1.084600 0.673700
H56 H 0.364100 1.132900 0.803800
H57 H 0.275500 1.300700 0.399100
H58 H 0.329500 1.264800 0.491000
H59 H 0.433900 0.499400 0.810400
H60 H 0.200400 1.104700 0.477600
H61 H 0.348000 0.449600 0.679200
H62 H 0.222600 0.845300 0.346300
H63 H 0.148100 0.810500 0.386900
H64 H 0.501100 0.276300 0.078100
C65 C 0.303430 0.763200 0.664470
C66 C 0.350810 0.587800 0.704770
C67 C 0.359450 0.761800 0.500720
C68 C 0.401910 0.618500 0.782540
C69 C 0.238460 1.027700 0.450970
C70 C 0.407430 0.820300 0.820690
C71 C 0.360090 0.993700 0.778790
C72 C 0.303400 1.189300 0.439270
C73 C 0.307300 0.966400 0.701230
C74 C 0.370220 1.076900 0.410940
C75 C 0.463130 0.852400 0.905440
C76 C 0.409160 1.174100 0.358060
C77 C 0.473830 1.068000 0.338180
C78 C 0.500870 0.864800 0.370220
C79 C 0.536870 0.147600 0.094560
C80 C 0.692700 0.033600 0.298770
C81 C 0.639910 0.006300 0.221210
C82 C 0.592570 0.179700 0.179310
C83 C 0.598090 0.381500 0.217460
C84 C 0.649190 0.412200 0.295230
C85 C 0.897490 0.629300 -0.057390
C86 C 0.963120 0.736300 -0.077320
C87 C 0.463120 0.763700 0.422680
C88 C 1.000870 0.635200 -0.129780
C89 C 0.397490 0.870700 0.442610
C90 C 0.973830 0.432000 -0.161820
C91 C 0.696570 0.236800 0.335530
C92 C 0.909160 0.325900 -0.141940
C93 C 0.102510 0.370700 1.057390
C94 C 0.870220 0.423100 -0.089060
C95 C 0.803400 0.310700 -0.060730
C96 C 0.036880 0.263700 1.077320
C97 C 0.814420 0.079200 0.626460
C98 C 0.738460 0.472300 -0.049030
C99 C 0.640550 0.238200 0.499280
C100 C 0.859450 0.738200 0.000720
C101 C 0.685580 0.579200 -0.126460
C102 C -0.000870 0.364800 1.129780
C103 C 0.036870 0.352400 0.594560
C104 C 0.803430 0.736800 0.164470
C105 C 0.850810 0.912200 0.204770
C106 C 0.192700 0.466400 0.798770
C107 C 0.901910 0.881500 0.282540
C108 C 0.139910 0.493700 0.721210
C109 C 0.907430 0.679700 0.320690
C110 C 0.860090 0.506300 0.278790
C111 C 0.092570 0.320300 0.679310
C112 C 0.807300 0.533600 0.201230
C113 C 0.098090 0.118500 0.717460
C114 C 0.963130 0.647600 0.405440
C115 C 0.149190 0.087800 0.795230
C116 C 0.196570 0.263200 0.835530
C117 C 0.314420 0.420800 1.126460
C118 C 0.761540 -0.027700 0.549030
C119 C 0.026170 0.568000 1.161820
C120 C 0.090840 0.674100 1.141940
C121 C 0.696600 -0.189300 0.560730
C122 C 0.629780 -0.076900 0.589060
C123 C 0.129780 0.576900 1.089060
C124 C 0.602510 0.129300 0.557390
C125 C 0.536880 0.236300 0.577320
C126 C 0.140550 0.261800 0.999280
C127 C 0.499130 0.135200 0.629780
C128 C 0.261540 0.527700 1.049030
C129 C 0.526170 -0.068000 0.661820
C130 C 0.196600 0.689300 1.060730
C131 C 0.590840 -0.174100 0.641940
C132 C 0.185580 0.920800 0.373540
N133 N 0.217080 0.349200 0.994640
N134 N 0.782920 0.650800 0.005360
N135 N 0.282920 0.849200 0.505360
N136 N 0.717080 0.150800 0.494640
O137 O 0.108730 0.108600 0.956880
O138 O 0.338890 0.355100 0.939630
O139 O 0.891270 0.891400 0.043120
O140 O 0.391270 0.608600 0.543120
O141 O 0.161110 0.855100 0.560370
O142 O 0.225500 0.497600 0.549780
O143 O 0.608730 0.391400 0.456880
O144 O 0.838890 0.144900 0.439630
O145 O 0.774500 0.502400 0.450220
O146 O 0.725500 1.002400 0.049780
O147 O 0.274500 -0.002400 0.950220
O148 O 0.661110 0.644900 0.060370
S149 S 0.765430 0.274180 0.432530
S150 S 0.734570 0.774180 0.067470
S151 S 0.265430 0.225820 0.932530
S152 S 0.234570 0.725820 0.567470
Br153 Br 0.618780 0.360850 -0.198920
Br154 Br 0.881220 -0.139150 0.698920
Br155 Br 0.118780 1.139150 0.301080
Br156 Br 0.381220 0.639150 1.198920

#END
