
#######################################################################
#
#                 Cambridge Crystallographic Data Centre
#                                CCDC 
#
#######################################################################
#
# If this CIF has been generated from an entry in the Cambridge 
# Structural Database, then it will include bibliographic, chemical, 
# crystal, experimental, refinement or atomic coordinate data resulting 
# from the CCDC's data processing and validation procedures.
#
#######################################################################

data_KAHRIW01
_symmetry_cell_setting           triclinic
_symmetry_space_group_name_H-M   'P -1'
_symmetry_Int_Tables_number      2
_space_group_name_Hall           '-P 1'
loop_
_symmetry_equiv_pos_site_id
_symmetry_equiv_pos_as_xyz
1 x,y,z
2 -x,-y,-z
_cell_length_a                   8.6625(14)
_cell_length_b                   9.2851(15)
_cell_length_c                   9.7249(16)
_cell_angle_alpha                76.514(2)
_cell_angle_beta                 72.834(3)
_cell_angle_gamma                77.947(3)
_cell_volume                     718.448
loop_
_atom_site_label
_atom_site_type_symbol
_atom_site_fract_x
_atom_site_fract_y
_atom_site_fract_z
C1 C 0.3543(2) 0.6728(2) 0.0196(2)
C2 C 0.2505(3) 0.5798(3) 0.0116(2)
C3 C 0.1433(3) 0.5187(3) 0.1391(3)
H1 H 0.0761 0.4546 0.1347
C4 C 0.1359(3) 0.5521(3) 0.2706(2)
H2 H 0.0636 0.5107 0.3551
C5 C 0.2356(2) 0.6475(2) 0.27914(19)
C6 C 0.3449(2) 0.7071(2) 0.1541(2)
H3 H 0.4123 0.7703 0.1597
C7 C 0.4731(3) 0.7322(2) -0.1144(2)
O1 O 0.5712(2) 0.8084(2) -0.09146(16)
H11 H 0.642(3) 0.835(3) -0.165(2)
O2 O 0.4807(2) 0.7094(2) -0.23561(16)
O3 O 0.2472(3) 0.5477(2) -0.11568(19)
H12 H 0.327(3) 0.577(4) -0.176(3)
O4 O 0.0499(2) 0.7332(2) 0.5150(2)
O5 O 0.2893(3) 0.55556(18) 0.53541(17)
O6 O 0.3166(2) 0.81066(17) 0.42094(15)
S1 S 0.22125(6) 0.68960(5) 0.45057(5)
C1 C 0.6457(2) 0.3272(2) 0.9804(2)
C2 C 0.7495(3) 0.4202(3) 0.9884(2)
C3 C 0.8567(3) 0.4813(3) 0.8609(3)
H1 H 0.9239 0.5454 0.8653
C4 C 0.8641(3) 0.4479(3) 0.7294(2)
H2 H 0.9364 0.4893 0.6449
C5 C 0.7644(2) 0.3525(2) 0.72086(19)
C6 C 0.6551(2) 0.2929(2) 0.8459(2)
H3 H 0.5877 0.2297 0.8403
C7 C 0.5269(3) 0.2678(2) 1.1144(2)
O1 O 0.4288(2) 0.1916(2) 1.09146(16)
H11 H 0.358(3) 0.165(3) 1.165(2)
O2 O 0.5193(2) 0.2906(2) 1.23561(16)
O3 O 0.7528(3) 0.4523(2) 1.11568(19)
H12 H 0.673(3) 0.423(4) 1.176(3)
O4 O 0.9501(2) 0.2668(2) 0.4850(2)
O5 O 0.7107(3) 0.44444(18) 0.46459(17)
O6 O 0.6834(2) 0.18934(17) 0.57906(15)
S1 S 0.77875(6) 0.31040(5) 0.54943(5)
C8 C 0.2643(2) 0.1713(2) -0.3191(2)
C9 C 0.2135(4) 0.0426(3) -0.3188(2)
H4 H 0.2473 0.0000 -0.4025
C10 C 0.1106(4) -0.0249(3) -0.1928(2)
H5 H 0.0760 -0.1130 -0.1935
C11 C 0.0580(2) 0.0342(2) -0.06660(19)
C12 C 0.1196(4) 0.1609(3) -0.0701(2)
H6 H 0.0917 0.2014 0.0144
C13 C 0.2220(4) 0.2299(3) -0.1962(3)
H7 H 0.2610 0.3158 -0.1959
N1 N 0.3671(2) 0.2485(2) -0.45397(18)
H8 H 0.360(3) 0.218(3) -0.529(2)
H9 H 0.332(3) 0.345(2) -0.458(3)
H10 H 0.469(2) 0.224(3) -0.449(3)
C8A C -0.2643(2) -0.1713(2) 0.3191(2)
C9A C -0.2135(4) -0.0426(3) 0.3188(2)
H4A H -0.2473 0.0000 0.4025
C10A C -0.1106(4) 0.0249(3) 0.1928(2)
H5A H -0.0760 0.1130 0.1935
C11A C -0.0580(2) -0.0342(2) 0.06660(19)
C12A C -0.1196(4) -0.1609(3) 0.0701(2)
H6A H -0.0917 -0.2014 -0.0144
C13A C -0.2220(4) -0.2299(3) 0.1962(3)
H7A H -0.2610 -0.3158 0.1959
N1A N -0.3671(2) -0.2485(2) 0.45397(18)
H8A H -0.360(3) -0.218(3) 0.529(2)
H9A H -0.332(3) -0.345(2) 0.458(3)
H10A H -0.469(2) -0.224(3) 0.449(3)
C8 C 0.2643(2) 0.1713(2) 0.6809(2)
C9 C 0.2135(4) 0.0426(3) 0.6812(2)
H4 H 0.2473 0.0000 0.5975
C10 C 0.1106(4) -0.0249(3) 0.8072(2)
H5 H 0.0760 -0.1130 0.8065
C11 C 0.0580(2) 0.0342(2) 0.93340(19)
C12 C 0.1196(4) 0.1609(3) 0.9299(2)
H6 H 0.0917 0.2014 1.0144
C13 C 0.2220(4) 0.2299(3) 0.8038(3)
H7 H 0.2610 0.3158 0.8041
N1 N 0.3671(2) 0.2485(2) 0.54603(18)
H8 H 0.360(3) 0.218(3) 0.471(2)
H9 H 0.332(3) 0.345(2) 0.542(3)
H10 H 0.469(2) 0.224(3) 0.551(3)
C8A C -0.2643(2) -0.1713(2) 1.3191(2)
C9A C -0.2135(4) -0.0426(3) 1.3188(2)
H4A H -0.2473 0.0000 1.4025
C10A C -0.1106(4) 0.0249(3) 1.1928(2)
H5A H -0.0760 0.1130 1.1935
C11A C -0.0580(2) -0.0342(2) 1.06660(19)
C12A C -0.1196(4) -0.1609(3) 1.0701(2)
H6A H -0.0917 -0.2014 0.9856
C13A C -0.2220(4) -0.2299(3) 1.1962(3)
H7A H -0.2610 -0.3158 1.1959
N1A N -0.3671(2) -0.2485(2) 1.45397(18)
H8A H -0.360(3) -0.218(3) 1.529(2)
H9A H -0.332(3) -0.345(2) 1.458(3)
H10A H -0.469(2) -0.224(3) 1.449(3)
C8 C 0.2643(2) 1.1713(2) -0.3191(2)
C9 C 0.2135(4) 1.0426(3) -0.3188(2)
H4 H 0.2473 1.0000 -0.4025
C10 C 0.1106(4) 0.9751(3) -0.1928(2)
H5 H 0.0760 0.8870 -0.1935
C11 C 0.0580(2) 1.0342(2) -0.06660(19)
C12 C 0.1196(4) 1.1609(3) -0.0701(2)
H6 H 0.0917 1.2014 0.0144
C13 C 0.2220(4) 1.2299(3) -0.1962(3)
H7 H 0.2610 1.3158 -0.1959
N1 N 0.3671(2) 1.2485(2) -0.45397(18)
H8 H 0.360(3) 1.218(3) -0.529(2)
H9 H 0.332(3) 1.345(2) -0.458(3)
H10 H 0.469(2) 1.224(3) -0.449(3)
C8A C -0.2643(2) 0.8287(2) 0.3191(2)
C9A C -0.2135(4) 0.9574(3) 0.3188(2)
H4A H -0.2473 1.0000 0.4025
C10A C -0.1106(4) 1.0249(3) 0.1928(2)
H5A H -0.0760 1.1130 0.1935
C11A C -0.0580(2) 0.9658(2) 0.06660(19)
C12A C -0.1196(4) 0.8391(3) 0.0701(2)
H6A H -0.0917 0.7986 -0.0144
C13A C -0.2220(4) 0.7701(3) 0.1962(3)
H7A H -0.2610 0.6842 0.1959
N1A N -0.3671(2) 0.7515(2) 0.45397(18)
H8A H -0.360(3) 0.782(3) 0.529(2)
H9A H -0.332(3) 0.655(2) 0.458(3)
H10A H -0.469(2) 0.776(3) 0.449(3)
C8 C 0.2643(2) 1.1713(2) 0.6809(2)
C9 C 0.2135(4) 1.0426(3) 0.6812(2)
H4 H 0.2473 1.0000 0.5975
C10 C 0.1106(4) 0.9751(3) 0.8072(2)
H5 H 0.0760 0.8870 0.8065
C11 C 0.0580(2) 1.0342(2) 0.93340(19)
C12 C 0.1196(4) 1.1609(3) 0.9299(2)
H6 H 0.0917 1.2014 1.0144
C13 C 0.2220(4) 1.2299(3) 0.8038(3)
H7 H 0.2610 1.3158 0.8041
N1 N 0.3671(2) 1.2485(2) 0.54603(18)
H8 H 0.360(3) 1.218(3) 0.471(2)
H9 H 0.332(3) 1.345(2) 0.542(3)
H10 H 0.469(2) 1.224(3) 0.551(3)
C8A C -0.2643(2) 0.8287(2) 1.3191(2)
C9A C -0.2135(4) 0.9574(3) 1.3188(2)
H4A H -0.2473 1.0000 1.4025
C10A C -0.1106(4) 1.0249(3) 1.1928(2)
H5A H -0.0760 1.1130 1.1935
C11A C -0.0580(2) 0.9658(2) 1.06660(19)
C12A C -0.1196(4) 0.8391(3) 1.0701(2)
H6A H -0.0917 0.7986 0.9856
C13A C -0.2220(4) 0.7701(3) 1.1962(3)
H7A H -0.2610 0.6842 1.1959
N1A N -0.3671(2) 0.7515(2) 1.45397(18)
H8A H -0.360(3) 0.782(3) 1.529(2)
H9A H -0.332(3) 0.655(2) 1.458(3)
H10A H -0.469(2) 0.776(3) 1.449(3)
C8 C 1.2643(2) 0.1713(2) -0.3191(2)
C9 C 1.2135(4) 0.0426(3) -0.3188(2)
H4 H 1.2473 0.0000 -0.4025
C10 C 1.1106(4) -0.0249(3) -0.1928(2)
H5 H 1.0760 -0.1130 -0.1935
C11 C 1.0580(2) 0.0342(2) -0.06660(19)
C12 C 1.1196(4) 0.1609(3) -0.0701(2)
H6 H 1.0917 0.2014 0.0144
C13 C 1.2220(4) 0.2299(3) -0.1962(3)
H7 H 1.2610 0.3158 -0.1959
N1 N 1.3671(2) 0.2485(2) -0.45397(18)
H8 H 1.360(3) 0.218(3) -0.529(2)
H9 H 1.332(3) 0.345(2) -0.458(3)
H10 H 1.469(2) 0.224(3) -0.449(3)
C8A C 0.7357(2) -0.1713(2) 0.3191(2)
C9A C 0.7865(4) -0.0426(3) 0.3188(2)
H4A H 0.7527 0.0000 0.4025
C10A C 0.8894(4) 0.0249(3) 0.1928(2)
H5A H 0.9240 0.1130 0.1935
C11A C 0.9420(2) -0.0342(2) 0.06660(19)
C12A C 0.8804(4) -0.1609(3) 0.0701(2)
H6A H 0.9083 -0.2014 -0.0144
C13A C 0.7780(4) -0.2299(3) 0.1962(3)
H7A H 0.7390 -0.3158 0.1959
N1A N 0.6329(2) -0.2485(2) 0.45397(18)
H8A H 0.640(3) -0.218(3) 0.529(2)
H9A H 0.668(3) -0.345(2) 0.458(3)
H10A H 0.531(2) -0.224(3) 0.449(3)
C8 C 1.2643(2) 0.1713(2) 0.6809(2)
C9 C 1.2135(4) 0.0426(3) 0.6812(2)
H4 H 1.2473 0.0000 0.5975
C10 C 1.1106(4) -0.0249(3) 0.8072(2)
H5 H 1.0760 -0.1130 0.8065
C11 C 1.0580(2) 0.0342(2) 0.93340(19)
C12 C 1.1196(4) 0.1609(3) 0.9299(2)
H6 H 1.0917 0.2014 1.0144
C13 C 1.2220(4) 0.2299(3) 0.8038(3)
H7 H 1.2610 0.3158 0.8041
N1 N 1.3671(2) 0.2485(2) 0.54603(18)
H8 H 1.360(3) 0.218(3) 0.471(2)
H9 H 1.332(3) 0.345(2) 0.542(3)
H10 H 1.469(2) 0.224(3) 0.551(3)
C8A C 0.7357(2) -0.1713(2) 1.3191(2)
C9A C 0.7865(4) -0.0426(3) 1.3188(2)
H4A H 0.7527 0.0000 1.4025
C10A C 0.8894(4) 0.0249(3) 1.1928(2)
H5A H 0.9240 0.1130 1.1935
C11A C 0.9420(2) -0.0342(2) 1.06660(19)
C12A C 0.8804(4) -0.1609(3) 1.0701(2)
H6A H 0.9083 -0.2014 0.9856
C13A C 0.7780(4) -0.2299(3) 1.1962(3)
H7A H 0.7390 -0.3158 1.1959
N1A N 0.6329(2) -0.2485(2) 1.45397(18)
H8A H 0.640(3) -0.218(3) 1.529(2)
H9A H 0.668(3) -0.345(2) 1.458(3)
H10A H 0.531(2) -0.224(3) 1.449(3)
C8 C 1.2643(2) 1.1713(2) -0.3191(2)
C9 C 1.2135(4) 1.0426(3) -0.3188(2)
H4 H 1.2473 1.0000 -0.4025
C10 C 1.1106(4) 0.9751(3) -0.1928(2)
H5 H 1.0760 0.8870 -0.1935
C11 C 1.0580(2) 1.0342(2) -0.06660(19)
C12 C 1.1196(4) 1.1609(3) -0.0701(2)
H6 H 1.0917 1.2014 0.0144
C13 C 1.2220(4) 1.2299(3) -0.1962(3)
H7 H 1.2610 1.3158 -0.1959
N1 N 1.3671(2) 1.2485(2) -0.45397(18)
H8 H 1.360(3) 1.218(3) -0.529(2)
H9 H 1.332(3) 1.345(2) -0.458(3)
H10 H 1.469(2) 1.224(3) -0.449(3)
C8A C 0.7357(2) 0.8287(2) 0.3191(2)
C9A C 0.7865(4) 0.9574(3) 0.3188(2)
H4A H 0.7527 1.0000 0.4025
C10A C 0.8894(4) 1.0249(3) 0.1928(2)
H5A H 0.9240 1.1130 0.1935
C11A C 0.9420(2) 0.9658(2) 0.06660(19)
C12A C 0.8804(4) 0.8391(3) 0.0701(2)
H6A H 0.9083 0.7986 -0.0144
C13A C 0.7780(4) 0.7701(3) 0.1962(3)
H7A H 0.7390 0.6842 0.1959
N1A N 0.6329(2) 0.7515(2) 0.45397(18)
H8A H 0.640(3) 0.782(3) 0.529(2)
H9A H 0.668(3) 0.655(2) 0.458(3)
H10A H 0.531(2) 0.776(3) 0.449(3)
C8 C 1.2643(2) 1.1713(2) 0.6809(2)
C9 C 1.2135(4) 1.0426(3) 0.6812(2)
H4 H 1.2473 1.0000 0.5975
C10 C 1.1106(4) 0.9751(3) 0.8072(2)
H5 H 1.0760 0.8870 0.8065
C11 C 1.0580(2) 1.0342(2) 0.93340(19)
C12 C 1.1196(4) 1.1609(3) 0.9299(2)
H6 H 1.0917 1.2014 1.0144
C13 C 1.2220(4) 1.2299(3) 0.8038(3)
H7 H 1.2610 1.3158 0.8041
N1 N 1.3671(2) 1.2485(2) 0.54603(18)
H8 H 1.360(3) 1.218(3) 0.471(2)
H9 H 1.332(3) 1.345(2) 0.542(3)
H10 H 1.469(2) 1.224(3) 0.551(3)
C8A C 0.7357(2) 0.8287(2) 1.3191(2)
C9A C 0.7865(4) 0.9574(3) 1.3188(2)
H4A H 0.7527 1.0000 1.4025
C10A C 0.8894(4) 1.0249(3) 1.1928(2)
H5A H 0.9240 1.1130 1.1935
C11A C 0.9420(2) 0.9658(2) 1.06660(19)
C12A C 0.8804(4) 0.8391(3) 1.0701(2)
H6A H 0.9083 0.7986 0.9856
C13A C 0.7780(4) 0.7701(3) 1.1962(3)
H7A H 0.7390 0.6842 1.1959
N1A N 0.6329(2) 0.7515(2) 1.45397(18)
H8A H 0.640(3) 0.782(3) 1.529(2)
H9A H 0.668(3) 0.655(2) 1.458(3)
H10A H 0.531(2) 0.776(3) 1.449(3)
O7 O 0.7866(3) 0.8899(2) 0.6720(2)
H13 H 0.876(3) 0.852(4) 0.638(4)
H14 H 0.783(5) 0.978(2) 0.641(4)
O7 O 0.2134(3) 0.1101(2) 0.3280(2)
H13 H 0.124(3) 0.148(4) 0.362(4)
H14 H 0.217(5) 0.022(2) 0.359(4)

#END
