./KAHROA_from_POSCAR.cif_generated_by_CrystalShift
_symmetry_cell_setting triclinic
_symmetry_space_group_name_H-M 'P 1'
loop_
_symmetry_equiv_pos_site_id
_symmetry_equiv_pos_as_xyz
1 x,y,z
_cell_length_a 11.314000
_cell_length_b 9.120000
_cell_length_c 9.741000
_cell_angle_alpha 90.000000
_cell_angle_beta 90.000000
_cell_angle_gamma 90.000000
_cell_volume 1005.112227
loop_
_atom_site_label
_atom_site_type_symbol
_atom_site_fract_x
_atom_site_fract_y
_atom_site_fract_z
H1 H 1.104000 0.383200 0.790000
H2 H 0.072000 0.421000 0.633000
H3 H 1.072000 0.421000 0.633000
H4 H 0.145800 0.648800 0.541000
H5 H 0.145800 0.351200 0.041000
H6 H 0.072000 0.579000 0.133000
H7 H 0.104000 0.616800 0.290000
H8 H -0.104000 0.383200 0.710000
H9 H -0.072000 0.421000 0.867000
H10 H 1.145800 0.648800 0.541000
H11 H 0.145800 0.851200 0.959000
H12 H -0.072000 0.579000 0.367000
H13 H -0.104000 0.616800 0.210000
H14 H 0.854200 0.851200 0.541000
H15 H 0.145800 0.148800 0.459000
H16 H 0.928000 1.079000 0.633000
H17 H -0.145800 0.648800 0.959000
H18 H 0.104000 1.116800 0.710000
H19 H 0.072000 1.079000 0.867000
H20 H 0.896000 0.383200 0.710000
H21 H -0.145800 0.351200 0.459000
H22 H 0.896000 1.116800 0.790000
H23 H 0.072000 -0.079000 0.367000
H24 H 0.104000 -0.116800 0.210000
H25 H -0.104000 1.116800 0.790000
H26 H -0.145800 0.148800 0.041000
H27 H -0.072000 -0.079000 0.133000
H28 H -0.104000 -0.116800 0.290000
H29 H -0.072000 1.079000 0.633000
H30 H -0.145800 0.851200 0.541000
H31 H 0.928000 0.421000 0.867000
H32 H 0.604000 -0.116800 0.790000
H33 H 1.145800 0.351200 0.041000
H34 H 1.072000 0.579000 0.133000
H35 H 1.104000 0.616800 0.290000
H36 H 0.572000 -0.079000 0.633000
H37 H 0.645800 0.148800 0.541000
H38 H 0.396000 -0.116800 0.710000
H39 H 0.428000 -0.079000 0.867000
H40 H 0.928000 0.579000 0.367000
H41 H 0.896000 0.616800 0.210000
H42 H 0.645800 0.351200 0.959000
H43 H 1.145800 0.148800 0.459000
H44 H 1.145800 0.851200 0.959000
H45 H 0.354200 0.148800 0.959000
H46 H 0.604000 0.616800 0.710000
H47 H 0.572000 0.579000 0.867000
H48 H 1.072000 1.079000 0.867000
H49 H 0.854200 0.351200 0.459000
H50 H 0.396000 0.616800 0.790000
H51 H 1.072000 -0.079000 0.367000
H52 H 1.104000 -0.116800 0.210000
H53 H 0.428000 0.579000 0.633000
H54 H 0.854200 0.148800 0.041000
H55 H 0.928000 -0.079000 0.133000
H56 H 0.896000 -0.116800 0.290000
H57 H 0.354200 0.351200 0.541000
H58 H 1.104000 1.116800 0.710000
H59 H 0.396000 0.383200 0.290000
H60 H 0.428000 0.421000 0.133000
H61 H 0.645800 0.851200 0.041000
H62 H 0.572000 1.079000 0.133000
H63 H 0.604000 1.116800 0.290000
H64 H 0.354200 0.648800 0.041000
H65 H 0.604000 0.383200 0.210000
H66 H 0.572000 0.421000 0.367000
H67 H 0.354200 0.851200 0.459000
H68 H 0.428000 1.079000 0.367000
H69 H 0.396000 1.116800 0.210000
H70 H 0.854200 0.648800 0.959000
H71 H 0.645800 0.648800 0.459000
H72 H 0.104000 0.383200 0.790000
C73 C 0.362470 0.807400 0.372800
C74 C 0.566800 0.454200 0.270800
C75 C 0.362470 0.692600 0.127200
C76 C 0.880080 0.603700 0.759000
C77 C 0.380080 0.896300 0.259000
C78 C 0.433200 0.454200 0.229200
C79 C 1.137530 0.807400 0.872800
C80 C 0.637530 0.692600 0.372800
C81 C 0.380080 0.603700 0.241000
C82 C 0.433200 1.045800 0.270800
C83 C 0.637530 0.807400 0.127200
C84 C 0.933200 0.454200 0.770800
C85 C 0.433200 0.545800 0.729200
C86 C 0.380080 0.396300 0.741000
C87 C 0.619920 0.896300 0.241000
C88 C 0.362470 0.307400 0.627200
C89 C 0.566800 1.045800 0.229200
C90 C 0.880080 0.103700 0.241000
C91 C 0.933200 -0.045800 0.229200
C92 C 0.566800 0.545800 0.770800
C93 C 0.362470 0.192600 0.872800
C94 C 1.137530 0.692600 0.627200
C95 C 0.619920 0.396300 0.759000
C96 C 0.862470 0.192600 0.127200
C97 C 1.066800 -0.045800 0.270800
C98 C 0.380080 0.103700 0.759000
C99 C 0.862470 0.307400 0.372800
C100 C 1.119920 0.896300 0.759000
C101 C 0.637530 0.307400 0.872800
C102 C 0.433200 -0.045800 0.770800
C103 C 0.637530 0.192600 0.627200
C104 C 0.862470 0.692600 0.872800
C105 C 1.119920 0.103700 0.259000
C106 C 0.566800 -0.045800 0.729200
C107 C 0.880080 0.396300 0.259000
C108 C 1.066800 0.454200 0.729200
C109 C 0.619920 0.103700 0.741000
C110 C 1.137530 0.192600 0.372800
C111 C 0.933200 0.545800 0.270800
C112 C 1.137530 0.307400 0.127200
C113 C -0.066800 1.045800 0.729200
C114 C -0.119920 0.896300 0.741000
C115 C 1.066800 1.045800 0.770800
C116 C -0.137530 0.807400 0.627200
C117 C 1.119920 0.396300 0.241000
C118 C 1.066800 0.545800 0.229200
C119 C -0.119920 0.103700 0.241000
C120 C 0.066800 1.045800 0.770800
C121 C -0.137530 0.692600 0.872800
C122 C -0.066800 -0.045800 0.229200
C123 C 0.119920 0.896300 0.759000
C124 C -0.137530 0.192600 0.127200
C125 C 0.066800 -0.045800 0.270800
C126 C -0.119920 0.603700 0.759000
C127 C -0.137530 0.307400 0.372800
C128 C 1.119920 0.603700 0.741000
C129 C 0.137530 0.807400 0.872800
C130 C -0.066800 0.454200 0.770800
C131 C 0.137530 0.692600 0.627200
C132 C 0.119920 0.103700 0.259000
C133 C -0.119920 0.396300 0.259000
C134 C 0.066800 0.454200 0.729200
C135 C 0.137530 0.192600 0.372800
C136 C -0.066800 0.545800 0.270800
C137 C 0.119920 0.603700 0.741000
C138 C 0.137530 0.307400 0.127200
C139 C 0.119920 0.396300 0.241000
C140 C 0.619920 0.603700 0.259000
C141 C 0.933200 1.045800 0.729200
C142 C 0.880080 0.896300 0.741000
C143 C 0.862470 0.807400 0.627200
C144 C 0.066800 0.545800 0.229200
N145 N 0.132770 0.662200 0.866330
N146 N 0.132770 0.837800 0.633670
N147 N -0.132770 0.662200 0.633670
N148 N -0.132770 0.837800 0.866330
N149 N 0.632770 0.162200 0.866330
N150 N 0.867230 0.662200 0.633670
N151 N 0.632770 0.337800 0.633670
N152 N 0.367230 0.162200 0.633670
N153 N 0.367230 0.337800 0.866330
N154 N 0.367230 0.662200 0.366330
N155 N 0.367230 0.837800 0.133670
N156 N 1.132770 0.837800 0.633670
N157 N 0.632770 0.662200 0.133670
N158 N 0.632770 0.837800 0.366330
N159 N 0.867230 0.162200 0.366330
N160 N 1.132770 0.662200 0.866330
N161 N 0.867230 0.337800 0.133670
N162 N 1.132770 0.162200 0.133670
N163 N 1.132770 0.337800 0.366330
N164 N -0.132770 0.162200 0.366330
N165 N -0.132770 0.337800 0.133670
N166 N 0.132770 0.162200 0.133670
N167 N 0.132770 0.337800 0.366330
N168 N 0.867230 0.837800 0.866330

#END
