./KAHRIW01_from_POSCAR.cif_generated_by_CrystalShift
_symmetry_cell_setting triclinic
_symmetry_space_group_name_H-M 'P 1'
loop_
_symmetry_equiv_pos_site_id
_symmetry_equiv_pos_as_xyz
1 x,y,z
_cell_length_a 8.662500
_cell_length_b 9.285100
_cell_length_c 9.724900
_cell_angle_alpha 76.514000
_cell_angle_beta 72.834000
_cell_angle_gamma 77.947000
_cell_volume 718.447989
loop_
_atom_site_label
_atom_site_type_symbol
_atom_site_fract_x
_atom_site_fract_y
_atom_site_fract_z
H1 H 0.332000 1.345000 0.542000
H2 H 0.124000 0.148000 0.362000
H3 H 0.783000 0.978000 0.641000
H4 H 0.076100 0.454600 0.134700
H5 H 0.876000 0.852000 0.638000
H6 H 0.063600 0.510700 0.355100
H7 H 0.531000 0.776000 1.449000
H8 H 0.668000 0.655000 1.458000
H9 H 0.412300 0.770300 0.159700
H10 H 0.640000 0.782000 1.529000
H11 H 0.739000 0.684200 1.195900
H12 H 0.642000 0.835000 -0.165000
H13 H 0.908300 0.798600 0.985600
H14 H 0.924000 1.113000 1.193500
H15 H 0.327000 0.577000 -0.176000
H16 H 0.752700 1.000000 1.402500
H17 H 1.469000 1.224000 0.551000
H18 H 1.332000 1.345000 0.542000
H19 H 1.360000 1.218000 0.471000
H20 H 1.261000 1.315800 0.804100
H21 H 1.091700 1.201400 1.014400
H22 H 1.076000 0.887000 0.806500
H23 H 0.923900 0.545400 0.865300
H24 H 1.247300 1.000000 0.597500
H25 H 0.936400 0.489300 0.644900
H26 H 0.531000 0.776000 0.449000
H27 H 0.668000 0.655000 0.458000
H28 H 0.587700 0.229700 0.840300
H29 H 0.640000 0.782000 0.529000
H30 H 0.739000 0.684200 0.195900
H31 H 0.358000 0.165000 1.165000
H32 H 0.908300 0.798600 -0.014400
H33 H 0.924000 1.113000 0.193500
H34 H 0.673000 0.423000 1.176000
H35 H 0.752700 1.000000 0.402500
H36 H 1.469000 1.224000 -0.449000
H37 H 1.332000 1.345000 -0.458000
H38 H 1.360000 1.218000 -0.529000
H39 H 1.261000 1.315800 -0.195900
H40 H 1.091700 1.201400 0.014400
H41 H 0.247300 0.000000 -0.402500
H42 H 1.076000 0.887000 -0.193500
H43 H 0.076000 -0.113000 -0.193500
H44 H 1.247300 1.000000 -0.402500
H45 H 0.531000 -0.224000 1.449000
H46 H 0.091700 0.201400 0.014400
H47 H 0.668000 -0.345000 1.458000
H48 H 0.261000 0.315800 -0.195900
H49 H 0.640000 -0.218000 1.529000
H50 H 0.360000 0.218000 -0.529000
H51 H 0.332000 0.345000 -0.458000
H52 H 0.469000 0.224000 -0.449000
H53 H 0.739000 -0.315800 1.195900
H54 H 0.908300 -0.201400 0.985600
H55 H -0.247300 0.000000 0.402500
H56 H 0.924000 0.113000 1.193500
H57 H -0.076000 0.113000 0.193500
H58 H 0.752700 0.000000 1.402500
H59 H 1.469000 0.224000 0.551000
H60 H -0.091700 -0.201400 -0.014400
H61 H 1.332000 0.345000 0.542000
H62 H -0.261000 -0.315800 0.195900
H63 H 1.360000 0.218000 0.471000
H64 H -0.360000 -0.218000 0.529000
H65 H -0.332000 -0.345000 0.458000
H66 H -0.469000 -0.224000 0.449000
H67 H 1.261000 0.315800 0.804100
H68 H 1.091700 0.201400 1.014400
H69 H 0.247300 0.000000 0.597500
H70 H 1.076000 -0.113000 0.806500
H71 H 0.076000 -0.113000 0.806500
H72 H 1.247300 0.000000 0.597500
H73 H 0.531000 -0.224000 0.449000
H74 H 0.091700 0.201400 1.014400
H75 H 0.668000 -0.345000 0.458000
H76 H 0.261000 0.315800 0.804100
H77 H 0.640000 -0.218000 0.529000
H78 H 0.360000 0.218000 0.471000
H79 H 0.332000 0.345000 0.542000
H80 H 0.469000 0.224000 0.551000
H81 H 0.739000 -0.315800 0.195900
H82 H 0.908300 -0.201400 -0.014400
H83 H -0.247300 0.000000 1.402500
H84 H 0.924000 0.113000 0.193500
H85 H -0.076000 0.113000 1.193500
H86 H 0.752700 0.000000 0.402500
H87 H 1.469000 0.224000 -0.449000
H88 H -0.091700 -0.201400 0.985600
H89 H 1.332000 0.345000 -0.458000
H90 H -0.261000 -0.315800 1.195900
H91 H 1.360000 0.218000 -0.529000
H92 H -0.360000 -0.218000 1.529000
H93 H -0.332000 -0.345000 1.458000
H94 H -0.469000 -0.224000 1.449000
H95 H 1.261000 0.315800 -0.195900
H96 H 1.091700 0.201400 0.014400
H97 H 0.247300 1.000000 -0.402500
H98 H 1.076000 -0.113000 -0.193500
H99 H 0.076000 0.887000 -0.193500
H100 H 1.247300 0.000000 -0.402500
H101 H -0.469000 0.776000 1.449000
H102 H 0.091700 1.201400 0.014400
H103 H -0.332000 0.655000 1.458000
H104 H 0.261000 1.315800 -0.195900
H105 H -0.360000 0.782000 1.529000
H106 H 0.360000 1.218000 -0.529000
H107 H 0.332000 1.345000 -0.458000
H108 H 0.469000 1.224000 -0.449000
H109 H -0.261000 0.684200 1.195900
H110 H -0.091700 0.798600 0.985600
H111 H -0.247300 1.000000 0.402500
H112 H -0.076000 1.113000 1.193500
H113 H -0.076000 1.113000 0.193500
H114 H -0.247300 1.000000 1.402500
H115 H 0.469000 1.224000 0.551000
H116 H -0.091700 0.798600 -0.014400
H117 H 0.217000 0.022000 0.359000
H118 H -0.261000 0.684200 0.195900
H119 H 0.360000 1.218000 0.471000
H120 H -0.360000 0.782000 0.529000
H121 H -0.332000 0.655000 0.458000
H122 H -0.469000 0.776000 0.449000
H123 H 0.261000 1.315800 0.804100
H124 H 0.091700 1.201400 1.014400
H125 H 0.247300 1.000000 0.597500
H126 H 0.076000 0.887000 0.806500
C127 C 0.110600 0.975100 0.807200
C128 C 0.058000 1.034200 0.933400
C129 C 0.119600 1.160900 0.929900
C130 C 0.213500 1.042600 0.681200
C131 C 0.222000 1.229900 0.803800
C132 C 0.264300 1.171300 0.680900
C133 C 0.250500 0.579800 0.011600
C134 C 0.143300 0.518700 0.139100
C135 C -0.222000 0.770100 0.196200
C136 C -0.119600 0.839100 0.070100
C137 C -0.264300 0.828700 1.319100
C138 C -0.213500 0.957400 1.318800
C139 C -0.058000 0.965800 0.066600
C140 C -0.110600 1.024900 1.192800
C141 C -0.110600 1.024900 0.192800
C142 C -0.058000 0.965800 1.066600
C143 C -0.119600 0.839100 1.070100
C144 C -0.213500 0.957400 0.318800
C145 C -0.222000 0.770100 1.196200
C146 C -0.264300 0.828700 0.319100
C147 C 0.135900 0.552100 0.270600
C148 C 0.235600 0.647500 0.279140
C149 C 0.222000 1.229900 -0.196200
C150 C 0.119600 1.160900 -0.070100
C151 C 1.264300 0.171300 -0.319100
C152 C 1.213500 0.042600 -0.318800
C153 C 0.058000 1.034200 -0.066600
C154 C 1.110600 -0.024900 -0.192800
C155 C 0.110600 0.975100 -0.192800
C156 C 1.058000 0.034200 -0.066600
C157 C 1.119600 0.160900 -0.070100
C158 C 0.213500 1.042600 -0.318800
C159 C 1.222000 0.229900 -0.196200
C160 C 0.264300 1.171300 -0.319100
C161 C 0.344900 0.707100 0.154100
C162 C 0.473100 0.732200 -0.114400
C163 C -0.222000 -0.229900 1.196200
C164 C -0.119600 -0.160900 1.070100
C165 C 0.735700 -0.171300 0.319100
C166 C 0.786500 -0.042600 0.318800
C167 C -0.058000 -0.034200 1.066600
C168 C 0.889400 0.024900 0.192800
C169 C -0.110600 0.024900 1.192800
C170 C 0.942000 -0.034200 0.066600
C171 C 0.880400 -0.160900 0.070100
C172 C -0.213500 -0.042600 1.318800
C173 C 0.778000 -0.229900 0.196200
C174 C -0.264300 -0.171300 1.319100
C175 C 0.778000 0.770100 1.196200
C176 C 0.880400 0.839100 1.070100
C177 C 0.222000 0.229900 0.803800
C178 C 0.119600 0.160900 0.929900
C179 C 1.264300 0.171300 0.680900
C180 C 1.213500 0.042600 0.681200
C181 C 0.058000 0.034200 0.933400
C182 C 1.110600 -0.024900 0.807200
C183 C 0.110600 -0.024900 0.807200
C184 C 1.058000 0.034200 0.933400
C185 C 1.119600 0.160900 0.929900
C186 C 0.213500 0.042600 0.681200
C187 C 1.222000 0.229900 0.803800
C188 C 0.264300 0.171300 0.680900
C189 C 0.942000 0.965800 1.066600
C190 C 0.889400 1.024900 1.192800
C191 C -0.222000 -0.229900 0.196200
C192 C -0.119600 -0.160900 0.070100
C193 C 0.735700 -0.171300 1.319100
C194 C 0.786500 -0.042600 1.318800
C195 C -0.058000 -0.034200 0.066600
C196 C 0.889400 0.024900 1.192800
C197 C -0.110600 0.024900 0.192800
C198 C 0.942000 -0.034200 1.066600
C199 C 0.880400 -0.160900 1.070100
C200 C -0.213500 -0.042600 0.318800
C201 C 0.778000 -0.229900 1.196200
C202 C -0.264300 -0.171300 0.319100
C203 C 0.786500 0.957400 1.318800
C204 C 0.735700 0.828700 1.319100
C205 C 0.222000 0.229900 -0.196200
C206 C 0.119600 0.160900 -0.070100
C207 C 1.264300 1.171300 -0.319100
C208 C 1.213500 1.042600 -0.318800
C209 C 0.058000 0.034200 -0.066600
C210 C 1.110600 0.975100 -0.192800
C211 C 0.110600 -0.024900 -0.192800
C212 C 1.058000 1.034200 -0.066600
C213 C 1.119600 1.160900 -0.070100
C214 C 0.213500 0.042600 -0.318800
C215 C 1.222000 1.229900 -0.196200
C216 C 0.264300 0.171300 -0.319100
C217 C 0.645700 0.327200 0.980400
C218 C 1.222000 1.229900 0.803800
C219 C 0.749500 0.420200 0.988400
C220 C 1.119600 1.160900 0.929900
C221 C 0.735700 0.828700 0.319100
C222 C 0.786500 0.957400 0.318800
C223 C 1.058000 1.034200 0.933400
C224 C 0.889400 1.024900 0.192800
C225 C 0.856700 0.481300 0.860900
C226 C 0.942000 0.965800 0.066600
C227 C 0.880400 0.839100 0.070100
C228 C 1.110600 0.975100 0.807200
C229 C 0.778000 0.770100 0.196200
C230 C 0.864100 0.447900 0.729400
C231 C 1.213500 1.042600 0.681200
C232 C 0.526900 0.267800 1.114400
C233 C 0.655100 0.292900 0.845900
C234 C 0.764400 0.352500 0.720860
C235 C 1.264300 1.171300 0.680900
C236 C 0.354300 0.672800 0.019600
N237 N 0.367100 1.248500 0.546030
N238 N -0.367100 0.751500 0.453970
N239 N -0.367100 0.751500 1.453970
N240 N 0.367100 1.248500 -0.453970
N241 N 1.367100 0.248500 -0.453970
N242 N -0.367100 -0.248500 1.453970
N243 N 0.632900 0.751500 1.453970
N244 N 1.367100 1.248500 -0.453970
N245 N 1.367100 1.248500 0.546030
N246 N 0.632900 -0.248500 0.453970
N247 N 0.367100 0.248500 0.546030
N248 N 1.367100 0.248500 0.546030
N249 N 0.367100 0.248500 -0.453970
N250 N 0.632900 -0.248500 1.453970
N251 N -0.367100 -0.248500 0.453970
N252 N 0.632900 0.751500 0.453970
O253 O 0.247200 0.547700 -0.115680
O254 O 0.289300 0.555560 0.535410
O255 O 0.316600 0.810660 0.420940
O256 O 0.480700 0.709400 -0.235610
O257 O 0.428800 0.191600 1.091460
O258 O 0.571200 0.808400 -0.091460
O259 O 0.213400 0.110100 0.328000
O260 O 0.683400 0.189340 0.579060
O261 O 0.710700 0.444440 0.464590
O262 O 0.950100 0.266800 0.485000
O263 O 0.786600 0.889900 0.672000
O264 O 0.752800 0.452300 1.115680
O265 O 0.519300 0.290600 1.235610
O266 O 0.049900 0.733200 0.515000
S267 S 0.221250 0.689600 0.450570
S268 S 0.778750 0.310400 0.549430

#END
