./KAHTOC_from_POSCAR.cif_generated_by_CrystalShift
_symmetry_cell_setting triclinic
_symmetry_space_group_name_H-M 'P 1'
loop_
_symmetry_equiv_pos_site_id
_symmetry_equiv_pos_as_xyz
1 x,y,z
_cell_length_a 9.948900
_cell_length_b 10.055500
_cell_length_c 10.141800
_cell_angle_alpha 115.006000
_cell_angle_beta 102.820000
_cell_angle_gamma 93.647000
_cell_volume 882.233366
loop_
_atom_site_label
_atom_site_type_symbol
_atom_site_fract_x
_atom_site_fract_y
_atom_site_fract_z
H1 H -0.246000 0.206100 0.373100
H2 H 0.565500 0.670600 0.658900
H3 H 0.890860 0.775460 0.526390
H4 H 0.602300 0.869900 0.359300
H5 H 0.763900 0.903900 0.442800
H6 H 0.725200 0.764700 0.314700
H7 H -0.086300 0.335900 0.552500
H8 H -0.122500 0.189200 0.431700
H9 H -0.246700 0.369700 0.326400
H10 H 0.429100 0.793100 0.408900
H11 H 0.484900 0.861300 0.599500
H12 H 0.437900 0.668500 0.493900
H13 H 0.569900 0.516000 0.912500
H14 H 0.527500 0.692100 0.868700
H15 H 0.491200 0.509900 0.768200
H16 H -0.153300 0.467900 0.279000
H17 H -0.154500 0.370000 0.174500
H18 H 0.273700 0.527700 0.006000
H19 H 0.916200 0.570200 0.989600
H20 H 0.826100 0.430000 0.864900
H21 H 0.726300 0.472300 0.994000
H22 H 1.154500 0.630000 0.825500
H23 H 1.153300 0.532100 0.721000
H24 H 1.246700 0.630300 0.673600
H25 H 0.173900 0.570000 0.135100
H26 H 0.083800 0.429800 0.010400
H27 H 0.508800 0.490100 0.231800
H28 H 1.122500 0.810800 0.568300
H29 H 1.086300 0.664100 0.447500
H30 H 1.246000 0.793900 0.626900
H31 H 0.967020 0.617340 0.824840
H32 H 0.434500 0.329400 0.341100
H33 H 0.032980 0.382660 0.175160
H34 H 0.472500 0.307900 0.131300
H35 H 0.430100 0.484000 0.087500
H36 H 0.562100 0.331500 0.506100
H37 H 0.109140 0.224540 0.473610
H38 H 0.397700 0.130100 0.640700
H39 H 0.236100 0.096100 0.557200
H40 H 0.274800 0.235300 0.685300
H41 H 0.570900 0.206900 0.591100
H42 H 0.515100 0.138700 0.400500
C43 C -0.253200 0.976300 0.078900
C44 C 0.012500 1.105700 -0.214500
C45 C -0.238100 1.081000 -0.138200
C46 C 0.125200 1.011800 -0.038500
C47 C -0.006000 0.950800 0.107800
C48 C 0.118200 0.962800 0.069000
C49 C 0.253200 1.023700 -0.078900
C50 C -0.012500 0.894300 0.214500
C51 C 0.238100 0.919000 0.138200
C52 C -0.125200 0.988200 0.038500
C53 C 0.006000 1.049200 -0.107800
C54 C -0.118200 1.037200 -0.069000
C55 C -0.118200 1.037200 0.931000
C56 C 0.006000 1.049200 0.892200
C57 C -0.125200 0.988200 1.038500
C58 C -0.238100 1.081000 0.861800
C59 C 0.012500 1.105700 0.785500
C60 C -0.253200 0.976300 1.078900
C61 C 0.238100 -0.081000 1.138200
C62 C -0.012500 -0.105700 1.214500
C63 C -0.137300 0.271000 0.430900
C64 C 0.125200 1.011800 0.961500
C65 C -0.006000 0.950800 1.107800
C66 C 0.118200 0.962800 1.069000
C67 C 0.253200 1.023700 0.921100
C68 C -0.012500 0.894300 1.214500
C69 C 0.238100 0.919000 1.138200
C70 C -0.180000 0.373000 0.254400
C71 C 0.209900 0.485000 0.065600
C72 C 0.431500 0.407400 0.128300
C73 C 0.881800 0.037200 -0.069000
C74 C 1.006000 0.049200 -0.107800
C75 C 0.874800 -0.011800 0.038500
C76 C 0.761900 0.081000 -0.138200
C77 C 1.012500 0.105700 -0.214500
C78 C 0.746800 -0.023700 0.078900
C79 C 0.518100 0.219800 0.500000
C80 C 0.327900 0.169400 0.601800
C81 C 0.253200 0.023700 0.921100
C82 C 1.125200 0.011800 -0.038500
C83 C 0.994000 -0.049200 0.107800
C84 C 1.118200 -0.037200 0.069000
C85 C 1.253200 0.023700 -0.078900
C86 C 0.987500 -0.105700 0.214500
C87 C 1.238100 -0.081000 0.138200
C88 C 0.051100 0.307000 0.323100
C89 C 0.100600 0.356600 0.231300
C90 C 0.238200 0.356400 0.225500
C91 C 0.881800 0.037200 0.931000
C92 C 1.006000 0.049200 0.892200
C93 C 0.874800 -0.011800 1.038500
C94 C 0.761900 0.081000 0.861800
C95 C 1.012500 0.105700 0.785500
C96 C 0.746800 -0.023700 1.078900
C97 C 0.328000 0.308500 0.315500
C98 C 0.282100 0.262600 0.412400
C99 C 0.118200 -0.037200 1.069000
C100 C 1.125200 0.011800 0.961500
C101 C 0.994000 -0.049200 1.107800
C102 C 1.118200 -0.037200 1.069000
C103 C 1.253200 0.023700 0.921100
C104 C 0.987500 -0.105700 1.214500
C105 C 1.238100 -0.081000 1.138200
C106 C -0.006000 -0.049200 1.107800
C107 C 0.125200 0.011800 0.961500
C108 C -0.253200 -0.023700 1.078900
C109 C 0.881800 1.037200 -0.069000
C110 C 1.006000 1.049200 -0.107800
C111 C 0.874800 0.988200 0.038500
C112 C 0.761900 1.081000 -0.138200
C113 C 1.012500 1.105700 -0.214500
C114 C 0.746800 0.976300 0.078900
C115 C 0.012500 0.105700 0.785500
C116 C -0.238100 0.081000 0.861800
C117 C -0.125200 -0.011800 1.038500
C118 C 1.125200 1.011800 -0.038500
C119 C 0.994000 0.950800 0.107800
C120 C 1.118200 0.962800 0.069000
C121 C 1.253200 1.023700 -0.078900
C122 C 0.987500 0.894300 0.214500
C123 C 1.238100 0.919000 0.138200
C124 C 0.006000 0.049200 0.892200
C125 C -0.118200 0.037200 0.931000
C126 C 0.238100 -0.081000 0.138200
C127 C 0.881800 1.037200 0.931000
C128 C 1.006000 1.049200 0.892200
C129 C 0.874800 0.988200 1.038500
C130 C 0.761900 1.081000 0.861800
C131 C 1.012500 1.105700 0.785500
C132 C 0.746800 0.976300 1.078900
C133 C -0.012500 -0.105700 0.214500
C134 C 0.253200 0.023700 -0.078900
C135 C 0.118200 -0.037200 0.069000
C136 C 1.125200 1.011800 0.961500
C137 C 0.994000 0.950800 1.107800
C138 C 1.118200 0.962800 1.069000
C139 C 1.253200 1.023700 0.921100
C140 C 0.987500 0.894300 1.214500
C141 C 1.238100 0.919000 1.138200
C142 C -0.006000 -0.049200 0.107800
C143 C 0.125200 0.011800 -0.038500
C144 C -0.253200 -0.023700 0.078900
C145 C 0.717900 0.737400 0.587600
C146 C 0.672000 0.691500 0.684500
C147 C 0.761800 0.643600 0.774500
C148 C 0.899400 0.643400 0.768700
C149 C 0.948900 0.693000 0.676900
C150 C 0.858000 0.740100 0.586800
C151 C 0.672100 0.830600 0.398200
C152 C 0.481900 0.780200 0.500000
C153 C 0.568500 0.592600 0.871700
C154 C 0.790100 0.515000 0.934400
C155 C 1.180000 0.627000 0.745600
C156 C 1.137300 0.729000 0.569100
C157 C 0.012500 0.105700 -0.214500
C158 C -0.238100 0.081000 -0.138200
C159 C -0.125200 -0.011800 0.038500
C160 C 0.006000 0.049200 -0.107800
C161 C 0.142000 0.259900 0.413200
C162 C -0.118200 0.037200 -0.069000
N163 N 0.714900 0.601400 0.872600
N164 N 0.626200 0.778700 0.494300
N165 N 1.329300 0.878300 1.190100
N166 N 0.983400 0.845400 1.296400
N167 N 1.353200 1.031100 0.886900
N168 N 0.646800 0.968900 1.113100
N169 N 1.016600 1.154600 0.703600
N170 N 0.670700 1.121700 0.809900
N171 N 1.329300 0.878300 0.190100
N172 N 0.983400 0.845400 0.296400
N173 N 1.353200 1.031100 -0.113100
N174 N 0.646800 0.968900 0.113100
N175 N 1.016600 1.154600 -0.296400
N176 N 0.670700 1.121700 -0.190100
N177 N 1.329300 -0.121700 1.190100
N178 N 0.983400 -0.154600 1.296400
N179 N 1.353200 0.031100 0.886900
N180 N 0.646800 -0.031100 1.113100
N181 N 1.016600 0.154600 0.703600
N182 N 0.670700 0.121700 0.809900
N183 N 1.329300 -0.121700 0.190100
N184 N 0.983400 -0.154600 0.296400
N185 N 1.353200 0.031100 -0.113100
N186 N 0.646800 -0.031100 0.113100
N187 N 1.016600 0.154600 -0.296400
N188 N 0.670700 0.121700 -0.190100
N189 N 0.329300 0.878300 1.190100
N190 N -0.016600 0.845400 1.296400
N191 N 0.353200 1.031100 0.886900
N192 N -0.353200 0.968900 1.113100
N193 N 0.373800 0.221300 0.505700
N194 N 0.285100 0.398600 0.127400
N195 N -0.089100 0.298200 0.319700
N196 N 0.016600 1.154600 0.703600
N197 N -0.329300 1.121700 0.809900
N198 N 0.329300 0.878300 0.190100
N199 N -0.016600 0.845400 0.296400
N200 N 0.353200 1.031100 -0.113100
N201 N -0.353200 0.968900 0.113100
N202 N 0.016600 1.154600 -0.296400
N203 N -0.329300 1.121700 -0.190100
N204 N 0.329300 -0.121700 1.190100
N205 N -0.016600 -0.154600 1.296400
N206 N 0.353200 0.031100 0.886900
N207 N -0.353200 -0.031100 1.113100
N208 N 0.016600 0.154600 0.703600
N209 N -0.329300 0.121700 0.809900
N210 N 0.329300 -0.121700 0.190100
N211 N -0.016600 -0.154600 0.296400
N212 N 0.353200 0.031100 -0.113100
N213 N -0.353200 -0.031100 0.113100
N214 N 0.016600 0.154600 -0.296400
N215 N -0.329300 0.121700 -0.190100
N216 N 1.089100 0.701800 0.680300

#END
