
#######################################################################
#
#                 Cambridge Crystallographic Data Centre
#                                CCDC 
#
#######################################################################
#
# If this CIF has been generated from an entry in the Cambridge 
# Structural Database, then it will include bibliographic, chemical, 
# crystal, experimental, refinement or atomic coordinate data resulting 
# from the CCDC's data processing and validation procedures.
#
#######################################################################

data_ABADAL
_symmetry_cell_setting           monoclinic
_symmetry_space_group_name_H-M   'P 21/c'
_symmetry_Int_Tables_number      14
_space_group_name_Hall           '-P 2ybc'
loop_
_symmetry_equiv_pos_site_id
_symmetry_equiv_pos_as_xyz
1 x,y,z
2 -x,1/2+y,1/2-z
3 -x,-y,-z
4 x,1/2-y,1/2+z
_cell_length_a                   11.760(34)
_cell_length_b                   17.778(31)
_cell_length_c                   10.320(15)
_cell_angle_alpha                90
_cell_angle_beta                 101.34(10)
_cell_angle_gamma                90
_cell_volume                     2115.47
loop_
_atom_site_label
_atom_site_type_symbol
_atom_site_fract_x
_atom_site_fract_y
_atom_site_fract_z
Cu1 Cu 0.17472(30) 0.05565(13) 0.13528(31)
P1 P 0.17021(26) 0.13146(13) 0.30127(26)
P2 P 0.34925(16) 0.03278(21) 0.0981(5)
O1 O 0.08376(35) -0.04402(21) 0.1503(7)
C1 C 0.0060(5) -0.03457(24) 0.0487(5)
O2 O -0.06186(33) -0.0900(4) 0.03698(35)
C2 C 0.3232(7) 0.1524(10) 0.3000(16)
C3 C 0.3937(11) 0.1177(8) 0.1973(19)
H1 H 0.3251(25) 0.2061(9) 0.285(5)
H2 H 0.3651(13) 0.1353(29) 0.3851(16)
H3 H 0.394(4) 0.1573(9) 0.1331(29)
H4 H 0.4685(13) 0.1051(22) 0.251(4)
C4 C 0.0503(6) 0.1978(4) 0.2695(11)
C5 C -0.0283(9) 0.1968(9) 0.3551(16)
C6 C 0.0321(16) 0.2489(4) 0.1653(13)
C7 C -0.0621(20) 0.2974(6) 0.1487(22)
C8 C -0.1393(15) 0.2961(10) 0.2340(28)
C9 C -0.1222(9) 0.2455(12) 0.3378(25)
H5 H -0.0164(21) 0.1620(11) 0.4264(15)
H6 H -0.1746(13) 0.2440(18) 0.3971(32)
H7 H -0.2034(18) 0.3296(14) 0.221(4)
H8 H -0.0736(31) 0.3321(6) 0.0773(24)
H9 H 0.0844(23) 0.2504(10) 0.1059(14)
C10 C 0.3323(5) 0.0284(9) -0.0812(5)
C11 C 0.3970(4) -0.06115(29) 0.1543(14)
C12 C 0.3533(5) 0.0894(12) -0.1577(15)
C13 C 0.2959(6) -0.0393(11) -0.1448(16)
C14 C 0.3387(8) 0.0826(19) -0.2939(15)
C15 C 0.3028(10) 0.0153(22) -0.3558(12)
C16 C 0.2814(9) -0.0458(17) -0.2810(17)
C17 C 0.4250(4) -0.1159(7) 0.0689(20)
C18 C 0.4058(7) -0.0798(9) 0.2874(14)
C19 C 0.4418(9) -0.1509(10) 0.3335(24)
C20 C 0.4694(8) -0.2046(7) 0.2478(32)
C21 C 0.4609(5) -0.1870(6) 0.1156(30)
H10 H 0.3869(7) -0.0430(15) 0.3465(19)
H11 H 0.4474(13) -0.1626(18) 0.4244(25)
H12 H 0.4941(11) -0.2533(8) 0.279(4)
H13 H 0.4798(5) -0.2236(11) 0.056(4)
H14 H 0.4194(8) -0.1041(15) -0.0220(19)
H15 H 0.3780(6) 0.1359(11) -0.1161(28)
H16 H 0.3535(9) 0.1247(23) -0.3449(26)
H17 H 0.2930(14) 0.0110(29) -0.4490(13)
H18 H 0.2568(11) -0.0922(20) -0.3228(29)
H19 H 0.2812(6) -0.0813(11) -0.0934(28)
C22 C 0.13081(24) 0.0781(6) 0.4368(8)
C23 C 0.1319(5) 0.1103(9) 0.5600(9)
C24 C 0.1011(6) 0.0672(12) 0.6595(10)
C25 C 0.0693(5) -0.0074(12) 0.6372(15)
C26 C 0.0682(4) -0.0396(9) 0.5148(17)
C27 C 0.0988(4) 0.0028(7) 0.4141(13)
H20 H 0.1536(9) 0.1615(9) 0.5753(21)
H21 H 0.1018(9) 0.0890(17) 0.7437(11)
H22 H 0.0493(5) -0.0336(16) 0.7099(19)
H23 H 0.0464(7) -0.0908(9) 0.4995(28)
H24 H 0.0981(8) -0.0188(12) 0.3299(16)
O1B O -0.08376(35) 0.04402(21) -0.1503(7)
C1B C -0.0060(5) 0.03457(24) -0.0487(5)
O2B O 0.06186(33) 0.0900(4) -0.03698(35)
Cu1B Cu -0.17472(30) -0.05565(13) -0.13528(31)
P1B P -0.17021(26) -0.13146(13) -0.30127(26)
P2B P -0.34925(16) -0.03278(21) -0.0981(5)
C2B C -0.3232(7) -0.1524(10) -0.3000(16)
C3B C -0.3937(11) -0.1177(8) -0.1973(19)
H1B H -0.3251(25) -0.2061(9) -0.285(5)
H2B H -0.3651(13) -0.1353(29) -0.3851(16)
H3B H -0.394(4) -0.1573(9) -0.1331(29)
H4B H -0.4685(13) -0.1051(22) -0.251(4)
C4B C -0.0503(6) -0.1978(4) -0.2695(11)
C5B C 0.0283(9) -0.1968(9) -0.3551(16)
C6B C -0.0321(16) -0.2489(4) -0.1653(13)
C7B C 0.0621(20) -0.2974(6) -0.1487(22)
C8B C 0.1393(15) -0.2961(10) -0.2340(28)
C9B C 0.1222(9) -0.2455(12) -0.3378(25)
H5B H 0.0164(21) -0.1620(11) -0.4264(15)
H6B H 0.1746(13) -0.2440(18) -0.3971(32)
H7B H 0.2034(18) -0.3296(14) -0.221(4)
H8B H 0.0736(31) -0.3321(6) -0.0773(24)
H9B H -0.0844(23) -0.2504(10) -0.1059(14)
C10B C -0.3323(5) -0.0284(9) 0.0812(5)
C11B C -0.3970(4) 0.06115(29) -0.1543(14)
C12B C -0.3533(5) -0.0894(12) 0.1577(15)
C13B C -0.2959(6) 0.0393(11) 0.1448(16)
C14B C -0.3387(8) -0.0826(19) 0.2939(15)
C15B C -0.3028(10) -0.0153(22) 0.3558(12)
C16B C -0.2814(9) 0.0458(17) 0.2810(17)
C17B C -0.4250(4) 0.1159(7) -0.0689(20)
C18B C -0.4058(7) 0.0798(9) -0.2874(14)
C19B C -0.4418(9) 0.1509(10) -0.3335(24)
C20B C -0.4694(8) 0.2046(7) -0.2478(32)
C21B C -0.4609(5) 0.1870(6) -0.1156(30)
H10B H -0.3869(7) 0.0430(15) -0.3465(19)
H11B H -0.4474(13) 0.1626(18) -0.4244(25)
H12B H -0.4941(11) 0.2533(8) -0.279(4)
H13B H -0.4798(5) 0.2236(11) -0.056(4)
H14B H -0.4194(8) 0.1041(15) 0.0220(19)
H15B H -0.3780(6) -0.1359(11) 0.1161(28)
H16B H -0.3535(9) -0.1247(23) 0.3449(26)
H17B H -0.2930(14) -0.0110(29) 0.4490(13)
H18B H -0.2568(11) 0.0922(20) 0.3228(29)
H19B H -0.2812(6) 0.0813(11) 0.0934(28)
C22B C -0.13081(24) -0.0781(6) -0.4368(8)
C23B C -0.1319(5) -0.1103(9) -0.5600(9)
C24B C -0.1011(6) -0.0672(12) -0.6595(10)
C25B C -0.0693(5) 0.0074(12) -0.6372(15)
C26B C -0.0682(4) 0.0396(9) -0.5148(17)
C27B C -0.0988(4) -0.0028(7) -0.4141(13)
H20B H -0.1536(9) -0.1615(9) -0.5753(21)
H21B H -0.1018(9) -0.0890(17) -0.7437(11)
H22B H -0.0493(5) 0.0336(16) -0.7099(19)
H23B H -0.0464(7) 0.0908(9) -0.4995(28)
H24B H -0.0981(8) 0.0188(12) -0.3299(16)
Cu1 Cu 0.17472(30) 0.05565(13) 1.13528(31)
P1 P 0.17021(26) 0.13146(13) 1.30127(26)
P2 P 0.34925(16) 0.03278(21) 1.0981(5)
O1 O 0.08376(35) -0.04402(21) 1.1503(7)
C1 C 0.0060(5) -0.03457(24) 1.0487(5)
O2 O -0.06186(33) -0.0900(4) 1.03698(35)
C2 C 0.3232(7) 0.1524(10) 1.3000(16)
C3 C 0.3937(11) 0.1177(8) 1.1973(19)
H1 H 0.3251(25) 0.2061(9) 1.285(5)
H2 H 0.3651(13) 0.1353(29) 1.3851(16)
H3 H 0.394(4) 0.1573(9) 1.1331(29)
H4 H 0.4685(13) 0.1051(22) 1.251(4)
C4 C 0.0503(6) 0.1978(4) 1.2695(11)
C5 C -0.0283(9) 0.1968(9) 1.3551(16)
C6 C 0.0321(16) 0.2489(4) 1.1653(13)
C7 C -0.0621(20) 0.2974(6) 1.1487(22)
C8 C -0.1393(15) 0.2961(10) 1.2340(28)
C9 C -0.1222(9) 0.2455(12) 1.3378(25)
H5 H -0.0164(21) 0.1620(11) 1.4264(15)
H6 H -0.1746(13) 0.2440(18) 1.3971(32)
H7 H -0.2034(18) 0.3296(14) 1.221(4)
H8 H -0.0736(31) 0.3321(6) 1.0773(24)
H9 H 0.0844(23) 0.2504(10) 1.1059(14)
C10 C 0.3323(5) 0.0284(9) 0.9188(5)
C11 C 0.3970(4) -0.06115(29) 1.1543(14)
C12 C 0.3533(5) 0.0894(12) 0.8423(15)
C13 C 0.2959(6) -0.0393(11) 0.8552(16)
C14 C 0.3387(8) 0.0826(19) 0.7061(15)
C15 C 0.3028(10) 0.0153(22) 0.6442(12)
C16 C 0.2814(9) -0.0458(17) 0.7190(17)
C17 C 0.4250(4) -0.1159(7) 1.0689(20)
C18 C 0.4058(7) -0.0798(9) 1.2874(14)
C19 C 0.4418(9) -0.1509(10) 1.3335(24)
C20 C 0.4694(8) -0.2046(7) 1.2478(32)
C21 C 0.4609(5) -0.1870(6) 1.1156(30)
H10 H 0.3869(7) -0.0430(15) 1.3465(19)
H11 H 0.4474(13) -0.1626(18) 1.4244(25)
H12 H 0.4941(11) -0.2533(8) 1.279(4)
H13 H 0.4798(5) -0.2236(11) 1.056(4)
H14 H 0.4194(8) -0.1041(15) 0.9780(19)
H15 H 0.3780(6) 0.1359(11) 0.8839(28)
H16 H 0.3535(9) 0.1247(23) 0.6551(26)
H17 H 0.2930(14) 0.0110(29) 0.5510(13)
H18 H 0.2568(11) -0.0922(20) 0.6772(29)
H19 H 0.2812(6) -0.0813(11) 0.9066(28)
C22 C 0.13081(24) 0.0781(6) 1.4368(8)
C23 C 0.1319(5) 0.1103(9) 1.5600(9)
C24 C 0.1011(6) 0.0672(12) 1.6595(10)
C25 C 0.0693(5) -0.0074(12) 1.6372(15)
C26 C 0.0682(4) -0.0396(9) 1.5148(17)
C27 C 0.0988(4) 0.0028(7) 1.4141(13)
H20 H 0.1536(9) 0.1615(9) 1.5753(21)
H21 H 0.1018(9) 0.0890(17) 1.7437(11)
H22 H 0.0493(5) -0.0336(16) 1.7099(19)
H23 H 0.0464(7) -0.0908(9) 1.4995(28)
H24 H 0.0981(8) -0.0188(12) 1.3299(16)
O1B O -0.08376(35) 0.04402(21) 0.8497(7)
C1B C -0.0060(5) 0.03457(24) 0.9513(5)
O2B O 0.06186(33) 0.0900(4) 0.96302(35)
Cu1B Cu -0.17472(30) -0.05565(13) 0.86472(31)
P1B P -0.17021(26) -0.13146(13) 0.69873(26)
P2B P -0.34925(16) -0.03278(21) 0.9019(5)
C2B C -0.3232(7) -0.1524(10) 0.7000(16)
C3B C -0.3937(11) -0.1177(8) 0.8027(19)
H1B H -0.3251(25) -0.2061(9) 0.715(5)
H2B H -0.3651(13) -0.1353(29) 0.6149(16)
H3B H -0.394(4) -0.1573(9) 0.8669(29)
H4B H -0.4685(13) -0.1051(22) 0.749(4)
C4B C -0.0503(6) -0.1978(4) 0.7305(11)
C5B C 0.0283(9) -0.1968(9) 0.6449(16)
C6B C -0.0321(16) -0.2489(4) 0.8347(13)
C7B C 0.0621(20) -0.2974(6) 0.8513(22)
C8B C 0.1393(15) -0.2961(10) 0.7660(28)
C9B C 0.1222(9) -0.2455(12) 0.6622(25)
H5B H 0.0164(21) -0.1620(11) 0.5736(15)
H6B H 0.1746(13) -0.2440(18) 0.6029(32)
H7B H 0.2034(18) -0.3296(14) 0.779(4)
H8B H 0.0736(31) -0.3321(6) 0.9227(24)
H9B H -0.0844(23) -0.2504(10) 0.8941(14)
C10B C -0.3323(5) -0.0284(9) 1.0812(5)
C11B C -0.3970(4) 0.06115(29) 0.8457(14)
C12B C -0.3533(5) -0.0894(12) 1.1577(15)
C13B C -0.2959(6) 0.0393(11) 1.1448(16)
C14B C -0.3387(8) -0.0826(19) 1.2939(15)
C15B C -0.3028(10) -0.0153(22) 1.3558(12)
C16B C -0.2814(9) 0.0458(17) 1.2810(17)
C17B C -0.4250(4) 0.1159(7) 0.9311(20)
C18B C -0.4058(7) 0.0798(9) 0.7126(14)
C19B C -0.4418(9) 0.1509(10) 0.6665(24)
C20B C -0.4694(8) 0.2046(7) 0.7522(32)
C21B C -0.4609(5) 0.1870(6) 0.8844(30)
H10B H -0.3869(7) 0.0430(15) 0.6535(19)
H11B H -0.4474(13) 0.1626(18) 0.5756(25)
H12B H -0.4941(11) 0.2533(8) 0.721(4)
H13B H -0.4798(5) 0.2236(11) 0.944(4)
H14B H -0.4194(8) 0.1041(15) 1.0220(19)
H15B H -0.3780(6) -0.1359(11) 1.1161(28)
H16B H -0.3535(9) -0.1247(23) 1.3449(26)
H17B H -0.2930(14) -0.0110(29) 1.4490(13)
H18B H -0.2568(11) 0.0922(20) 1.3228(29)
H19B H -0.2812(6) 0.0813(11) 1.0934(28)
C22B C -0.13081(24) -0.0781(6) 0.5632(8)
C23B C -0.1319(5) -0.1103(9) 0.4400(9)
C24B C -0.1011(6) -0.0672(12) 0.3405(10)
C25B C -0.0693(5) 0.0074(12) 0.3628(15)
C26B C -0.0682(4) 0.0396(9) 0.4852(17)
C27B C -0.0988(4) -0.0028(7) 0.5859(13)
H20B H -0.1536(9) -0.1615(9) 0.4247(21)
H21B H -0.1018(9) -0.0890(17) 0.2563(11)
H22B H -0.0493(5) 0.0336(16) 0.2901(19)
H23B H -0.0464(7) 0.0908(9) 0.5005(28)
H24B H -0.0981(8) 0.0188(12) 0.6701(16)
Cu1 Cu 0.17472(30) 1.05565(13) 0.13528(31)
P1 P 0.17021(26) 1.13146(13) 0.30127(26)
P2 P 0.34925(16) 1.03278(21) 0.0981(5)
O1 O 0.08376(35) 0.95598(21) 0.1503(7)
C1 C 0.0060(5) 0.96543(24) 0.0487(5)
O2 O -0.06186(33) 0.9100(4) 0.03698(35)
C2 C 0.3232(7) 1.1524(10) 0.3000(16)
C3 C 0.3937(11) 1.1177(8) 0.1973(19)
H1 H 0.3251(25) 1.2061(9) 0.285(5)
H2 H 0.3651(13) 1.1353(29) 0.3851(16)
H3 H 0.394(4) 1.1573(9) 0.1331(29)
H4 H 0.4685(13) 1.1051(22) 0.251(4)
C4 C 0.0503(6) 1.1978(4) 0.2695(11)
C5 C -0.0283(9) 1.1968(9) 0.3551(16)
C6 C 0.0321(16) 1.2489(4) 0.1653(13)
C7 C -0.0621(20) 1.2974(6) 0.1487(22)
C8 C -0.1393(15) 1.2961(10) 0.2340(28)
C9 C -0.1222(9) 1.2455(12) 0.3378(25)
H5 H -0.0164(21) 1.1620(11) 0.4264(15)
H6 H -0.1746(13) 1.2440(18) 0.3971(32)
H7 H -0.2034(18) 1.3296(14) 0.221(4)
H8 H -0.0736(31) 1.3321(6) 0.0773(24)
H9 H 0.0844(23) 1.2504(10) 0.1059(14)
C10 C 0.3323(5) 1.0284(9) -0.0812(5)
C11 C 0.3970(4) 0.93885(29) 0.1543(14)
C12 C 0.3533(5) 1.0894(12) -0.1577(15)
C13 C 0.2959(6) 0.9607(11) -0.1448(16)
C14 C 0.3387(8) 1.0826(19) -0.2939(15)
C15 C 0.3028(10) 1.0153(22) -0.3558(12)
C16 C 0.2814(9) 0.9542(17) -0.2810(17)
C17 C 0.4250(4) 0.8841(7) 0.0689(20)
C18 C 0.4058(7) 0.9202(9) 0.2874(14)
C19 C 0.4418(9) 0.8491(10) 0.3335(24)
C20 C 0.4694(8) 0.7954(7) 0.2478(32)
C21 C 0.4609(5) 0.8130(6) 0.1156(30)
H10 H 0.3869(7) 0.9570(15) 0.3465(19)
H11 H 0.4474(13) 0.8374(18) 0.4244(25)
H12 H 0.4941(11) 0.7467(8) 0.279(4)
H13 H 0.4798(5) 0.7764(11) 0.056(4)
H14 H 0.4194(8) 0.8959(15) -0.0220(19)
H15 H 0.3780(6) 1.1359(11) -0.1161(28)
H16 H 0.3535(9) 1.1247(23) -0.3449(26)
H17 H 0.2930(14) 1.0110(29) -0.4490(13)
H18 H 0.2568(11) 0.9078(20) -0.3228(29)
H19 H 0.2812(6) 0.9187(11) -0.0934(28)
C22 C 0.13081(24) 1.0781(6) 0.4368(8)
C23 C 0.1319(5) 1.1103(9) 0.5600(9)
C24 C 0.1011(6) 1.0672(12) 0.6595(10)
C25 C 0.0693(5) 0.9926(12) 0.6372(15)
C26 C 0.0682(4) 0.9604(9) 0.5148(17)
C27 C 0.0988(4) 1.0028(7) 0.4141(13)
H20 H 0.1536(9) 1.1615(9) 0.5753(21)
H21 H 0.1018(9) 1.0890(17) 0.7437(11)
H22 H 0.0493(5) 0.9664(16) 0.7099(19)
H23 H 0.0464(7) 0.9092(9) 0.4995(28)
H24 H 0.0981(8) 0.9812(12) 0.3299(16)
O1B O -0.08376(35) 1.04402(21) -0.1503(7)
C1B C -0.0060(5) 1.03457(24) -0.0487(5)
O2B O 0.06186(33) 1.0900(4) -0.03698(35)
Cu1B Cu -0.17472(30) 0.94435(13) -0.13528(31)
P1B P -0.17021(26) 0.86854(13) -0.30127(26)
P2B P -0.34925(16) 0.96722(21) -0.0981(5)
C2B C -0.3232(7) 0.8476(10) -0.3000(16)
C3B C -0.3937(11) 0.8823(8) -0.1973(19)
H1B H -0.3251(25) 0.7939(9) -0.285(5)
H2B H -0.3651(13) 0.8647(29) -0.3851(16)
H3B H -0.394(4) 0.8427(9) -0.1331(29)
H4B H -0.4685(13) 0.8949(22) -0.251(4)
C4B C -0.0503(6) 0.8022(4) -0.2695(11)
C5B C 0.0283(9) 0.8032(9) -0.3551(16)
C6B C -0.0321(16) 0.7511(4) -0.1653(13)
C7B C 0.0621(20) 0.7026(6) -0.1487(22)
C8B C 0.1393(15) 0.7039(10) -0.2340(28)
C9B C 0.1222(9) 0.7545(12) -0.3378(25)
H5B H 0.0164(21) 0.8380(11) -0.4264(15)
H6B H 0.1746(13) 0.7560(18) -0.3971(32)
H7B H 0.2034(18) 0.6704(14) -0.221(4)
H8B H 0.0736(31) 0.6679(6) -0.0773(24)
H9B H -0.0844(23) 0.7496(10) -0.1059(14)
C10B C -0.3323(5) 0.9716(9) 0.0812(5)
C11B C -0.3970(4) 1.06115(29) -0.1543(14)
C12B C -0.3533(5) 0.9106(12) 0.1577(15)
C13B C -0.2959(6) 1.0393(11) 0.1448(16)
C14B C -0.3387(8) 0.9174(19) 0.2939(15)
C15B C -0.3028(10) 0.9847(22) 0.3558(12)
C16B C -0.2814(9) 1.0458(17) 0.2810(17)
C17B C -0.4250(4) 1.1159(7) -0.0689(20)
C18B C -0.4058(7) 1.0798(9) -0.2874(14)
C19B C -0.4418(9) 1.1509(10) -0.3335(24)
C20B C -0.4694(8) 1.2046(7) -0.2478(32)
C21B C -0.4609(5) 1.1870(6) -0.1156(30)
H10B H -0.3869(7) 1.0430(15) -0.3465(19)
H11B H -0.4474(13) 1.1626(18) -0.4244(25)
H12B H -0.4941(11) 1.2533(8) -0.279(4)
H13B H -0.4798(5) 1.2236(11) -0.056(4)
H14B H -0.4194(8) 1.1041(15) 0.0220(19)
H15B H -0.3780(6) 0.8641(11) 0.1161(28)
H16B H -0.3535(9) 0.8753(23) 0.3449(26)
H17B H -0.2930(14) 0.9890(29) 0.4490(13)
H18B H -0.2568(11) 1.0922(20) 0.3228(29)
H19B H -0.2812(6) 1.0813(11) 0.0934(28)
C22B C -0.13081(24) 0.9219(6) -0.4368(8)
C23B C -0.1319(5) 0.8897(9) -0.5600(9)
C24B C -0.1011(6) 0.9328(12) -0.6595(10)
C25B C -0.0693(5) 1.0074(12) -0.6372(15)
C26B C -0.0682(4) 1.0396(9) -0.5148(17)
C27B C -0.0988(4) 0.9972(7) -0.4141(13)
H20B H -0.1536(9) 0.8385(9) -0.5753(21)
H21B H -0.1018(9) 0.9110(17) -0.7437(11)
H22B H -0.0493(5) 1.0336(16) -0.7099(19)
H23B H -0.0464(7) 1.0908(9) -0.4995(28)
H24B H -0.0981(8) 1.0188(12) -0.3299(16)
Cu1 Cu 0.17472(30) 1.05565(13) 1.13528(31)
P1 P 0.17021(26) 1.13146(13) 1.30127(26)
P2 P 0.34925(16) 1.03278(21) 1.0981(5)
O1 O 0.08376(35) 0.95598(21) 1.1503(7)
C1 C 0.0060(5) 0.96543(24) 1.0487(5)
O2 O -0.06186(33) 0.9100(4) 1.03698(35)
C2 C 0.3232(7) 1.1524(10) 1.3000(16)
C3 C 0.3937(11) 1.1177(8) 1.1973(19)
H1 H 0.3251(25) 1.2061(9) 1.285(5)
H2 H 0.3651(13) 1.1353(29) 1.3851(16)
H3 H 0.394(4) 1.1573(9) 1.1331(29)
H4 H 0.4685(13) 1.1051(22) 1.251(4)
C4 C 0.0503(6) 1.1978(4) 1.2695(11)
C5 C -0.0283(9) 1.1968(9) 1.3551(16)
C6 C 0.0321(16) 1.2489(4) 1.1653(13)
C7 C -0.0621(20) 1.2974(6) 1.1487(22)
C8 C -0.1393(15) 1.2961(10) 1.2340(28)
C9 C -0.1222(9) 1.2455(12) 1.3378(25)
H5 H -0.0164(21) 1.1620(11) 1.4264(15)
H6 H -0.1746(13) 1.2440(18) 1.3971(32)
H7 H -0.2034(18) 1.3296(14) 1.221(4)
H8 H -0.0736(31) 1.3321(6) 1.0773(24)
H9 H 0.0844(23) 1.2504(10) 1.1059(14)
C10 C 0.3323(5) 1.0284(9) 0.9188(5)
C11 C 0.3970(4) 0.93885(29) 1.1543(14)
C12 C 0.3533(5) 1.0894(12) 0.8423(15)
C13 C 0.2959(6) 0.9607(11) 0.8552(16)
C14 C 0.3387(8) 1.0826(19) 0.7061(15)
C15 C 0.3028(10) 1.0153(22) 0.6442(12)
C16 C 0.2814(9) 0.9542(17) 0.7190(17)
C17 C 0.4250(4) 0.8841(7) 1.0689(20)
C18 C 0.4058(7) 0.9202(9) 1.2874(14)
C19 C 0.4418(9) 0.8491(10) 1.3335(24)
C20 C 0.4694(8) 0.7954(7) 1.2478(32)
C21 C 0.4609(5) 0.8130(6) 1.1156(30)
H10 H 0.3869(7) 0.9570(15) 1.3465(19)
H11 H 0.4474(13) 0.8374(18) 1.4244(25)
H12 H 0.4941(11) 0.7467(8) 1.279(4)
H13 H 0.4798(5) 0.7764(11) 1.056(4)
H14 H 0.4194(8) 0.8959(15) 0.9780(19)
H15 H 0.3780(6) 1.1359(11) 0.8839(28)
H16 H 0.3535(9) 1.1247(23) 0.6551(26)
H17 H 0.2930(14) 1.0110(29) 0.5510(13)
H18 H 0.2568(11) 0.9078(20) 0.6772(29)
H19 H 0.2812(6) 0.9187(11) 0.9066(28)
C22 C 0.13081(24) 1.0781(6) 1.4368(8)
C23 C 0.1319(5) 1.1103(9) 1.5600(9)
C24 C 0.1011(6) 1.0672(12) 1.6595(10)
C25 C 0.0693(5) 0.9926(12) 1.6372(15)
C26 C 0.0682(4) 0.9604(9) 1.5148(17)
C27 C 0.0988(4) 1.0028(7) 1.4141(13)
H20 H 0.1536(9) 1.1615(9) 1.5753(21)
H21 H 0.1018(9) 1.0890(17) 1.7437(11)
H22 H 0.0493(5) 0.9664(16) 1.7099(19)
H23 H 0.0464(7) 0.9092(9) 1.4995(28)
H24 H 0.0981(8) 0.9812(12) 1.3299(16)
O1B O -0.08376(35) 1.04402(21) 0.8497(7)
C1B C -0.0060(5) 1.03457(24) 0.9513(5)
O2B O 0.06186(33) 1.0900(4) 0.96302(35)
Cu1B Cu -0.17472(30) 0.94435(13) 0.86472(31)
P1B P -0.17021(26) 0.86854(13) 0.69873(26)
P2B P -0.34925(16) 0.96722(21) 0.9019(5)
C2B C -0.3232(7) 0.8476(10) 0.7000(16)
C3B C -0.3937(11) 0.8823(8) 0.8027(19)
H1B H -0.3251(25) 0.7939(9) 0.715(5)
H2B H -0.3651(13) 0.8647(29) 0.6149(16)
H3B H -0.394(4) 0.8427(9) 0.8669(29)
H4B H -0.4685(13) 0.8949(22) 0.749(4)
C4B C -0.0503(6) 0.8022(4) 0.7305(11)
C5B C 0.0283(9) 0.8032(9) 0.6449(16)
C6B C -0.0321(16) 0.7511(4) 0.8347(13)
C7B C 0.0621(20) 0.7026(6) 0.8513(22)
C8B C 0.1393(15) 0.7039(10) 0.7660(28)
C9B C 0.1222(9) 0.7545(12) 0.6622(25)
H5B H 0.0164(21) 0.8380(11) 0.5736(15)
H6B H 0.1746(13) 0.7560(18) 0.6029(32)
H7B H 0.2034(18) 0.6704(14) 0.779(4)
H8B H 0.0736(31) 0.6679(6) 0.9227(24)
H9B H -0.0844(23) 0.7496(10) 0.8941(14)
C10B C -0.3323(5) 0.9716(9) 1.0812(5)
C11B C -0.3970(4) 1.06115(29) 0.8457(14)
C12B C -0.3533(5) 0.9106(12) 1.1577(15)
C13B C -0.2959(6) 1.0393(11) 1.1448(16)
C14B C -0.3387(8) 0.9174(19) 1.2939(15)
C15B C -0.3028(10) 0.9847(22) 1.3558(12)
C16B C -0.2814(9) 1.0458(17) 1.2810(17)
C17B C -0.4250(4) 1.1159(7) 0.9311(20)
C18B C -0.4058(7) 1.0798(9) 0.7126(14)
C19B C -0.4418(9) 1.1509(10) 0.6665(24)
C20B C -0.4694(8) 1.2046(7) 0.7522(32)
C21B C -0.4609(5) 1.1870(6) 0.8844(30)
H10B H -0.3869(7) 1.0430(15) 0.6535(19)
H11B H -0.4474(13) 1.1626(18) 0.5756(25)
H12B H -0.4941(11) 1.2533(8) 0.721(4)
H13B H -0.4798(5) 1.2236(11) 0.944(4)
H14B H -0.4194(8) 1.1041(15) 1.0220(19)
H15B H -0.3780(6) 0.8641(11) 1.1161(28)
H16B H -0.3535(9) 0.8753(23) 1.3449(26)
H17B H -0.2930(14) 0.9890(29) 1.4490(13)
H18B H -0.2568(11) 1.0922(20) 1.3228(29)
H19B H -0.2812(6) 1.0813(11) 1.0934(28)
C22B C -0.13081(24) 0.9219(6) 0.5632(8)
C23B C -0.1319(5) 0.8897(9) 0.4400(9)
C24B C -0.1011(6) 0.9328(12) 0.3405(10)
C25B C -0.0693(5) 1.0074(12) 0.3628(15)
C26B C -0.0682(4) 1.0396(9) 0.4852(17)
C27B C -0.0988(4) 0.9972(7) 0.5859(13)
H20B H -0.1536(9) 0.8385(9) 0.4247(21)
H21B H -0.1018(9) 0.9110(17) 0.2563(11)
H22B H -0.0493(5) 1.0336(16) 0.2901(19)
H23B H -0.0464(7) 1.0908(9) 0.5005(28)
H24B H -0.0981(8) 1.0188(12) 0.6701(16)
Cu1 Cu 1.17472(30) 0.05565(13) 0.13528(31)
P1 P 1.17021(26) 0.13146(13) 0.30127(26)
P2 P 1.34925(16) 0.03278(21) 0.0981(5)
O1 O 1.08376(35) -0.04402(21) 0.1503(7)
C1 C 1.0060(5) -0.03457(24) 0.0487(5)
O2 O 0.93814(33) -0.0900(4) 0.03698(35)
C2 C 1.3232(7) 0.1524(10) 0.3000(16)
C3 C 1.3937(11) 0.1177(8) 0.1973(19)
H1 H 1.3251(25) 0.2061(9) 0.285(5)
H2 H 1.3651(13) 0.1353(29) 0.3851(16)
H3 H 1.394(4) 0.1573(9) 0.1331(29)
H4 H 1.4685(13) 0.1051(22) 0.251(4)
C4 C 1.0503(6) 0.1978(4) 0.2695(11)
C5 C 0.9717(9) 0.1968(9) 0.3551(16)
C6 C 1.0321(16) 0.2489(4) 0.1653(13)
C7 C 0.9379(20) 0.2974(6) 0.1487(22)
C8 C 0.8607(15) 0.2961(10) 0.2340(28)
C9 C 0.8778(9) 0.2455(12) 0.3378(25)
H5 H 0.9836(21) 0.1620(11) 0.4264(15)
H6 H 0.8254(13) 0.2440(18) 0.3971(32)
H7 H 0.7966(18) 0.3296(14) 0.221(4)
H8 H 0.9264(31) 0.3321(6) 0.0773(24)
H9 H 1.0844(23) 0.2504(10) 0.1059(14)
C10 C 1.3323(5) 0.0284(9) -0.0812(5)
C11 C 1.3970(4) -0.06115(29) 0.1543(14)
C12 C 1.3533(5) 0.0894(12) -0.1577(15)
C13 C 1.2959(6) -0.0393(11) -0.1448(16)
C14 C 1.3387(8) 0.0826(19) -0.2939(15)
C15 C 1.3028(10) 0.0153(22) -0.3558(12)
C16 C 1.2814(9) -0.0458(17) -0.2810(17)
C17 C 1.4250(4) -0.1159(7) 0.0689(20)
C18 C 1.4058(7) -0.0798(9) 0.2874(14)
C19 C 1.4418(9) -0.1509(10) 0.3335(24)
C20 C 1.4694(8) -0.2046(7) 0.2478(32)
C21 C 1.4609(5) -0.1870(6) 0.1156(30)
H10 H 1.3869(7) -0.0430(15) 0.3465(19)
H11 H 1.4474(13) -0.1626(18) 0.4244(25)
H12 H 1.4941(11) -0.2533(8) 0.279(4)
H13 H 1.4798(5) -0.2236(11) 0.056(4)
H14 H 1.4194(8) -0.1041(15) -0.0220(19)
H15 H 1.3780(6) 0.1359(11) -0.1161(28)
H16 H 1.3535(9) 0.1247(23) -0.3449(26)
H17 H 1.2930(14) 0.0110(29) -0.4490(13)
H18 H 1.2568(11) -0.0922(20) -0.3228(29)
H19 H 1.2812(6) -0.0813(11) -0.0934(28)
C22 C 1.13081(24) 0.0781(6) 0.4368(8)
C23 C 1.1319(5) 0.1103(9) 0.5600(9)
C24 C 1.1011(6) 0.0672(12) 0.6595(10)
C25 C 1.0693(5) -0.0074(12) 0.6372(15)
C26 C 1.0682(4) -0.0396(9) 0.5148(17)
C27 C 1.0988(4) 0.0028(7) 0.4141(13)
H20 H 1.1536(9) 0.1615(9) 0.5753(21)
H21 H 1.1018(9) 0.0890(17) 0.7437(11)
H22 H 1.0493(5) -0.0336(16) 0.7099(19)
H23 H 1.0464(7) -0.0908(9) 0.4995(28)
H24 H 1.0981(8) -0.0188(12) 0.3299(16)
O1B O 0.91624(35) 0.04402(21) -0.1503(7)
C1B C 0.9940(5) 0.03457(24) -0.0487(5)
O2B O 1.06186(33) 0.0900(4) -0.03698(35)
Cu1B Cu 0.82528(30) -0.05565(13) -0.13528(31)
P1B P 0.82979(26) -0.13146(13) -0.30127(26)
P2B P 0.65075(16) -0.03278(21) -0.0981(5)
C2B C 0.6768(7) -0.1524(10) -0.3000(16)
C3B C 0.6063(11) -0.1177(8) -0.1973(19)
H1B H 0.6749(25) -0.2061(9) -0.285(5)
H2B H 0.6349(13) -0.1353(29) -0.3851(16)
H3B H 0.606(4) -0.1573(9) -0.1331(29)
H4B H 0.5315(13) -0.1051(22) -0.251(4)
C4B C 0.9497(6) -0.1978(4) -0.2695(11)
C5B C 1.0283(9) -0.1968(9) -0.3551(16)
C6B C 0.9679(16) -0.2489(4) -0.1653(13)
C7B C 1.0621(20) -0.2974(6) -0.1487(22)
C8B C 1.1393(15) -0.2961(10) -0.2340(28)
C9B C 1.1222(9) -0.2455(12) -0.3378(25)
H5B H 1.0164(21) -0.1620(11) -0.4264(15)
H6B H 1.1746(13) -0.2440(18) -0.3971(32)
H7B H 1.2034(18) -0.3296(14) -0.221(4)
H8B H 1.0736(31) -0.3321(6) -0.0773(24)
H9B H 0.9156(23) -0.2504(10) -0.1059(14)
C10B C 0.6677(5) -0.0284(9) 0.0812(5)
C11B C 0.6030(4) 0.06115(29) -0.1543(14)
C12B C 0.6467(5) -0.0894(12) 0.1577(15)
C13B C 0.7041(6) 0.0393(11) 0.1448(16)
C14B C 0.6613(8) -0.0826(19) 0.2939(15)
C15B C 0.6972(10) -0.0153(22) 0.3558(12)
C16B C 0.7186(9) 0.0458(17) 0.2810(17)
C17B C 0.5750(4) 0.1159(7) -0.0689(20)
C18B C 0.5942(7) 0.0798(9) -0.2874(14)
C19B C 0.5582(9) 0.1509(10) -0.3335(24)
C20B C 0.5306(8) 0.2046(7) -0.2478(32)
C21B C 0.5391(5) 0.1870(6) -0.1156(30)
H10B H 0.6131(7) 0.0430(15) -0.3465(19)
H11B H 0.5526(13) 0.1626(18) -0.4244(25)
H12B H 0.5059(11) 0.2533(8) -0.279(4)
H13B H 0.5202(5) 0.2236(11) -0.056(4)
H14B H 0.5806(8) 0.1041(15) 0.0220(19)
H15B H 0.6220(6) -0.1359(11) 0.1161(28)
H16B H 0.6465(9) -0.1247(23) 0.3449(26)
H17B H 0.7070(14) -0.0110(29) 0.4490(13)
H18B H 0.7432(11) 0.0922(20) 0.3228(29)
H19B H 0.7188(6) 0.0813(11) 0.0934(28)
C22B C 0.86919(24) -0.0781(6) -0.4368(8)
C23B C 0.8681(5) -0.1103(9) -0.5600(9)
C24B C 0.8989(6) -0.0672(12) -0.6595(10)
C25B C 0.9307(5) 0.0074(12) -0.6372(15)
C26B C 0.9318(4) 0.0396(9) -0.5148(17)
C27B C 0.9012(4) -0.0028(7) -0.4141(13)
H20B H 0.8464(9) -0.1615(9) -0.5753(21)
H21B H 0.8982(9) -0.0890(17) -0.7437(11)
H22B H 0.9507(5) 0.0336(16) -0.7099(19)
H23B H 0.9536(7) 0.0908(9) -0.4995(28)
H24B H 0.9019(8) 0.0188(12) -0.3299(16)
Cu1 Cu 1.17472(30) 0.05565(13) 1.13528(31)
P1 P 1.17021(26) 0.13146(13) 1.30127(26)
P2 P 1.34925(16) 0.03278(21) 1.0981(5)
O1 O 1.08376(35) -0.04402(21) 1.1503(7)
C1 C 1.0060(5) -0.03457(24) 1.0487(5)
O2 O 0.93814(33) -0.0900(4) 1.03698(35)
C2 C 1.3232(7) 0.1524(10) 1.3000(16)
C3 C 1.3937(11) 0.1177(8) 1.1973(19)
H1 H 1.3251(25) 0.2061(9) 1.285(5)
H2 H 1.3651(13) 0.1353(29) 1.3851(16)
H3 H 1.394(4) 0.1573(9) 1.1331(29)
H4 H 1.4685(13) 0.1051(22) 1.251(4)
C4 C 1.0503(6) 0.1978(4) 1.2695(11)
C5 C 0.9717(9) 0.1968(9) 1.3551(16)
C6 C 1.0321(16) 0.2489(4) 1.1653(13)
C7 C 0.9379(20) 0.2974(6) 1.1487(22)
C8 C 0.8607(15) 0.2961(10) 1.2340(28)
C9 C 0.8778(9) 0.2455(12) 1.3378(25)
H5 H 0.9836(21) 0.1620(11) 1.4264(15)
H6 H 0.8254(13) 0.2440(18) 1.3971(32)
H7 H 0.7966(18) 0.3296(14) 1.221(4)
H8 H 0.9264(31) 0.3321(6) 1.0773(24)
H9 H 1.0844(23) 0.2504(10) 1.1059(14)
C10 C 1.3323(5) 0.0284(9) 0.9188(5)
C11 C 1.3970(4) -0.06115(29) 1.1543(14)
C12 C 1.3533(5) 0.0894(12) 0.8423(15)
C13 C 1.2959(6) -0.0393(11) 0.8552(16)
C14 C 1.3387(8) 0.0826(19) 0.7061(15)
C15 C 1.3028(10) 0.0153(22) 0.6442(12)
C16 C 1.2814(9) -0.0458(17) 0.7190(17)
C17 C 1.4250(4) -0.1159(7) 1.0689(20)
C18 C 1.4058(7) -0.0798(9) 1.2874(14)
C19 C 1.4418(9) -0.1509(10) 1.3335(24)
C20 C 1.4694(8) -0.2046(7) 1.2478(32)
C21 C 1.4609(5) -0.1870(6) 1.1156(30)
H10 H 1.3869(7) -0.0430(15) 1.3465(19)
H11 H 1.4474(13) -0.1626(18) 1.4244(25)
H12 H 1.4941(11) -0.2533(8) 1.279(4)
H13 H 1.4798(5) -0.2236(11) 1.056(4)
H14 H 1.4194(8) -0.1041(15) 0.9780(19)
H15 H 1.3780(6) 0.1359(11) 0.8839(28)
H16 H 1.3535(9) 0.1247(23) 0.6551(26)
H17 H 1.2930(14) 0.0110(29) 0.5510(13)
H18 H 1.2568(11) -0.0922(20) 0.6772(29)
H19 H 1.2812(6) -0.0813(11) 0.9066(28)
C22 C 1.13081(24) 0.0781(6) 1.4368(8)
C23 C 1.1319(5) 0.1103(9) 1.5600(9)
C24 C 1.1011(6) 0.0672(12) 1.6595(10)
C25 C 1.0693(5) -0.0074(12) 1.6372(15)
C26 C 1.0682(4) -0.0396(9) 1.5148(17)
C27 C 1.0988(4) 0.0028(7) 1.4141(13)
H20 H 1.1536(9) 0.1615(9) 1.5753(21)
H21 H 1.1018(9) 0.0890(17) 1.7437(11)
H22 H 1.0493(5) -0.0336(16) 1.7099(19)
H23 H 1.0464(7) -0.0908(9) 1.4995(28)
H24 H 1.0981(8) -0.0188(12) 1.3299(16)
O1B O 0.91624(35) 0.04402(21) 0.8497(7)
C1B C 0.9940(5) 0.03457(24) 0.9513(5)
O2B O 1.06186(33) 0.0900(4) 0.96302(35)
Cu1B Cu 0.82528(30) -0.05565(13) 0.86472(31)
P1B P 0.82979(26) -0.13146(13) 0.69873(26)
P2B P 0.65075(16) -0.03278(21) 0.9019(5)
C2B C 0.6768(7) -0.1524(10) 0.7000(16)
C3B C 0.6063(11) -0.1177(8) 0.8027(19)
H1B H 0.6749(25) -0.2061(9) 0.715(5)
H2B H 0.6349(13) -0.1353(29) 0.6149(16)
H3B H 0.606(4) -0.1573(9) 0.8669(29)
H4B H 0.5315(13) -0.1051(22) 0.749(4)
C4B C 0.9497(6) -0.1978(4) 0.7305(11)
C5B C 1.0283(9) -0.1968(9) 0.6449(16)
C6B C 0.9679(16) -0.2489(4) 0.8347(13)
C7B C 1.0621(20) -0.2974(6) 0.8513(22)
C8B C 1.1393(15) -0.2961(10) 0.7660(28)
C9B C 1.1222(9) -0.2455(12) 0.6622(25)
H5B H 1.0164(21) -0.1620(11) 0.5736(15)
H6B H 1.1746(13) -0.2440(18) 0.6029(32)
H7B H 1.2034(18) -0.3296(14) 0.779(4)
H8B H 1.0736(31) -0.3321(6) 0.9227(24)
H9B H 0.9156(23) -0.2504(10) 0.8941(14)
C10B C 0.6677(5) -0.0284(9) 1.0812(5)
C11B C 0.6030(4) 0.06115(29) 0.8457(14)
C12B C 0.6467(5) -0.0894(12) 1.1577(15)
C13B C 0.7041(6) 0.0393(11) 1.1448(16)
C14B C 0.6613(8) -0.0826(19) 1.2939(15)
C15B C 0.6972(10) -0.0153(22) 1.3558(12)
C16B C 0.7186(9) 0.0458(17) 1.2810(17)
C17B C 0.5750(4) 0.1159(7) 0.9311(20)
C18B C 0.5942(7) 0.0798(9) 0.7126(14)
C19B C 0.5582(9) 0.1509(10) 0.6665(24)
C20B C 0.5306(8) 0.2046(7) 0.7522(32)
C21B C 0.5391(5) 0.1870(6) 0.8844(30)
H10B H 0.6131(7) 0.0430(15) 0.6535(19)
H11B H 0.5526(13) 0.1626(18) 0.5756(25)
H12B H 0.5059(11) 0.2533(8) 0.721(4)
H13B H 0.5202(5) 0.2236(11) 0.944(4)
H14B H 0.5806(8) 0.1041(15) 1.0220(19)
H15B H 0.6220(6) -0.1359(11) 1.1161(28)
H16B H 0.6465(9) -0.1247(23) 1.3449(26)
H17B H 0.7070(14) -0.0110(29) 1.4490(13)
H18B H 0.7432(11) 0.0922(20) 1.3228(29)
H19B H 0.7188(6) 0.0813(11) 1.0934(28)
C22B C 0.86919(24) -0.0781(6) 0.5632(8)
C23B C 0.8681(5) -0.1103(9) 0.4400(9)
C24B C 0.8989(6) -0.0672(12) 0.3405(10)
C25B C 0.9307(5) 0.0074(12) 0.3628(15)
C26B C 0.9318(4) 0.0396(9) 0.4852(17)
C27B C 0.9012(4) -0.0028(7) 0.5859(13)
H20B H 0.8464(9) -0.1615(9) 0.4247(21)
H21B H 0.8982(9) -0.0890(17) 0.2563(11)
H22B H 0.9507(5) 0.0336(16) 0.2901(19)
H23B H 0.9536(7) 0.0908(9) 0.5005(28)
H24B H 0.9019(8) 0.0188(12) 0.6701(16)
Cu1 Cu 1.17472(30) 1.05565(13) 0.13528(31)
P1 P 1.17021(26) 1.13146(13) 0.30127(26)
P2 P 1.34925(16) 1.03278(21) 0.0981(5)
O1 O 1.08376(35) 0.95598(21) 0.1503(7)
C1 C 1.0060(5) 0.96543(24) 0.0487(5)
O2 O 0.93814(33) 0.9100(4) 0.03698(35)
C2 C 1.3232(7) 1.1524(10) 0.3000(16)
C3 C 1.3937(11) 1.1177(8) 0.1973(19)
H1 H 1.3251(25) 1.2061(9) 0.285(5)
H2 H 1.3651(13) 1.1353(29) 0.3851(16)
H3 H 1.394(4) 1.1573(9) 0.1331(29)
H4 H 1.4685(13) 1.1051(22) 0.251(4)
C4 C 1.0503(6) 1.1978(4) 0.2695(11)
C5 C 0.9717(9) 1.1968(9) 0.3551(16)
C6 C 1.0321(16) 1.2489(4) 0.1653(13)
C7 C 0.9379(20) 1.2974(6) 0.1487(22)
C8 C 0.8607(15) 1.2961(10) 0.2340(28)
C9 C 0.8778(9) 1.2455(12) 0.3378(25)
H5 H 0.9836(21) 1.1620(11) 0.4264(15)
H6 H 0.8254(13) 1.2440(18) 0.3971(32)
H7 H 0.7966(18) 1.3296(14) 0.221(4)
H8 H 0.9264(31) 1.3321(6) 0.0773(24)
H9 H 1.0844(23) 1.2504(10) 0.1059(14)
C10 C 1.3323(5) 1.0284(9) -0.0812(5)
C11 C 1.3970(4) 0.93885(29) 0.1543(14)
C12 C 1.3533(5) 1.0894(12) -0.1577(15)
C13 C 1.2959(6) 0.9607(11) -0.1448(16)
C14 C 1.3387(8) 1.0826(19) -0.2939(15)
C15 C 1.3028(10) 1.0153(22) -0.3558(12)
C16 C 1.2814(9) 0.9542(17) -0.2810(17)
C17 C 1.4250(4) 0.8841(7) 0.0689(20)
C18 C 1.4058(7) 0.9202(9) 0.2874(14)
C19 C 1.4418(9) 0.8491(10) 0.3335(24)
C20 C 1.4694(8) 0.7954(7) 0.2478(32)
C21 C 1.4609(5) 0.8130(6) 0.1156(30)
H10 H 1.3869(7) 0.9570(15) 0.3465(19)
H11 H 1.4474(13) 0.8374(18) 0.4244(25)
H12 H 1.4941(11) 0.7467(8) 0.279(4)
H13 H 1.4798(5) 0.7764(11) 0.056(4)
H14 H 1.4194(8) 0.8959(15) -0.0220(19)
H15 H 1.3780(6) 1.1359(11) -0.1161(28)
H16 H 1.3535(9) 1.1247(23) -0.3449(26)
H17 H 1.2930(14) 1.0110(29) -0.4490(13)
H18 H 1.2568(11) 0.9078(20) -0.3228(29)
H19 H 1.2812(6) 0.9187(11) -0.0934(28)
C22 C 1.13081(24) 1.0781(6) 0.4368(8)
C23 C 1.1319(5) 1.1103(9) 0.5600(9)
C24 C 1.1011(6) 1.0672(12) 0.6595(10)
C25 C 1.0693(5) 0.9926(12) 0.6372(15)
C26 C 1.0682(4) 0.9604(9) 0.5148(17)
C27 C 1.0988(4) 1.0028(7) 0.4141(13)
H20 H 1.1536(9) 1.1615(9) 0.5753(21)
H21 H 1.1018(9) 1.0890(17) 0.7437(11)
H22 H 1.0493(5) 0.9664(16) 0.7099(19)
H23 H 1.0464(7) 0.9092(9) 0.4995(28)
H24 H 1.0981(8) 0.9812(12) 0.3299(16)
O1B O 0.91624(35) 1.04402(21) -0.1503(7)
C1B C 0.9940(5) 1.03457(24) -0.0487(5)
O2B O 1.06186(33) 1.0900(4) -0.03698(35)
Cu1B Cu 0.82528(30) 0.94435(13) -0.13528(31)
P1B P 0.82979(26) 0.86854(13) -0.30127(26)
P2B P 0.65075(16) 0.96722(21) -0.0981(5)
C2B C 0.6768(7) 0.8476(10) -0.3000(16)
C3B C 0.6063(11) 0.8823(8) -0.1973(19)
H1B H 0.6749(25) 0.7939(9) -0.285(5)
H2B H 0.6349(13) 0.8647(29) -0.3851(16)
H3B H 0.606(4) 0.8427(9) -0.1331(29)
H4B H 0.5315(13) 0.8949(22) -0.251(4)
C4B C 0.9497(6) 0.8022(4) -0.2695(11)
C5B C 1.0283(9) 0.8032(9) -0.3551(16)
C6B C 0.9679(16) 0.7511(4) -0.1653(13)
C7B C 1.0621(20) 0.7026(6) -0.1487(22)
C8B C 1.1393(15) 0.7039(10) -0.2340(28)
C9B C 1.1222(9) 0.7545(12) -0.3378(25)
H5B H 1.0164(21) 0.8380(11) -0.4264(15)
H6B H 1.1746(13) 0.7560(18) -0.3971(32)
H7B H 1.2034(18) 0.6704(14) -0.221(4)
H8B H 1.0736(31) 0.6679(6) -0.0773(24)
H9B H 0.9156(23) 0.7496(10) -0.1059(14)
C10B C 0.6677(5) 0.9716(9) 0.0812(5)
C11B C 0.6030(4) 1.06115(29) -0.1543(14)
C12B C 0.6467(5) 0.9106(12) 0.1577(15)
C13B C 0.7041(6) 1.0393(11) 0.1448(16)
C14B C 0.6613(8) 0.9174(19) 0.2939(15)
C15B C 0.6972(10) 0.9847(22) 0.3558(12)
C16B C 0.7186(9) 1.0458(17) 0.2810(17)
C17B C 0.5750(4) 1.1159(7) -0.0689(20)
C18B C 0.5942(7) 1.0798(9) -0.2874(14)
C19B C 0.5582(9) 1.1509(10) -0.3335(24)
C20B C 0.5306(8) 1.2046(7) -0.2478(32)
C21B C 0.5391(5) 1.1870(6) -0.1156(30)
H10B H 0.6131(7) 1.0430(15) -0.3465(19)
H11B H 0.5526(13) 1.1626(18) -0.4244(25)
H12B H 0.5059(11) 1.2533(8) -0.279(4)
H13B H 0.5202(5) 1.2236(11) -0.056(4)
H14B H 0.5806(8) 1.1041(15) 0.0220(19)
H15B H 0.6220(6) 0.8641(11) 0.1161(28)
H16B H 0.6465(9) 0.8753(23) 0.3449(26)
H17B H 0.7070(14) 0.9890(29) 0.4490(13)
H18B H 0.7432(11) 1.0922(20) 0.3228(29)
H19B H 0.7188(6) 1.0813(11) 0.0934(28)
C22B C 0.86919(24) 0.9219(6) -0.4368(8)
C23B C 0.8681(5) 0.8897(9) -0.5600(9)
C24B C 0.8989(6) 0.9328(12) -0.6595(10)
C25B C 0.9307(5) 1.0074(12) -0.6372(15)
C26B C 0.9318(4) 1.0396(9) -0.5148(17)
C27B C 0.9012(4) 0.9972(7) -0.4141(13)
H20B H 0.8464(9) 0.8385(9) -0.5753(21)
H21B H 0.8982(9) 0.9110(17) -0.7437(11)
H22B H 0.9507(5) 1.0336(16) -0.7099(19)
H23B H 0.9536(7) 1.0908(9) -0.4995(28)
H24B H 0.9019(8) 1.0188(12) -0.3299(16)
Cu1 Cu 1.17472(30) 1.05565(13) 1.13528(31)
P1 P 1.17021(26) 1.13146(13) 1.30127(26)
P2 P 1.34925(16) 1.03278(21) 1.0981(5)
O1 O 1.08376(35) 0.95598(21) 1.1503(7)
C1 C 1.0060(5) 0.96543(24) 1.0487(5)
O2 O 0.93814(33) 0.9100(4) 1.03698(35)
C2 C 1.3232(7) 1.1524(10) 1.3000(16)
C3 C 1.3937(11) 1.1177(8) 1.1973(19)
H1 H 1.3251(25) 1.2061(9) 1.285(5)
H2 H 1.3651(13) 1.1353(29) 1.3851(16)
H3 H 1.394(4) 1.1573(9) 1.1331(29)
H4 H 1.4685(13) 1.1051(22) 1.251(4)
C4 C 1.0503(6) 1.1978(4) 1.2695(11)
C5 C 0.9717(9) 1.1968(9) 1.3551(16)
C6 C 1.0321(16) 1.2489(4) 1.1653(13)
C7 C 0.9379(20) 1.2974(6) 1.1487(22)
C8 C 0.8607(15) 1.2961(10) 1.2340(28)
C9 C 0.8778(9) 1.2455(12) 1.3378(25)
H5 H 0.9836(21) 1.1620(11) 1.4264(15)
H6 H 0.8254(13) 1.2440(18) 1.3971(32)
H7 H 0.7966(18) 1.3296(14) 1.221(4)
H8 H 0.9264(31) 1.3321(6) 1.0773(24)
H9 H 1.0844(23) 1.2504(10) 1.1059(14)
C10 C 1.3323(5) 1.0284(9) 0.9188(5)
C11 C 1.3970(4) 0.93885(29) 1.1543(14)
C12 C 1.3533(5) 1.0894(12) 0.8423(15)
C13 C 1.2959(6) 0.9607(11) 0.8552(16)
C14 C 1.3387(8) 1.0826(19) 0.7061(15)
C15 C 1.3028(10) 1.0153(22) 0.6442(12)
C16 C 1.2814(9) 0.9542(17) 0.7190(17)
C17 C 1.4250(4) 0.8841(7) 1.0689(20)
C18 C 1.4058(7) 0.9202(9) 1.2874(14)
C19 C 1.4418(9) 0.8491(10) 1.3335(24)
C20 C 1.4694(8) 0.7954(7) 1.2478(32)
C21 C 1.4609(5) 0.8130(6) 1.1156(30)
H10 H 1.3869(7) 0.9570(15) 1.3465(19)
H11 H 1.4474(13) 0.8374(18) 1.4244(25)
H12 H 1.4941(11) 0.7467(8) 1.279(4)
H13 H 1.4798(5) 0.7764(11) 1.056(4)
H14 H 1.4194(8) 0.8959(15) 0.9780(19)
H15 H 1.3780(6) 1.1359(11) 0.8839(28)
H16 H 1.3535(9) 1.1247(23) 0.6551(26)
H17 H 1.2930(14) 1.0110(29) 0.5510(13)
H18 H 1.2568(11) 0.9078(20) 0.6772(29)
H19 H 1.2812(6) 0.9187(11) 0.9066(28)
C22 C 1.13081(24) 1.0781(6) 1.4368(8)
C23 C 1.1319(5) 1.1103(9) 1.5600(9)
C24 C 1.1011(6) 1.0672(12) 1.6595(10)
C25 C 1.0693(5) 0.9926(12) 1.6372(15)
C26 C 1.0682(4) 0.9604(9) 1.5148(17)
C27 C 1.0988(4) 1.0028(7) 1.4141(13)
H20 H 1.1536(9) 1.1615(9) 1.5753(21)
H21 H 1.1018(9) 1.0890(17) 1.7437(11)
H22 H 1.0493(5) 0.9664(16) 1.7099(19)
H23 H 1.0464(7) 0.9092(9) 1.4995(28)
H24 H 1.0981(8) 0.9812(12) 1.3299(16)
O1B O 0.91624(35) 1.04402(21) 0.8497(7)
C1B C 0.9940(5) 1.03457(24) 0.9513(5)
O2B O 1.06186(33) 1.0900(4) 0.96302(35)
Cu1B Cu 0.82528(30) 0.94435(13) 0.86472(31)
P1B P 0.82979(26) 0.86854(13) 0.69873(26)
P2B P 0.65075(16) 0.96722(21) 0.9019(5)
C2B C 0.6768(7) 0.8476(10) 0.7000(16)
C3B C 0.6063(11) 0.8823(8) 0.8027(19)
H1B H 0.6749(25) 0.7939(9) 0.715(5)
H2B H 0.6349(13) 0.8647(29) 0.6149(16)
H3B H 0.606(4) 0.8427(9) 0.8669(29)
H4B H 0.5315(13) 0.8949(22) 0.749(4)
C4B C 0.9497(6) 0.8022(4) 0.7305(11)
C5B C 1.0283(9) 0.8032(9) 0.6449(16)
C6B C 0.9679(16) 0.7511(4) 0.8347(13)
C7B C 1.0621(20) 0.7026(6) 0.8513(22)
C8B C 1.1393(15) 0.7039(10) 0.7660(28)
C9B C 1.1222(9) 0.7545(12) 0.6622(25)
H5B H 1.0164(21) 0.8380(11) 0.5736(15)
H6B H 1.1746(13) 0.7560(18) 0.6029(32)
H7B H 1.2034(18) 0.6704(14) 0.779(4)
H8B H 1.0736(31) 0.6679(6) 0.9227(24)
H9B H 0.9156(23) 0.7496(10) 0.8941(14)
C10B C 0.6677(5) 0.9716(9) 1.0812(5)
C11B C 0.6030(4) 1.06115(29) 0.8457(14)
C12B C 0.6467(5) 0.9106(12) 1.1577(15)
C13B C 0.7041(6) 1.0393(11) 1.1448(16)
C14B C 0.6613(8) 0.9174(19) 1.2939(15)
C15B C 0.6972(10) 0.9847(22) 1.3558(12)
C16B C 0.7186(9) 1.0458(17) 1.2810(17)
C17B C 0.5750(4) 1.1159(7) 0.9311(20)
C18B C 0.5942(7) 1.0798(9) 0.7126(14)
C19B C 0.5582(9) 1.1509(10) 0.6665(24)
C20B C 0.5306(8) 1.2046(7) 0.7522(32)
C21B C 0.5391(5) 1.1870(6) 0.8844(30)
H10B H 0.6131(7) 1.0430(15) 0.6535(19)
H11B H 0.5526(13) 1.1626(18) 0.5756(25)
H12B H 0.5059(11) 1.2533(8) 0.721(4)
H13B H 0.5202(5) 1.2236(11) 0.944(4)
H14B H 0.5806(8) 1.1041(15) 1.0220(19)
H15B H 0.6220(6) 0.8641(11) 1.1161(28)
H16B H 0.6465(9) 0.8753(23) 1.3449(26)
H17B H 0.7070(14) 0.9890(29) 1.4490(13)
H18B H 0.7432(11) 1.0922(20) 1.3228(29)
H19B H 0.7188(6) 1.0813(11) 1.0934(28)
C22B C 0.86919(24) 0.9219(6) 0.5632(8)
C23B C 0.8681(5) 0.8897(9) 0.4400(9)
C24B C 0.8989(6) 0.9328(12) 0.3405(10)
C25B C 0.9307(5) 1.0074(12) 0.3628(15)
C26B C 0.9318(4) 1.0396(9) 0.4852(17)
C27B C 0.9012(4) 0.9972(7) 0.5859(13)
H20B H 0.8464(9) 0.8385(9) 0.4247(21)
H21B H 0.8982(9) 0.9110(17) 0.2563(11)
H22B H 0.9507(5) 1.0336(16) 0.2901(19)
H23B H 0.9536(7) 1.0908(9) 0.5005(28)
H24B H 0.9019(8) 1.0188(12) 0.6701(16)
Cu1 Cu -0.17472(30) 0.55565(13) 0.36472(31)
P1 P -0.17021(26) 0.63146(13) 0.19873(26)
P2 P -0.34925(16) 0.53278(21) 0.4019(5)
O1 O -0.08376(35) 0.45598(21) 0.3497(7)
C1 C -0.0060(5) 0.46543(24) 0.4513(5)
O2 O 0.06186(33) 0.4100(4) 0.46302(35)
C2 C -0.3232(7) 0.6524(10) 0.2000(16)
C3 C -0.3937(11) 0.6177(8) 0.3027(19)
H1 H -0.3251(25) 0.7061(9) 0.215(5)
H2 H -0.3651(13) 0.6353(29) 0.1149(16)
H3 H -0.394(4) 0.6573(9) 0.3669(29)
H4 H -0.4685(13) 0.6051(22) 0.249(4)
C4 C -0.0503(6) 0.6978(4) 0.2305(11)
C5 C 0.0283(9) 0.6968(9) 0.1449(16)
C6 C -0.0321(16) 0.7489(4) 0.3347(13)
C7 C 0.0621(20) 0.7974(6) 0.3513(22)
C8 C 0.1393(15) 0.7961(10) 0.2660(28)
C9 C 0.1222(9) 0.7455(12) 0.1622(25)
H5 H 0.0164(21) 0.6620(11) 0.0736(15)
H6 H 0.1746(13) 0.7440(18) 0.1029(32)
H7 H 0.2034(18) 0.8296(14) 0.279(4)
H8 H 0.0736(31) 0.8321(6) 0.4227(24)
H9 H -0.0844(23) 0.7504(10) 0.3941(14)
C10 C -0.3323(5) 0.5284(9) 0.5812(5)
C11 C -0.3970(4) 0.43885(29) 0.3457(14)
C12 C -0.3533(5) 0.5894(12) 0.6577(15)
C13 C -0.2959(6) 0.4607(11) 0.6448(16)
C14 C -0.3387(8) 0.5826(19) 0.7939(15)
C15 C -0.3028(10) 0.5153(22) 0.8558(12)
C16 C -0.2814(9) 0.4542(17) 0.7810(17)
C17 C -0.4250(4) 0.3841(7) 0.4311(20)
C18 C -0.4058(7) 0.4202(9) 0.2126(14)
C19 C -0.4418(9) 0.3491(10) 0.1665(24)
C20 C -0.4694(8) 0.2954(7) 0.2522(32)
C21 C -0.4609(5) 0.3130(6) 0.3844(30)
H10 H -0.3869(7) 0.4570(15) 0.1535(19)
H11 H -0.4474(13) 0.3374(18) 0.0756(25)
H12 H -0.4941(11) 0.2467(8) 0.221(4)
H13 H -0.4798(5) 0.2764(11) 0.444(4)
H14 H -0.4194(8) 0.3959(15) 0.5220(19)
H15 H -0.3780(6) 0.6359(11) 0.6161(28)
H16 H -0.3535(9) 0.6247(23) 0.8449(26)
H17 H -0.2930(14) 0.5110(29) 0.9490(13)
H18 H -0.2568(11) 0.4078(20) 0.8228(29)
H19 H -0.2812(6) 0.4187(11) 0.5934(28)
C22 C -0.13081(24) 0.5781(6) 0.0632(8)
C23 C -0.1319(5) 0.6103(9) -0.0600(9)
C24 C -0.1011(6) 0.5672(12) -0.1595(10)
C25 C -0.0693(5) 0.4926(12) -0.1372(15)
C26 C -0.0682(4) 0.4604(9) -0.0148(17)
C27 C -0.0988(4) 0.5028(7) 0.0859(13)
H20 H -0.1536(9) 0.6615(9) -0.0753(21)
H21 H -0.1018(9) 0.5890(17) -0.2437(11)
H22 H -0.0493(5) 0.4664(16) -0.2099(19)
H23 H -0.0464(7) 0.4092(9) 0.0005(28)
H24 H -0.0981(8) 0.4812(12) 0.1701(16)
O1B O 0.08376(35) 0.54402(21) 0.6503(7)
C1B C 0.0060(5) 0.53457(24) 0.5487(5)
O2B O -0.06186(33) 0.5900(4) 0.53698(35)
Cu1B Cu 0.17472(30) 0.44435(13) 0.63528(31)
P1B P 0.17021(26) 0.36854(13) 0.80127(26)
P2B P 0.34925(16) 0.46722(21) 0.5981(5)
C2B C 0.3232(7) 0.3476(10) 0.8000(16)
C3B C 0.3937(11) 0.3823(8) 0.6973(19)
H1B H 0.3251(25) 0.2939(9) 0.785(5)
H2B H 0.3651(13) 0.3647(29) 0.8851(16)
H3B H 0.394(4) 0.3427(9) 0.6331(29)
H4B H 0.4685(13) 0.3949(22) 0.751(4)
C4B C 0.0503(6) 0.3022(4) 0.7695(11)
C5B C -0.0283(9) 0.3032(9) 0.8551(16)
C6B C 0.0321(16) 0.2511(4) 0.6653(13)
C7B C -0.0621(20) 0.2026(6) 0.6487(22)
C8B C -0.1393(15) 0.2039(10) 0.7340(28)
C9B C -0.1222(9) 0.2545(12) 0.8378(25)
H5B H -0.0164(21) 0.3380(11) 0.9264(15)
H6B H -0.1746(13) 0.2560(18) 0.8971(32)
H7B H -0.2034(18) 0.1704(14) 0.721(4)
H8B H -0.0736(31) 0.1679(6) 0.5773(24)
H9B H 0.0844(23) 0.2496(10) 0.6059(14)
C10B C 0.3323(5) 0.4716(9) 0.4188(5)
C11B C 0.3970(4) 0.56115(29) 0.6543(14)
C12B C 0.3533(5) 0.4106(12) 0.3423(15)
C13B C 0.2959(6) 0.5393(11) 0.3552(16)
C14B C 0.3387(8) 0.4174(19) 0.2061(15)
C15B C 0.3028(10) 0.4847(22) 0.1442(12)
C16B C 0.2814(9) 0.5458(17) 0.2190(17)
C17B C 0.4250(4) 0.6159(7) 0.5689(20)
C18B C 0.4058(7) 0.5798(9) 0.7874(14)
C19B C 0.4418(9) 0.6509(10) 0.8335(24)
C20B C 0.4694(8) 0.7046(7) 0.7478(32)
C21B C 0.4609(5) 0.6870(6) 0.6156(30)
H10B H 0.3869(7) 0.5430(15) 0.8465(19)
H11B H 0.4474(13) 0.6626(18) 0.9244(25)
H12B H 0.4941(11) 0.7533(8) 0.779(4)
H13B H 0.4798(5) 0.7236(11) 0.556(4)
H14B H 0.4194(8) 0.6041(15) 0.4780(19)
H15B H 0.3780(6) 0.3641(11) 0.3839(28)
H16B H 0.3535(9) 0.3753(23) 0.1551(26)
H17B H 0.2930(14) 0.4890(29) 0.0510(13)
H18B H 0.2568(11) 0.5922(20) 0.1772(29)
H19B H 0.2812(6) 0.5813(11) 0.4066(28)
C22B C 0.13081(24) 0.4219(6) 0.9368(8)
C23B C 0.1319(5) 0.3897(9) 1.0600(9)
C24B C 0.1011(6) 0.4328(12) 1.1595(10)
C25B C 0.0693(5) 0.5074(12) 1.1372(15)
C26B C 0.0682(4) 0.5396(9) 1.0148(17)
C27B C 0.0988(4) 0.4972(7) 0.9141(13)
H20B H 0.1536(9) 0.3385(9) 1.0753(21)
H21B H 0.1018(9) 0.4110(17) 1.2437(11)
H22B H 0.0493(5) 0.5336(16) 1.2099(19)
H23B H 0.0464(7) 0.5908(9) 0.9995(28)
H24B H 0.0981(8) 0.5188(12) 0.8299(16)
Cu1 Cu 0.82528(30) 0.55565(13) 0.36472(31)
P1 P 0.82979(26) 0.63146(13) 0.19873(26)
P2 P 0.65075(16) 0.53278(21) 0.4019(5)
O1 O 0.91624(35) 0.45598(21) 0.3497(7)
C1 C 0.9940(5) 0.46543(24) 0.4513(5)
O2 O 1.06186(33) 0.4100(4) 0.46302(35)
C2 C 0.6768(7) 0.6524(10) 0.2000(16)
C3 C 0.6063(11) 0.6177(8) 0.3027(19)
H1 H 0.6749(25) 0.7061(9) 0.215(5)
H2 H 0.6349(13) 0.6353(29) 0.1149(16)
H3 H 0.606(4) 0.6573(9) 0.3669(29)
H4 H 0.5315(13) 0.6051(22) 0.249(4)
C4 C 0.9497(6) 0.6978(4) 0.2305(11)
C5 C 1.0283(9) 0.6968(9) 0.1449(16)
C6 C 0.9679(16) 0.7489(4) 0.3347(13)
C7 C 1.0621(20) 0.7974(6) 0.3513(22)
C8 C 1.1393(15) 0.7961(10) 0.2660(28)
C9 C 1.1222(9) 0.7455(12) 0.1622(25)
H5 H 1.0164(21) 0.6620(11) 0.0736(15)
H6 H 1.1746(13) 0.7440(18) 0.1029(32)
H7 H 1.2034(18) 0.8296(14) 0.279(4)
H8 H 1.0736(31) 0.8321(6) 0.4227(24)
H9 H 0.9156(23) 0.7504(10) 0.3941(14)
C10 C 0.6677(5) 0.5284(9) 0.5812(5)
C11 C 0.6030(4) 0.43885(29) 0.3457(14)
C12 C 0.6467(5) 0.5894(12) 0.6577(15)
C13 C 0.7041(6) 0.4607(11) 0.6448(16)
C14 C 0.6613(8) 0.5826(19) 0.7939(15)
C15 C 0.6972(10) 0.5153(22) 0.8558(12)
C16 C 0.7186(9) 0.4542(17) 0.7810(17)
C17 C 0.5750(4) 0.3841(7) 0.4311(20)
C18 C 0.5942(7) 0.4202(9) 0.2126(14)
C19 C 0.5582(9) 0.3491(10) 0.1665(24)
C20 C 0.5306(8) 0.2954(7) 0.2522(32)
C21 C 0.5391(5) 0.3130(6) 0.3844(30)
H10 H 0.6131(7) 0.4570(15) 0.1535(19)
H11 H 0.5526(13) 0.3374(18) 0.0756(25)
H12 H 0.5059(11) 0.2467(8) 0.221(4)
H13 H 0.5202(5) 0.2764(11) 0.444(4)
H14 H 0.5806(8) 0.3959(15) 0.5220(19)
H15 H 0.6220(6) 0.6359(11) 0.6161(28)
H16 H 0.6465(9) 0.6247(23) 0.8449(26)
H17 H 0.7070(14) 0.5110(29) 0.9490(13)
H18 H 0.7432(11) 0.4078(20) 0.8228(29)
H19 H 0.7188(6) 0.4187(11) 0.5934(28)
C22 C 0.86919(24) 0.5781(6) 0.0632(8)
C23 C 0.8681(5) 0.6103(9) -0.0600(9)
C24 C 0.8989(6) 0.5672(12) -0.1595(10)
C25 C 0.9307(5) 0.4926(12) -0.1372(15)
C26 C 0.9318(4) 0.4604(9) -0.0148(17)
C27 C 0.9012(4) 0.5028(7) 0.0859(13)
H20 H 0.8464(9) 0.6615(9) -0.0753(21)
H21 H 0.8982(9) 0.5890(17) -0.2437(11)
H22 H 0.9507(5) 0.4664(16) -0.2099(19)
H23 H 0.9536(7) 0.4092(9) 0.0005(28)
H24 H 0.9019(8) 0.4812(12) 0.1701(16)
O1B O 1.08376(35) 0.54402(21) 0.6503(7)
C1B C 1.0060(5) 0.53457(24) 0.5487(5)
O2B O 0.93814(33) 0.5900(4) 0.53698(35)
Cu1B Cu 1.17472(30) 0.44435(13) 0.63528(31)
P1B P 1.17021(26) 0.36854(13) 0.80127(26)
P2B P 1.34925(16) 0.46722(21) 0.5981(5)
C2B C 1.3232(7) 0.3476(10) 0.8000(16)
C3B C 1.3937(11) 0.3823(8) 0.6973(19)
H1B H 1.3251(25) 0.2939(9) 0.785(5)
H2B H 1.3651(13) 0.3647(29) 0.8851(16)
H3B H 1.394(4) 0.3427(9) 0.6331(29)
H4B H 1.4685(13) 0.3949(22) 0.751(4)
C4B C 1.0503(6) 0.3022(4) 0.7695(11)
C5B C 0.9717(9) 0.3032(9) 0.8551(16)
C6B C 1.0321(16) 0.2511(4) 0.6653(13)
C7B C 0.9379(20) 0.2026(6) 0.6487(22)
C8B C 0.8607(15) 0.2039(10) 0.7340(28)
C9B C 0.8778(9) 0.2545(12) 0.8378(25)
H5B H 0.9836(21) 0.3380(11) 0.9264(15)
H6B H 0.8254(13) 0.2560(18) 0.8971(32)
H7B H 0.7966(18) 0.1704(14) 0.721(4)
H8B H 0.9264(31) 0.1679(6) 0.5773(24)
H9B H 1.0844(23) 0.2496(10) 0.6059(14)
C10B C 1.3323(5) 0.4716(9) 0.4188(5)
C11B C 1.3970(4) 0.56115(29) 0.6543(14)
C12B C 1.3533(5) 0.4106(12) 0.3423(15)
C13B C 1.2959(6) 0.5393(11) 0.3552(16)
C14B C 1.3387(8) 0.4174(19) 0.2061(15)
C15B C 1.3028(10) 0.4847(22) 0.1442(12)
C16B C 1.2814(9) 0.5458(17) 0.2190(17)
C17B C 1.4250(4) 0.6159(7) 0.5689(20)
C18B C 1.4058(7) 0.5798(9) 0.7874(14)
C19B C 1.4418(9) 0.6509(10) 0.8335(24)
C20B C 1.4694(8) 0.7046(7) 0.7478(32)
C21B C 1.4609(5) 0.6870(6) 0.6156(30)
H10B H 1.3869(7) 0.5430(15) 0.8465(19)
H11B H 1.4474(13) 0.6626(18) 0.9244(25)
H12B H 1.4941(11) 0.7533(8) 0.779(4)
H13B H 1.4798(5) 0.7236(11) 0.556(4)
H14B H 1.4194(8) 0.6041(15) 0.4780(19)
H15B H 1.3780(6) 0.3641(11) 0.3839(28)
H16B H 1.3535(9) 0.3753(23) 0.1551(26)
H17B H 1.2930(14) 0.4890(29) 0.0510(13)
H18B H 1.2568(11) 0.5922(20) 0.1772(29)
H19B H 1.2812(6) 0.5813(11) 0.4066(28)
C22B C 1.13081(24) 0.4219(6) 0.9368(8)
C23B C 1.1319(5) 0.3897(9) 1.0600(9)
C24B C 1.1011(6) 0.4328(12) 1.1595(10)
C25B C 1.0693(5) 0.5074(12) 1.1372(15)
C26B C 1.0682(4) 0.5396(9) 1.0148(17)
C27B C 1.0988(4) 0.4972(7) 0.9141(13)
H20B H 1.1536(9) 0.3385(9) 1.0753(21)
H21B H 1.1018(9) 0.4110(17) 1.2437(11)
H22B H 1.0493(5) 0.5336(16) 1.2099(19)
H23B H 1.0464(7) 0.5908(9) 0.9995(28)
H24B H 1.0981(8) 0.5188(12) 0.8299(16)

#END
