
#######################################################################
#
#                 Cambridge Crystallographic Data Centre
#                                CCDC 
#
#######################################################################
#
# If this CIF has been generated from an entry in the Cambridge 
# Structural Database, then it will include bibliographic, chemical, 
# crystal, experimental, refinement or atomic coordinate data resulting 
# from the CCDC's data processing and validation procedures.
#
#######################################################################

data_ABAGEQ
_symmetry_cell_setting           monoclinic
_symmetry_space_group_name_H-M   'P 21/n'
_symmetry_Int_Tables_number      14
_space_group_name_Hall           '-P 2yn'
loop_
_symmetry_equiv_pos_site_id
_symmetry_equiv_pos_as_xyz
1 x,y,z
2 1/2+x,1/2-y,1/2+z
3 -x,-y,-z
4 1/2-x,1/2+y,1/2-z
_cell_length_a                   12.2784(10)
_cell_length_b                   14.8498(12)
_cell_length_c                   14.4883(12)
_cell_angle_alpha                90
_cell_angle_beta                 102.044(2)
_cell_angle_gamma                90
_cell_volume                     2583.53
loop_
_atom_site_label
_atom_site_type_symbol
_atom_site_fract_x
_atom_site_fract_y
_atom_site_fract_z
Ca1 Ca 0.50349(8) 0.08743(5) 0.41533(6)
N1 N 0.6389(3) 0.1317(2) 0.3369(2)
O1 O 0.5615(3) 0.05437(18) 0.57125(19)
Si1 Si 0.58626(9) 0.19298(6) 0.23901(7)
Si2 Si 0.78098(15) 0.10911(11) 0.37687(11)
C1 C 0.8609(5) 0.0994(5) 0.2794(4)
H1 H 0.9383 0.0828 0.3063
H2 H 0.8594 0.1574 0.2468
H3 H 0.8267 0.0531 0.2344
C2 C 0.8581(5) 0.1943(5) 0.4613(4)
H4 H 0.8582 0.2523 0.4290
H5 H 0.9350 0.1741 0.4841
H6 H 0.8214 0.2011 0.5148
C3 C 0.7847(7) -0.0094(4) 0.4353(5)
H7 H 0.7382 -0.0089 0.4827
H8 H 0.8615 -0.0243 0.4658
H9 H 0.7563 -0.0545 0.3869
C7 C 0.6225(4) 0.1077(3) 0.6379(3)
C8 C 0.6506(4) 0.1922(3) 0.6219(4)
H10 H 0.6275 0.2179 0.5609
H11 H 0.6938 0.2267 0.6716
C9 C 0.6572(3) 0.0656(2) 0.7342(3)
C10 C 0.7628(3) 0.0267(2) 0.7623(3)
C11 C 0.7915(4) -0.0142(2) 0.8495(3)
H12 H 0.8622 -0.0424 0.8671
C12 C 0.7200(4) -0.0154(2) 0.9123(3)
C13 C 0.6169(3) 0.0258(2) 0.8845(3)
H13 H 0.5679 0.0271 0.9272
C14 C 0.5828(3) 0.0651(2) 0.7961(3)
C15 C 0.8468(4) 0.0304(3) 0.6988(4)
H14 H 0.8745 0.0922 0.6970
H15 H 0.8109 0.0115 0.6349
H16 H 0.9092 -0.0100 0.7236
C16 C 0.7542(4) -0.0606(3) 1.0065(3)
H17 H 0.7577 -0.1259 0.9975
H18 H 0.6996 -0.0471 1.0452
H19 H 0.8276 -0.0384 1.0383
C17 C 0.4686(4) 0.1067(3) 0.7686(3)
H20 H 0.4154 0.0612 0.7378
H21 H 0.4706 0.1567 0.7249
H22 H 0.4455 0.1291 0.8252
O2 O 0.3388(4) 0.1775(3) 0.4300(3)
C18 C 0.3569(7) 0.2259(5) 0.5183(5)
H23 H 0.4158 0.1951 0.5647
H24 H 0.2876 0.2248 0.5431
C19 C 0.3915(8) 0.3239(4) 0.5077(6)
H25 H 0.3312 0.3558 0.4654
H26 H 0.4587 0.3253 0.4812
H27 H 0.4069 0.3531 0.5697
C20 C 0.2407(6) 0.2071(4) 0.3616(4)
H28 H 0.2312 0.1676 0.3054
H29 H 0.2540 0.2690 0.3411
C21 C 0.1357(7) 0.2065(4) 0.3971(6)
H30 H 0.1293 0.1493 0.4294
H31 H 0.0722 0.2132 0.3439
H32 H 0.1363 0.2564 0.4413
C26 C 0.4321(3) 0.2031(3) 0.2278(3)
H33 H 0.3998 0.1431 0.2305
H34 H 0.3992 0.2316 0.1673
H35 H 0.4165 0.2401 0.2796
C27 C 0.6413(4) 0.3108(3) 0.2422(3)
H36 H 0.6245 0.3425 0.2969
H37 H 0.6060 0.3424 0.1843
H38 H 0.7221 0.3092 0.2471
C28 C 0.6054(4) 0.1429(3) 0.1242(3)
H39 H 0.6818 0.1536 0.1167
H40 H 0.5530 0.1710 0.0718
H41 H 0.5914 0.0779 0.1244
Ca1B Ca 0.49651(8) -0.08743(5) 0.58467(6)
N1B N 0.3611(3) -0.1317(2) 0.6631(2)
Si1B Si 0.41374(9) -0.19298(6) 0.76099(7)
C26B C 0.5679(3) -0.2031(3) 0.7722(3)
H33B H 0.6002 -0.1431 0.7695
H34B H 0.6008 -0.2316 0.8327
H35B H 0.5835 -0.2401 0.7204
C27B C 0.3587(4) -0.3108(3) 0.7578(3)
H36B H 0.3755 -0.3425 0.7031
H37B H 0.3940 -0.3424 0.8157
H38B H 0.2779 -0.3092 0.7529
C28B C 0.3946(4) -0.1429(3) 0.8758(3)
H39B H 0.3182 -0.1536 0.8833
H40B H 0.4470 -0.1710 0.9282
H41B H 0.4086 -0.0779 0.8756
Si2B Si 0.21902(15) -0.10911(11) 0.62313(11)
C1B C 0.1391(5) -0.0994(5) 0.7206(4)
H1B H 0.0617 -0.0828 0.6937
H2B H 0.1406 -0.1574 0.7532
H3B H 0.1733 -0.0531 0.7656
C2B C 0.1419(5) -0.1943(5) 0.5387(4)
H4B H 0.1418 -0.2523 0.5710
H5B H 0.0650 -0.1741 0.5159
H6B H 0.1786 -0.2011 0.4852
C3B C 0.2153(7) 0.0094(4) 0.5647(5)
H7B H 0.2618 0.0089 0.5173
H8B H 0.1385 0.0243 0.5342
H9B H 0.2437 0.0545 0.6131
O1B O 0.4385(3) -0.05437(18) 0.42875(19)
C7B C 0.3775(4) -0.1077(3) 0.3621(3)
C8B C 0.3494(4) -0.1922(3) 0.3781(4)
H10B H 0.3725 -0.2179 0.4391
H11B H 0.3062 -0.2267 0.3284
C9B C 0.3428(3) -0.0656(2) 0.2658(3)
C10B C 0.2372(3) -0.0267(2) 0.2377(3)
C11B C 0.2085(4) 0.0142(2) 0.1505(3)
H12B H 0.1378 0.0424 0.1329
C12B C 0.2800(4) 0.0154(2) 0.0877(3)
C13B C 0.3831(3) -0.0258(2) 0.1155(3)
H13B H 0.4321 -0.0271 0.0728
C14B C 0.4172(3) -0.0651(2) 0.2039(3)
C17B C 0.5314(4) -0.1067(3) 0.2314(3)
H20B H 0.5846 -0.0612 0.2622
H21B H 0.5294 -0.1567 0.2751
H22B H 0.5545 -0.1291 0.1748
C16B C 0.2458(4) 0.0606(3) -0.0065(3)
H17B H 0.2423 0.1259 0.0025
H18B H 0.3004 0.0471 -0.0452
H19B H 0.1724 0.0384 -0.0383
C15B C 0.1532(4) -0.0304(3) 0.3012(4)
H14B H 0.1255 -0.0922 0.3030
H15B H 0.1891 -0.0115 0.3651
H16B H 0.0908 0.0100 0.2764
O2B O 0.6612(4) -0.1775(3) 0.5700(3)
C18B C 0.6431(7) -0.2259(5) 0.4817(5)
H23B H 0.5842 -0.1951 0.4353
H24B H 0.7124 -0.2248 0.4569
C19B C 0.6085(8) -0.3239(4) 0.4923(6)
H25B H 0.6688 -0.3558 0.5346
H26B H 0.5413 -0.3253 0.5188
H27B H 0.5931 -0.3531 0.4303
C20B C 0.7593(6) -0.2071(4) 0.6384(4)
H28B H 0.7688 -0.1676 0.6946
H29B H 0.7460 -0.2690 0.6589
C21B C 0.8643(7) -0.2065(4) 0.6029(6)
H30B H 0.8707 -0.1493 0.5706
H31B H 0.9278 -0.2132 0.6561
H32B H 0.8637 -0.2564 0.5587
Ca1 Ca 0.50349(8) 1.08743(5) 0.41533(6)
N1 N 0.6389(3) 1.1317(2) 0.3369(2)
O1 O 0.5615(3) 1.05437(18) 0.57125(19)
Si1 Si 0.58626(9) 1.19298(6) 0.23901(7)
Si2 Si 0.78098(15) 1.10911(11) 0.37687(11)
C1 C 0.8609(5) 1.0994(5) 0.2794(4)
H1 H 0.9383 1.0828 0.3063
H2 H 0.8594 1.1574 0.2468
H3 H 0.8267 1.0531 0.2344
C2 C 0.8581(5) 1.1943(5) 0.4613(4)
H4 H 0.8582 1.2523 0.4290
H5 H 0.9350 1.1741 0.4841
H6 H 0.8214 1.2011 0.5148
C3 C 0.7847(7) 0.9906(4) 0.4353(5)
H7 H 0.7382 0.9911 0.4827
H8 H 0.8615 0.9757 0.4658
H9 H 0.7563 0.9455 0.3869
C7 C 0.6225(4) 1.1077(3) 0.6379(3)
C8 C 0.6506(4) 1.1922(3) 0.6219(4)
H10 H 0.6275 1.2179 0.5609
H11 H 0.6938 1.2267 0.6716
C9 C 0.6572(3) 1.0656(2) 0.7342(3)
C10 C 0.7628(3) 1.0267(2) 0.7623(3)
C11 C 0.7915(4) 0.9858(2) 0.8495(3)
H12 H 0.8622 0.9576 0.8671
C12 C 0.7200(4) 0.9846(2) 0.9123(3)
C13 C 0.6169(3) 1.0258(2) 0.8845(3)
H13 H 0.5679 1.0271 0.9272
C14 C 0.5828(3) 1.0651(2) 0.7961(3)
C15 C 0.8468(4) 1.0304(3) 0.6988(4)
H14 H 0.8745 1.0922 0.6970
H15 H 0.8109 1.0115 0.6349
H16 H 0.9092 0.9900 0.7236
C16 C 0.7542(4) 0.9394(3) 1.0065(3)
H17 H 0.7577 0.8741 0.9975
H18 H 0.6996 0.9529 1.0452
H19 H 0.8276 0.9616 1.0383
C17 C 0.4686(4) 1.1067(3) 0.7686(3)
H20 H 0.4154 1.0612 0.7378
H21 H 0.4706 1.1567 0.7249
H22 H 0.4455 1.1291 0.8252
O2 O 0.3388(4) 1.1775(3) 0.4300(3)
C18 C 0.3569(7) 1.2259(5) 0.5183(5)
H23 H 0.4158 1.1951 0.5647
H24 H 0.2876 1.2248 0.5431
C19 C 0.3915(8) 1.3239(4) 0.5077(6)
H25 H 0.3312 1.3558 0.4654
H26 H 0.4587 1.3253 0.4812
H27 H 0.4069 1.3531 0.5697
C20 C 0.2407(6) 1.2071(4) 0.3616(4)
H28 H 0.2312 1.1676 0.3054
H29 H 0.2540 1.2690 0.3411
C21 C 0.1357(7) 1.2065(4) 0.3971(6)
H30 H 0.1293 1.1493 0.4294
H31 H 0.0722 1.2132 0.3439
H32 H 0.1363 1.2564 0.4413
C26 C 0.4321(3) 1.2031(3) 0.2278(3)
H33 H 0.3998 1.1431 0.2305
H34 H 0.3992 1.2316 0.1673
H35 H 0.4165 1.2401 0.2796
C27 C 0.6413(4) 1.3108(3) 0.2422(3)
H36 H 0.6245 1.3425 0.2969
H37 H 0.6060 1.3424 0.1843
H38 H 0.7221 1.3092 0.2471
C28 C 0.6054(4) 1.1429(3) 0.1242(3)
H39 H 0.6818 1.1536 0.1167
H40 H 0.5530 1.1710 0.0718
H41 H 0.5914 1.0779 0.1244
Ca1B Ca 0.49651(8) 0.91257(5) 0.58467(6)
N1B N 0.3611(3) 0.8683(2) 0.6631(2)
Si1B Si 0.41374(9) 0.80702(6) 0.76099(7)
C26B C 0.5679(3) 0.7969(3) 0.7722(3)
H33B H 0.6002 0.8569 0.7695
H34B H 0.6008 0.7684 0.8327
H35B H 0.5835 0.7599 0.7204
C27B C 0.3587(4) 0.6892(3) 0.7578(3)
H36B H 0.3755 0.6575 0.7031
H37B H 0.3940 0.6576 0.8157
H38B H 0.2779 0.6908 0.7529
C28B C 0.3946(4) 0.8571(3) 0.8758(3)
H39B H 0.3182 0.8464 0.8833
H40B H 0.4470 0.8290 0.9282
H41B H 0.4086 0.9221 0.8756
Si2B Si 0.21902(15) 0.89089(11) 0.62313(11)
C1B C 0.1391(5) 0.9006(5) 0.7206(4)
H1B H 0.0617 0.9172 0.6937
H2B H 0.1406 0.8426 0.7532
H3B H 0.1733 0.9469 0.7656
C2B C 0.1419(5) 0.8057(5) 0.5387(4)
H4B H 0.1418 0.7477 0.5710
H5B H 0.0650 0.8259 0.5159
H6B H 0.1786 0.7989 0.4852
C3B C 0.2153(7) 1.0094(4) 0.5647(5)
H7B H 0.2618 1.0089 0.5173
H8B H 0.1385 1.0243 0.5342
H9B H 0.2437 1.0545 0.6131
O1B O 0.4385(3) 0.94563(18) 0.42875(19)
C7B C 0.3775(4) 0.8923(3) 0.3621(3)
C8B C 0.3494(4) 0.8078(3) 0.3781(4)
H10B H 0.3725 0.7821 0.4391
H11B H 0.3062 0.7733 0.3284
C9B C 0.3428(3) 0.9344(2) 0.2658(3)
C10B C 0.2372(3) 0.9733(2) 0.2377(3)
C11B C 0.2085(4) 1.0142(2) 0.1505(3)
H12B H 0.1378 1.0424 0.1329
C12B C 0.2800(4) 1.0154(2) 0.0877(3)
C13B C 0.3831(3) 0.9742(2) 0.1155(3)
H13B H 0.4321 0.9729 0.0728
C14B C 0.4172(3) 0.9349(2) 0.2039(3)
C17B C 0.5314(4) 0.8933(3) 0.2314(3)
H20B H 0.5846 0.9388 0.2622
H21B H 0.5294 0.8433 0.2751
H22B H 0.5545 0.8709 0.1748
C16B C 0.2458(4) 1.0606(3) -0.0065(3)
H17B H 0.2423 1.1259 0.0025
H18B H 0.3004 1.0471 -0.0452
H19B H 0.1724 1.0384 -0.0383
C15B C 0.1532(4) 0.9696(3) 0.3012(4)
H14B H 0.1255 0.9078 0.3030
H15B H 0.1891 0.9885 0.3651
H16B H 0.0908 1.0100 0.2764
O2B O 0.6612(4) 0.8225(3) 0.5700(3)
C18B C 0.6431(7) 0.7741(5) 0.4817(5)
H23B H 0.5842 0.8049 0.4353
H24B H 0.7124 0.7752 0.4569
C19B C 0.6085(8) 0.6761(4) 0.4923(6)
H25B H 0.6688 0.6442 0.5346
H26B H 0.5413 0.6747 0.5188
H27B H 0.5931 0.6469 0.4303
C20B C 0.7593(6) 0.7929(4) 0.6384(4)
H28B H 0.7688 0.8324 0.6946
H29B H 0.7460 0.7310 0.6589
C21B C 0.8643(7) 0.7935(4) 0.6029(6)
H30B H 0.8707 0.8507 0.5706
H31B H 0.9278 0.7868 0.6561
H32B H 0.8637 0.7436 0.5587
Ca1 Ca 0.00349(8) 0.41257(5) -0.08467(6)
N1 N 0.1389(3) 0.3683(2) -0.1631(2)
O1 O 0.0615(3) 0.44563(18) 0.07125(19)
Si1 Si 0.08626(9) 0.30702(6) -0.26099(7)
Si2 Si 0.28098(15) 0.39089(11) -0.12313(11)
C1 C 0.3609(5) 0.4006(5) -0.2206(4)
H1 H 0.4383 0.4172 -0.1937
H2 H 0.3594 0.3426 -0.2532
H3 H 0.3267 0.4469 -0.2656
C2 C 0.3581(5) 0.3057(5) -0.0387(4)
H4 H 0.3582 0.2477 -0.0710
H5 H 0.4350 0.3259 -0.0159
H6 H 0.3214 0.2989 0.0148
C3 C 0.2847(7) 0.5094(4) -0.0647(5)
H7 H 0.2382 0.5089 -0.0173
H8 H 0.3615 0.5243 -0.0342
H9 H 0.2563 0.5545 -0.1131
C7 C 0.1225(4) 0.3923(3) 0.1379(3)
C8 C 0.1506(4) 0.3078(3) 0.1219(4)
H10 H 0.1275 0.2821 0.0609
H11 H 0.1938 0.2733 0.1716
C9 C 0.1572(3) 0.4344(2) 0.2342(3)
C10 C 0.2628(3) 0.4733(2) 0.2623(3)
C11 C 0.2915(4) 0.5142(2) 0.3495(3)
H12 H 0.3622 0.5424 0.3671
C12 C 0.2200(4) 0.5154(2) 0.4123(3)
C13 C 0.1169(3) 0.4742(2) 0.3845(3)
H13 H 0.0679 0.4729 0.4272
C14 C 0.0828(3) 0.4349(2) 0.2961(3)
C15 C 0.3468(4) 0.4696(3) 0.1988(4)
H14 H 0.3745 0.4078 0.1970
H15 H 0.3109 0.4885 0.1349
H16 H 0.4092 0.5100 0.2236
C16 C 0.2542(4) 0.5606(3) 0.5065(3)
H17 H 0.2577 0.6259 0.4975
H18 H 0.1996 0.5471 0.5452
H19 H 0.3276 0.5384 0.5383
C17 C -0.0314(4) 0.3933(3) 0.2686(3)
H20 H -0.0846 0.4388 0.2378
H21 H -0.0294 0.3433 0.2249
H22 H -0.0545 0.3709 0.3252
O2 O -0.1612(4) 0.3225(3) -0.0700(3)
C18 C -0.1431(7) 0.2741(5) 0.0183(5)
H23 H -0.0842 0.3049 0.0647
H24 H -0.2124 0.2752 0.0431
C19 C -0.1085(8) 0.1761(4) 0.0077(6)
H25 H -0.1688 0.1442 -0.0346
H26 H -0.0413 0.1747 -0.0188
H27 H -0.0931 0.1469 0.0697
C20 C -0.2593(6) 0.2929(4) -0.1384(4)
H28 H -0.2688 0.3324 -0.1946
H29 H -0.2460 0.2310 -0.1589
C21 C -0.3643(7) 0.2935(4) -0.1029(6)
H30 H -0.3707 0.3507 -0.0706
H31 H -0.4278 0.2868 -0.1561
H32 H -0.3637 0.2436 -0.0587
C26 C -0.0679(3) 0.2969(3) -0.2722(3)
H33 H -0.1002 0.3569 -0.2695
H34 H -0.1008 0.2684 -0.3327
H35 H -0.0835 0.2599 -0.2204
C27 C 0.1413(4) 0.1892(3) -0.2578(3)
H36 H 0.1245 0.1575 -0.2031
H37 H 0.1060 0.1576 -0.3157
H38 H 0.2221 0.1908 -0.2529
C28 C 0.1054(4) 0.3571(3) -0.3758(3)
H39 H 0.1818 0.3464 -0.3833
H40 H 0.0530 0.3290 -0.4282
H41 H 0.0914 0.4221 -0.3756
Ca1B Ca -0.00349(8) 0.58743(5) 0.08467(6)
N1B N -0.1389(3) 0.6317(2) 0.1631(2)
Si1B Si -0.08626(9) 0.69298(6) 0.26099(7)
C26B C 0.0679(3) 0.7031(3) 0.2722(3)
H33B H 0.1002 0.6431 0.2695
H34B H 0.1008 0.7316 0.3327
H35B H 0.0835 0.7401 0.2204
C27B C -0.1413(4) 0.8108(3) 0.2578(3)
H36B H -0.1245 0.8425 0.2031
H37B H -0.1060 0.8424 0.3157
H38B H -0.2221 0.8092 0.2529
C28B C -0.1054(4) 0.6429(3) 0.3758(3)
H39B H -0.1818 0.6536 0.3833
H40B H -0.0530 0.6710 0.4282
H41B H -0.0914 0.5779 0.3756
Si2B Si -0.28098(15) 0.60911(11) 0.12313(11)
C1B C -0.3609(5) 0.5994(5) 0.2206(4)
H1B H -0.4383 0.5828 0.1937
H2B H -0.3594 0.6574 0.2532
H3B H -0.3267 0.5531 0.2656
C2B C -0.3581(5) 0.6943(5) 0.0387(4)
H4B H -0.3582 0.7523 0.0710
H5B H -0.4350 0.6741 0.0159
H6B H -0.3214 0.7011 -0.0148
C3B C -0.2847(7) 0.4906(4) 0.0647(5)
H7B H -0.2382 0.4911 0.0173
H8B H -0.3615 0.4757 0.0342
H9B H -0.2563 0.4455 0.1131
O1B O -0.0615(3) 0.55437(18) -0.07125(19)
C7B C -0.1225(4) 0.6077(3) -0.1379(3)
C8B C -0.1506(4) 0.6922(3) -0.1219(4)
H10B H -0.1275 0.7179 -0.0609
H11B H -0.1938 0.7267 -0.1716
C9B C -0.1572(3) 0.5656(2) -0.2342(3)
C10B C -0.2628(3) 0.5267(2) -0.2623(3)
C11B C -0.2915(4) 0.4858(2) -0.3495(3)
H12B H -0.3622 0.4576 -0.3671
C12B C -0.2200(4) 0.4846(2) -0.4123(3)
C13B C -0.1169(3) 0.5258(2) -0.3845(3)
H13B H -0.0679 0.5271 -0.4272
C14B C -0.0828(3) 0.5651(2) -0.2961(3)
C17B C 0.0314(4) 0.6067(3) -0.2686(3)
H20B H 0.0846 0.5612 -0.2378
H21B H 0.0294 0.6567 -0.2249
H22B H 0.0545 0.6291 -0.3252
C16B C -0.2542(4) 0.4394(3) -0.5065(3)
H17B H -0.2577 0.3741 -0.4975
H18B H -0.1996 0.4529 -0.5452
H19B H -0.3276 0.4616 -0.5383
C15B C -0.3468(4) 0.5304(3) -0.1988(4)
H14B H -0.3745 0.5922 -0.1970
H15B H -0.3109 0.5115 -0.1349
H16B H -0.4092 0.4900 -0.2236
O2B O 0.1612(4) 0.6775(3) 0.0700(3)
C18B C 0.1431(7) 0.7259(5) -0.0183(5)
H23B H 0.0842 0.6951 -0.0647
H24B H 0.2124 0.7248 -0.0431
C19B C 0.1085(8) 0.8239(4) -0.0077(6)
H25B H 0.1688 0.8558 0.0346
H26B H 0.0413 0.8253 0.0188
H27B H 0.0931 0.8531 -0.0697
C20B C 0.2593(6) 0.7071(4) 0.1384(4)
H28B H 0.2688 0.6676 0.1946
H29B H 0.2460 0.7690 0.1589
C21B C 0.3643(7) 0.7065(4) 0.1029(6)
H30B H 0.3707 0.6493 0.0706
H31B H 0.4278 0.7132 0.1561
H32B H 0.3637 0.7564 0.0587
Ca1 Ca 0.00349(8) 0.41257(5) 0.91533(6)
N1 N 0.1389(3) 0.3683(2) 0.8369(2)
O1 O 0.0615(3) 0.44563(18) 1.07125(19)
Si1 Si 0.08626(9) 0.30702(6) 0.73901(7)
Si2 Si 0.28098(15) 0.39089(11) 0.87687(11)
C1 C 0.3609(5) 0.4006(5) 0.7794(4)
H1 H 0.4383 0.4172 0.8063
H2 H 0.3594 0.3426 0.7468
H3 H 0.3267 0.4469 0.7344
C2 C 0.3581(5) 0.3057(5) 0.9613(4)
H4 H 0.3582 0.2477 0.9290
H5 H 0.4350 0.3259 0.9841
H6 H 0.3214 0.2989 1.0148
C3 C 0.2847(7) 0.5094(4) 0.9353(5)
H7 H 0.2382 0.5089 0.9827
H8 H 0.3615 0.5243 0.9658
H9 H 0.2563 0.5545 0.8869
C7 C 0.1225(4) 0.3923(3) 1.1379(3)
C8 C 0.1506(4) 0.3078(3) 1.1219(4)
H10 H 0.1275 0.2821 1.0609
H11 H 0.1938 0.2733 1.1716
C9 C 0.1572(3) 0.4344(2) 1.2342(3)
C10 C 0.2628(3) 0.4733(2) 1.2623(3)
C11 C 0.2915(4) 0.5142(2) 1.3495(3)
H12 H 0.3622 0.5424 1.3671
C12 C 0.2200(4) 0.5154(2) 1.4123(3)
C13 C 0.1169(3) 0.4742(2) 1.3845(3)
H13 H 0.0679 0.4729 1.4272
C14 C 0.0828(3) 0.4349(2) 1.2961(3)
C15 C 0.3468(4) 0.4696(3) 1.1988(4)
H14 H 0.3745 0.4078 1.1970
H15 H 0.3109 0.4885 1.1349
H16 H 0.4092 0.5100 1.2236
C16 C 0.2542(4) 0.5606(3) 1.5065(3)
H17 H 0.2577 0.6259 1.4975
H18 H 0.1996 0.5471 1.5452
H19 H 0.3276 0.5384 1.5383
C17 C -0.0314(4) 0.3933(3) 1.2686(3)
H20 H -0.0846 0.4388 1.2378
H21 H -0.0294 0.3433 1.2249
H22 H -0.0545 0.3709 1.3252
O2 O -0.1612(4) 0.3225(3) 0.9300(3)
C18 C -0.1431(7) 0.2741(5) 1.0183(5)
H23 H -0.0842 0.3049 1.0647
H24 H -0.2124 0.2752 1.0431
C19 C -0.1085(8) 0.1761(4) 1.0077(6)
H25 H -0.1688 0.1442 0.9654
H26 H -0.0413 0.1747 0.9812
H27 H -0.0931 0.1469 1.0697
C20 C -0.2593(6) 0.2929(4) 0.8616(4)
H28 H -0.2688 0.3324 0.8054
H29 H -0.2460 0.2310 0.8411
C21 C -0.3643(7) 0.2935(4) 0.8971(6)
H30 H -0.3707 0.3507 0.9294
H31 H -0.4278 0.2868 0.8439
H32 H -0.3637 0.2436 0.9413
C26 C -0.0679(3) 0.2969(3) 0.7278(3)
H33 H -0.1002 0.3569 0.7305
H34 H -0.1008 0.2684 0.6673
H35 H -0.0835 0.2599 0.7796
C27 C 0.1413(4) 0.1892(3) 0.7422(3)
H36 H 0.1245 0.1575 0.7969
H37 H 0.1060 0.1576 0.6843
H38 H 0.2221 0.1908 0.7471
C28 C 0.1054(4) 0.3571(3) 0.6242(3)
H39 H 0.1818 0.3464 0.6167
H40 H 0.0530 0.3290 0.5718
H41 H 0.0914 0.4221 0.6244
Ca1B Ca -0.00349(8) 0.58743(5) 1.08467(6)
N1B N -0.1389(3) 0.6317(2) 1.1631(2)
Si1B Si -0.08626(9) 0.69298(6) 1.26099(7)
C26B C 0.0679(3) 0.7031(3) 1.2722(3)
H33B H 0.1002 0.6431 1.2695
H34B H 0.1008 0.7316 1.3327
H35B H 0.0835 0.7401 1.2204
C27B C -0.1413(4) 0.8108(3) 1.2578(3)
H36B H -0.1245 0.8425 1.2031
H37B H -0.1060 0.8424 1.3157
H38B H -0.2221 0.8092 1.2529
C28B C -0.1054(4) 0.6429(3) 1.3758(3)
H39B H -0.1818 0.6536 1.3833
H40B H -0.0530 0.6710 1.4282
H41B H -0.0914 0.5779 1.3756
Si2B Si -0.28098(15) 0.60911(11) 1.12313(11)
C1B C -0.3609(5) 0.5994(5) 1.2206(4)
H1B H -0.4383 0.5828 1.1937
H2B H -0.3594 0.6574 1.2532
H3B H -0.3267 0.5531 1.2656
C2B C -0.3581(5) 0.6943(5) 1.0387(4)
H4B H -0.3582 0.7523 1.0710
H5B H -0.4350 0.6741 1.0159
H6B H -0.3214 0.7011 0.9852
C3B C -0.2847(7) 0.4906(4) 1.0647(5)
H7B H -0.2382 0.4911 1.0173
H8B H -0.3615 0.4757 1.0342
H9B H -0.2563 0.4455 1.1131
O1B O -0.0615(3) 0.55437(18) 0.92875(19)
C7B C -0.1225(4) 0.6077(3) 0.8621(3)
C8B C -0.1506(4) 0.6922(3) 0.8781(4)
H10B H -0.1275 0.7179 0.9391
H11B H -0.1938 0.7267 0.8284
C9B C -0.1572(3) 0.5656(2) 0.7658(3)
C10B C -0.2628(3) 0.5267(2) 0.7377(3)
C11B C -0.2915(4) 0.4858(2) 0.6505(3)
H12B H -0.3622 0.4576 0.6329
C12B C -0.2200(4) 0.4846(2) 0.5877(3)
C13B C -0.1169(3) 0.5258(2) 0.6155(3)
H13B H -0.0679 0.5271 0.5728
C14B C -0.0828(3) 0.5651(2) 0.7039(3)
C17B C 0.0314(4) 0.6067(3) 0.7314(3)
H20B H 0.0846 0.5612 0.7622
H21B H 0.0294 0.6567 0.7751
H22B H 0.0545 0.6291 0.6748
C16B C -0.2542(4) 0.4394(3) 0.4935(3)
H17B H -0.2577 0.3741 0.5025
H18B H -0.1996 0.4529 0.4548
H19B H -0.3276 0.4616 0.4617
C15B C -0.3468(4) 0.5304(3) 0.8012(4)
H14B H -0.3745 0.5922 0.8030
H15B H -0.3109 0.5115 0.8651
H16B H -0.4092 0.4900 0.7764
O2B O 0.1612(4) 0.6775(3) 1.0700(3)
C18B C 0.1431(7) 0.7259(5) 0.9817(5)
H23B H 0.0842 0.6951 0.9353
H24B H 0.2124 0.7248 0.9569
C19B C 0.1085(8) 0.8239(4) 0.9923(6)
H25B H 0.1688 0.8558 1.0346
H26B H 0.0413 0.8253 1.0188
H27B H 0.0931 0.8531 0.9303
C20B C 0.2593(6) 0.7071(4) 1.1384(4)
H28B H 0.2688 0.6676 1.1946
H29B H 0.2460 0.7690 1.1589
C21B C 0.3643(7) 0.7065(4) 1.1029(6)
H30B H 0.3707 0.6493 1.0706
H31B H 0.4278 0.7132 1.1561
H32B H 0.3637 0.7564 1.0587
Ca1 Ca 1.00349(8) 0.41257(5) -0.08467(6)
N1 N 1.1389(3) 0.3683(2) -0.1631(2)
O1 O 1.0615(3) 0.44563(18) 0.07125(19)
Si1 Si 1.08626(9) 0.30702(6) -0.26099(7)
Si2 Si 1.28098(15) 0.39089(11) -0.12313(11)
C1 C 1.3609(5) 0.4006(5) -0.2206(4)
H1 H 1.4383 0.4172 -0.1937
H2 H 1.3594 0.3426 -0.2532
H3 H 1.3267 0.4469 -0.2656
C2 C 1.3581(5) 0.3057(5) -0.0387(4)
H4 H 1.3582 0.2477 -0.0710
H5 H 1.4350 0.3259 -0.0159
H6 H 1.3214 0.2989 0.0148
C3 C 1.2847(7) 0.5094(4) -0.0647(5)
H7 H 1.2382 0.5089 -0.0173
H8 H 1.3615 0.5243 -0.0342
H9 H 1.2563 0.5545 -0.1131
C7 C 1.1225(4) 0.3923(3) 0.1379(3)
C8 C 1.1506(4) 0.3078(3) 0.1219(4)
H10 H 1.1275 0.2821 0.0609
H11 H 1.1938 0.2733 0.1716
C9 C 1.1572(3) 0.4344(2) 0.2342(3)
C10 C 1.2628(3) 0.4733(2) 0.2623(3)
C11 C 1.2915(4) 0.5142(2) 0.3495(3)
H12 H 1.3622 0.5424 0.3671
C12 C 1.2200(4) 0.5154(2) 0.4123(3)
C13 C 1.1169(3) 0.4742(2) 0.3845(3)
H13 H 1.0679 0.4729 0.4272
C14 C 1.0828(3) 0.4349(2) 0.2961(3)
C15 C 1.3468(4) 0.4696(3) 0.1988(4)
H14 H 1.3745 0.4078 0.1970
H15 H 1.3109 0.4885 0.1349
H16 H 1.4092 0.5100 0.2236
C16 C 1.2542(4) 0.5606(3) 0.5065(3)
H17 H 1.2577 0.6259 0.4975
H18 H 1.1996 0.5471 0.5452
H19 H 1.3276 0.5384 0.5383
C17 C 0.9686(4) 0.3933(3) 0.2686(3)
H20 H 0.9154 0.4388 0.2378
H21 H 0.9706 0.3433 0.2249
H22 H 0.9455 0.3709 0.3252
O2 O 0.8388(4) 0.3225(3) -0.0700(3)
C18 C 0.8569(7) 0.2741(5) 0.0183(5)
H23 H 0.9158 0.3049 0.0647
H24 H 0.7876 0.2752 0.0431
C19 C 0.8915(8) 0.1761(4) 0.0077(6)
H25 H 0.8312 0.1442 -0.0346
H26 H 0.9587 0.1747 -0.0188
H27 H 0.9069 0.1469 0.0697
C20 C 0.7407(6) 0.2929(4) -0.1384(4)
H28 H 0.7312 0.3324 -0.1946
H29 H 0.7540 0.2310 -0.1589
C21 C 0.6357(7) 0.2935(4) -0.1029(6)
H30 H 0.6293 0.3507 -0.0706
H31 H 0.5722 0.2868 -0.1561
H32 H 0.6363 0.2436 -0.0587
C26 C 0.9321(3) 0.2969(3) -0.2722(3)
H33 H 0.8998 0.3569 -0.2695
H34 H 0.8992 0.2684 -0.3327
H35 H 0.9165 0.2599 -0.2204
C27 C 1.1413(4) 0.1892(3) -0.2578(3)
H36 H 1.1245 0.1575 -0.2031
H37 H 1.1060 0.1576 -0.3157
H38 H 1.2221 0.1908 -0.2529
C28 C 1.1054(4) 0.3571(3) -0.3758(3)
H39 H 1.1818 0.3464 -0.3833
H40 H 1.0530 0.3290 -0.4282
H41 H 1.0914 0.4221 -0.3756
Ca1B Ca 0.99651(8) 0.58743(5) 0.08467(6)
N1B N 0.8611(3) 0.6317(2) 0.1631(2)
Si1B Si 0.91374(9) 0.69298(6) 0.26099(7)
C26B C 1.0679(3) 0.7031(3) 0.2722(3)
H33B H 1.1002 0.6431 0.2695
H34B H 1.1008 0.7316 0.3327
H35B H 1.0835 0.7401 0.2204
C27B C 0.8587(4) 0.8108(3) 0.2578(3)
H36B H 0.8755 0.8425 0.2031
H37B H 0.8940 0.8424 0.3157
H38B H 0.7779 0.8092 0.2529
C28B C 0.8946(4) 0.6429(3) 0.3758(3)
H39B H 0.8182 0.6536 0.3833
H40B H 0.9470 0.6710 0.4282
H41B H 0.9086 0.5779 0.3756
Si2B Si 0.71902(15) 0.60911(11) 0.12313(11)
C1B C 0.6391(5) 0.5994(5) 0.2206(4)
H1B H 0.5617 0.5828 0.1937
H2B H 0.6406 0.6574 0.2532
H3B H 0.6733 0.5531 0.2656
C2B C 0.6419(5) 0.6943(5) 0.0387(4)
H4B H 0.6418 0.7523 0.0710
H5B H 0.5650 0.6741 0.0159
H6B H 0.6786 0.7011 -0.0148
C3B C 0.7153(7) 0.4906(4) 0.0647(5)
H7B H 0.7618 0.4911 0.0173
H8B H 0.6385 0.4757 0.0342
H9B H 0.7437 0.4455 0.1131
O1B O 0.9385(3) 0.55437(18) -0.07125(19)
C7B C 0.8775(4) 0.6077(3) -0.1379(3)
C8B C 0.8494(4) 0.6922(3) -0.1219(4)
H10B H 0.8725 0.7179 -0.0609
H11B H 0.8062 0.7267 -0.1716
C9B C 0.8428(3) 0.5656(2) -0.2342(3)
C10B C 0.7372(3) 0.5267(2) -0.2623(3)
C11B C 0.7085(4) 0.4858(2) -0.3495(3)
H12B H 0.6378 0.4576 -0.3671
C12B C 0.7800(4) 0.4846(2) -0.4123(3)
C13B C 0.8831(3) 0.5258(2) -0.3845(3)
H13B H 0.9321 0.5271 -0.4272
C14B C 0.9172(3) 0.5651(2) -0.2961(3)
C17B C 1.0314(4) 0.6067(3) -0.2686(3)
H20B H 1.0846 0.5612 -0.2378
H21B H 1.0294 0.6567 -0.2249
H22B H 1.0545 0.6291 -0.3252
C16B C 0.7458(4) 0.4394(3) -0.5065(3)
H17B H 0.7423 0.3741 -0.4975
H18B H 0.8004 0.4529 -0.5452
H19B H 0.6724 0.4616 -0.5383
C15B C 0.6532(4) 0.5304(3) -0.1988(4)
H14B H 0.6255 0.5922 -0.1970
H15B H 0.6891 0.5115 -0.1349
H16B H 0.5908 0.4900 -0.2236
O2B O 1.1612(4) 0.6775(3) 0.0700(3)
C18B C 1.1431(7) 0.7259(5) -0.0183(5)
H23B H 1.0842 0.6951 -0.0647
H24B H 1.2124 0.7248 -0.0431
C19B C 1.1085(8) 0.8239(4) -0.0077(6)
H25B H 1.1688 0.8558 0.0346
H26B H 1.0413 0.8253 0.0188
H27B H 1.0931 0.8531 -0.0697
C20B C 1.2593(6) 0.7071(4) 0.1384(4)
H28B H 1.2688 0.6676 0.1946
H29B H 1.2460 0.7690 0.1589
C21B C 1.3643(7) 0.7065(4) 0.1029(6)
H30B H 1.3707 0.6493 0.0706
H31B H 1.4278 0.7132 0.1561
H32B H 1.3637 0.7564 0.0587
Ca1 Ca 1.00349(8) 0.41257(5) 0.91533(6)
N1 N 1.1389(3) 0.3683(2) 0.8369(2)
O1 O 1.0615(3) 0.44563(18) 1.07125(19)
Si1 Si 1.08626(9) 0.30702(6) 0.73901(7)
Si2 Si 1.28098(15) 0.39089(11) 0.87687(11)
C1 C 1.3609(5) 0.4006(5) 0.7794(4)
H1 H 1.4383 0.4172 0.8063
H2 H 1.3594 0.3426 0.7468
H3 H 1.3267 0.4469 0.7344
C2 C 1.3581(5) 0.3057(5) 0.9613(4)
H4 H 1.3582 0.2477 0.9290
H5 H 1.4350 0.3259 0.9841
H6 H 1.3214 0.2989 1.0148
C3 C 1.2847(7) 0.5094(4) 0.9353(5)
H7 H 1.2382 0.5089 0.9827
H8 H 1.3615 0.5243 0.9658
H9 H 1.2563 0.5545 0.8869
C7 C 1.1225(4) 0.3923(3) 1.1379(3)
C8 C 1.1506(4) 0.3078(3) 1.1219(4)
H10 H 1.1275 0.2821 1.0609
H11 H 1.1938 0.2733 1.1716
C9 C 1.1572(3) 0.4344(2) 1.2342(3)
C10 C 1.2628(3) 0.4733(2) 1.2623(3)
C11 C 1.2915(4) 0.5142(2) 1.3495(3)
H12 H 1.3622 0.5424 1.3671
C12 C 1.2200(4) 0.5154(2) 1.4123(3)
C13 C 1.1169(3) 0.4742(2) 1.3845(3)
H13 H 1.0679 0.4729 1.4272
C14 C 1.0828(3) 0.4349(2) 1.2961(3)
C15 C 1.3468(4) 0.4696(3) 1.1988(4)
H14 H 1.3745 0.4078 1.1970
H15 H 1.3109 0.4885 1.1349
H16 H 1.4092 0.5100 1.2236
C16 C 1.2542(4) 0.5606(3) 1.5065(3)
H17 H 1.2577 0.6259 1.4975
H18 H 1.1996 0.5471 1.5452
H19 H 1.3276 0.5384 1.5383
C17 C 0.9686(4) 0.3933(3) 1.2686(3)
H20 H 0.9154 0.4388 1.2378
H21 H 0.9706 0.3433 1.2249
H22 H 0.9455 0.3709 1.3252
O2 O 0.8388(4) 0.3225(3) 0.9300(3)
C18 C 0.8569(7) 0.2741(5) 1.0183(5)
H23 H 0.9158 0.3049 1.0647
H24 H 0.7876 0.2752 1.0431
C19 C 0.8915(8) 0.1761(4) 1.0077(6)
H25 H 0.8312 0.1442 0.9654
H26 H 0.9587 0.1747 0.9812
H27 H 0.9069 0.1469 1.0697
C20 C 0.7407(6) 0.2929(4) 0.8616(4)
H28 H 0.7312 0.3324 0.8054
H29 H 0.7540 0.2310 0.8411
C21 C 0.6357(7) 0.2935(4) 0.8971(6)
H30 H 0.6293 0.3507 0.9294
H31 H 0.5722 0.2868 0.8439
H32 H 0.6363 0.2436 0.9413
C26 C 0.9321(3) 0.2969(3) 0.7278(3)
H33 H 0.8998 0.3569 0.7305
H34 H 0.8992 0.2684 0.6673
H35 H 0.9165 0.2599 0.7796
C27 C 1.1413(4) 0.1892(3) 0.7422(3)
H36 H 1.1245 0.1575 0.7969
H37 H 1.1060 0.1576 0.6843
H38 H 1.2221 0.1908 0.7471
C28 C 1.1054(4) 0.3571(3) 0.6242(3)
H39 H 1.1818 0.3464 0.6167
H40 H 1.0530 0.3290 0.5718
H41 H 1.0914 0.4221 0.6244
Ca1B Ca 0.99651(8) 0.58743(5) 1.08467(6)
N1B N 0.8611(3) 0.6317(2) 1.1631(2)
Si1B Si 0.91374(9) 0.69298(6) 1.26099(7)
C26B C 1.0679(3) 0.7031(3) 1.2722(3)
H33B H 1.1002 0.6431 1.2695
H34B H 1.1008 0.7316 1.3327
H35B H 1.0835 0.7401 1.2204
C27B C 0.8587(4) 0.8108(3) 1.2578(3)
H36B H 0.8755 0.8425 1.2031
H37B H 0.8940 0.8424 1.3157
H38B H 0.7779 0.8092 1.2529
C28B C 0.8946(4) 0.6429(3) 1.3758(3)
H39B H 0.8182 0.6536 1.3833
H40B H 0.9470 0.6710 1.4282
H41B H 0.9086 0.5779 1.3756
Si2B Si 0.71902(15) 0.60911(11) 1.12313(11)
C1B C 0.6391(5) 0.5994(5) 1.2206(4)
H1B H 0.5617 0.5828 1.1937
H2B H 0.6406 0.6574 1.2532
H3B H 0.6733 0.5531 1.2656
C2B C 0.6419(5) 0.6943(5) 1.0387(4)
H4B H 0.6418 0.7523 1.0710
H5B H 0.5650 0.6741 1.0159
H6B H 0.6786 0.7011 0.9852
C3B C 0.7153(7) 0.4906(4) 1.0647(5)
H7B H 0.7618 0.4911 1.0173
H8B H 0.6385 0.4757 1.0342
H9B H 0.7437 0.4455 1.1131
O1B O 0.9385(3) 0.55437(18) 0.92875(19)
C7B C 0.8775(4) 0.6077(3) 0.8621(3)
C8B C 0.8494(4) 0.6922(3) 0.8781(4)
H10B H 0.8725 0.7179 0.9391
H11B H 0.8062 0.7267 0.8284
C9B C 0.8428(3) 0.5656(2) 0.7658(3)
C10B C 0.7372(3) 0.5267(2) 0.7377(3)
C11B C 0.7085(4) 0.4858(2) 0.6505(3)
H12B H 0.6378 0.4576 0.6329
C12B C 0.7800(4) 0.4846(2) 0.5877(3)
C13B C 0.8831(3) 0.5258(2) 0.6155(3)
H13B H 0.9321 0.5271 0.5728
C14B C 0.9172(3) 0.5651(2) 0.7039(3)
C17B C 1.0314(4) 0.6067(3) 0.7314(3)
H20B H 1.0846 0.5612 0.7622
H21B H 1.0294 0.6567 0.7751
H22B H 1.0545 0.6291 0.6748
C16B C 0.7458(4) 0.4394(3) 0.4935(3)
H17B H 0.7423 0.3741 0.5025
H18B H 0.8004 0.4529 0.4548
H19B H 0.6724 0.4616 0.4617
C15B C 0.6532(4) 0.5304(3) 0.8012(4)
H14B H 0.6255 0.5922 0.8030
H15B H 0.6891 0.5115 0.8651
H16B H 0.5908 0.4900 0.7764
O2B O 1.1612(4) 0.6775(3) 1.0700(3)
C18B C 1.1431(7) 0.7259(5) 0.9817(5)
H23B H 1.0842 0.6951 0.9353
H24B H 1.2124 0.7248 0.9569
C19B C 1.1085(8) 0.8239(4) 0.9923(6)
H25B H 1.1688 0.8558 1.0346
H26B H 1.0413 0.8253 1.0188
H27B H 1.0931 0.8531 0.9303
C20B C 1.2593(6) 0.7071(4) 1.1384(4)
H28B H 1.2688 0.6676 1.1946
H29B H 1.2460 0.7690 1.1589
C21B C 1.3643(7) 0.7065(4) 1.1029(6)
H30B H 1.3707 0.6493 1.0706
H31B H 1.4278 0.7132 1.1561
H32B H 1.3637 0.7564 1.0587
Si3? Si 0.7398(5) 0.0933(4) 0.3540(5)
C4? C 0.823(2) 0.0790(17) 0.258(2)
C5? C 0.8250(17) 0.1730(12) 0.4375(14)
C6? C 0.820(2) 0.0194(18) 0.432(2)
O3? O 0.4157(7) 0.2121(5) 0.4652(5)
C22? C 0.4347(8) 0.3078(7) 0.4552(7)
C23? C 0.4481(12) 0.3573(10) 0.5496(10)
C24? C 0.3124(11) 0.1888(10) 0.4935(10)
C25? C 0.2105(15) 0.2167(10) 0.4254(12)
Si3? Si 0.2398(5) 0.4067(4) 0.8540(5)
C4? C 0.323(2) 0.4210(17) 0.758(2)
C5? C 0.3250(17) 0.3270(12) 0.9375(14)
C6? C 0.320(2) 0.4806(18) 0.932(2)
O3? O -0.0843(7) 0.2879(5) 0.9652(5)
C22? C -0.0653(8) 0.1922(7) 0.9552(7)
C23? C -0.0519(12) 0.1427(10) 1.0496(10)
C24? C -0.1876(11) 0.3112(10) 0.9935(10)
C25? C -0.2895(15) 0.2833(10) 0.9254(12)
Si3? Si 0.2602(5) 0.9067(4) 0.6460(5)
C4? C 0.177(2) 0.9210(17) 0.742(2)
C5? C 0.1750(17) 0.8270(12) 0.5625(14)
C6? C 0.180(2) 0.9806(18) 0.568(2)
O3? O 0.5843(7) 0.7879(5) 0.5348(5)
C22? C 0.5653(8) 0.6922(7) 0.5448(7)
C23? C 0.5519(12) 0.6427(10) 0.4504(10)
C24? C 0.6876(11) 0.8112(10) 0.5065(10)
C25? C 0.7895(15) 0.7833(10) 0.5746(12)
Si3? Si 0.7602(5) 0.5933(4) 0.1460(5)
C4? C 0.677(2) 0.5790(17) 0.242(2)
C5? C 0.6750(17) 0.6730(12) 0.0625(14)
C6? C 0.680(2) 0.5194(18) 0.068(2)
O3? O 1.0843(7) 0.7121(5) 0.0348(5)
C22? C 1.0653(8) 0.8078(7) 0.0448(7)
C23? C 1.0519(12) 0.8573(10) -0.0496(10)
C24? C 1.1876(11) 0.6888(10) 0.0065(10)
C25? C 1.2895(15) 0.7167(10) 0.0746(12)

#END
