
#######################################################################
#
#                 Cambridge Crystallographic Data Centre
#                                CCDC 
#
#######################################################################
#
# If this CIF has been generated from an entry in the Cambridge 
# Structural Database, then it will include bibliographic, chemical, 
# crystal, experimental, refinement or atomic coordinate data resulting 
# from the CCDC's data processing and validation procedures.
#
#######################################################################

data_ABAGIV
_symmetry_cell_setting           monoclinic
_symmetry_space_group_name_H-M   'P 21/n'
_symmetry_Int_Tables_number      14
_space_group_name_Hall           '-P 2yn'
loop_
_symmetry_equiv_pos_site_id
_symmetry_equiv_pos_as_xyz
1 x,y,z
2 1/2-x,1/2+y,1/2-z
3 -x,-y,-z
4 1/2+x,1/2-y,1/2+z
_cell_length_a                   7.4763(18)
_cell_length_b                   25.742(6)
_cell_length_c                   7.6564(19)
_cell_angle_alpha                90
_cell_angle_beta                 110.485(5)
_cell_angle_gamma                90
_cell_volume                     1380.33
loop_
_atom_site_label
_atom_site_type_symbol
_atom_site_fract_x
_atom_site_fract_y
_atom_site_fract_z
O1 O -0.0105(4) 0.25761(8) 0.7851(3)
O2 O -0.0998(3) 0.30826(7) 0.5495(3)
N1 N 0.2485(3) 0.00558(7) 0.5057(3)
N2 N 0.1857(2) 0.05385(7) 0.4420(2)
N3 N -0.0373(3) 0.26679(8) 0.6232(3)
C1 C 0.0995(4) 0.15320(9) 0.3011(3)
H1 H 0.1320 0.1284 0.2290
C2 C 0.0380(4) 0.20121(10) 0.2255(3)
H2 H 0.0275 0.2082 0.1032
C3 C -0.0082(3) 0.23888(9) 0.3293(3)
H3 H -0.0495 0.2716 0.2797
C4 C 0.0086(3) 0.22673(8) 0.5084(3)
C5 C 0.0684(3) 0.17883(8) 0.5874(3)
H4 H 0.0778 0.1722 0.7097
C6 C 0.1147(3) 0.14059(8) 0.4826(3)
C7 C 0.1796(3) 0.08832(8) 0.5615(3)
C8 C 0.3256(3) -0.08197(8) 0.4538(3)
C9 C 0.3307(3) -0.12021(9) 0.3286(4)
H5 H 0.3731 -0.1533 0.3731
C10 C 0.2748(4) -0.11080(11) 0.1401(4)
H6 H 0.2791 -0.1372 0.0588
C11 C 0.2130(4) -0.06233(11) 0.0734(3)
H7 H 0.1747 -0.0558 -0.0539
C12 C 0.2068(3) -0.02331(9) 0.1923(3)
H8 H 0.1665 0.0097 0.1456
C13 C 0.2604(3) -0.03265(8) 0.3823(3)
C14 C 0.3872(4) -0.09290(10) 0.6573(3)
H9 H 0.4376 -0.1275 0.6814
H10 H 0.2796 -0.0898 0.6976
H11 H 0.4840 -0.0685 0.7242
C15 C 0.2345(4) 0.07845(9) 0.7658(3)
H12 H 0.3563 0.0614 0.8110
H13 H 0.1401 0.0567 0.7877
H14 H 0.2422 0.1109 0.8299
H15 H 0.285(4) -0.0027(9) 0.622(4)
O1 O 0.5105(4) 0.75761(8) -0.2851(3)
O2 O 0.5998(3) 0.80826(7) -0.0495(3)
N1 N 0.2515(3) 0.50558(7) -0.0057(3)
N2 N 0.3143(2) 0.55385(7) 0.0580(2)
N3 N 0.5373(3) 0.76679(8) -0.1232(3)
C1 C 0.4005(4) 0.65320(9) 0.1989(3)
H1 H 0.3680 0.6284 0.2710
C2 C 0.4620(4) 0.70121(10) 0.2745(3)
H2 H 0.4725 0.7082 0.3968
C3 C 0.5082(3) 0.73888(9) 0.1707(3)
H3 H 0.5495 0.7716 0.2203
C4 C 0.4914(3) 0.72673(8) -0.0084(3)
C5 C 0.4316(3) 0.67883(8) -0.0874(3)
H4 H 0.4222 0.6722 -0.2097
C6 C 0.3853(3) 0.64059(8) 0.0174(3)
C7 C 0.3204(3) 0.58832(8) -0.0615(3)
C8 C 0.1744(3) 0.41803(8) 0.0462(3)
C9 C 0.1693(3) 0.37979(9) 0.1714(4)
H5 H 0.1269 0.3467 0.1269
C10 C 0.2252(4) 0.38920(11) 0.3599(4)
H6 H 0.2209 0.3628 0.4412
C11 C 0.2870(4) 0.43767(11) 0.4266(3)
H7 H 0.3253 0.4442 0.5539
C12 C 0.2932(3) 0.47669(9) 0.3077(3)
H8 H 0.3335 0.5097 0.3544
C13 C 0.2396(3) 0.46735(8) 0.1177(3)
C14 C 0.1128(4) 0.40710(10) -0.1573(3)
H9 H 0.0624 0.3725 -0.1814
H10 H 0.2204 0.4102 -0.1976
H11 H 0.0160 0.4315 -0.2242
C15 C 0.2655(4) 0.57845(9) -0.2658(3)
H12 H 0.1437 0.5614 -0.3110
H13 H 0.3599 0.5567 -0.2877
H14 H 0.2578 0.6109 -0.3299
H15 H 0.215(4) 0.4973(9) -0.122(4)
O1 O 1.0105(4) 0.74239(8) 0.2149(3)
O2 O 1.0998(3) 0.69174(7) 0.4505(3)
N1 N 0.7515(3) 0.99442(7) 0.4943(3)
N2 N 0.8143(2) 0.94615(7) 0.5580(2)
N3 N 1.0373(3) 0.73321(8) 0.3768(3)
C1 C 0.9005(4) 0.84680(9) 0.6989(3)
H1 H 0.8680 0.8716 0.7710
C2 C 0.9620(4) 0.79879(10) 0.7745(3)
H2 H 0.9725 0.7918 0.8968
C3 C 1.0082(3) 0.76112(9) 0.6707(3)
H3 H 1.0495 0.7284 0.7203
C4 C 0.9914(3) 0.77327(8) 0.4916(3)
C5 C 0.9316(3) 0.82117(8) 0.4126(3)
H4 H 0.9222 0.8278 0.2903
C6 C 0.8853(3) 0.85941(8) 0.5174(3)
C7 C 0.8204(3) 0.91168(8) 0.4385(3)
C8 C 0.6744(3) 1.08197(8) 0.5462(3)
C9 C 0.6693(3) 1.12021(9) 0.6714(4)
H5 H 0.6269 1.1533 0.6269
C10 C 0.7252(4) 1.11080(11) 0.8599(4)
H6 H 0.7209 1.1372 0.9412
C11 C 0.7870(4) 1.06233(11) 0.9266(3)
H7 H 0.8253 1.0558 1.0539
C12 C 0.7932(3) 1.02331(9) 0.8077(3)
H8 H 0.8335 0.9903 0.8544
C13 C 0.7396(3) 1.03265(8) 0.6177(3)
C14 C 0.6128(4) 1.09290(10) 0.3427(3)
H9 H 0.5624 1.1275 0.3186
H10 H 0.7204 1.0898 0.3024
H11 H 0.5160 1.0685 0.2758
C15 C 0.7655(4) 0.92155(9) 0.2342(3)
H12 H 0.6437 0.9386 0.1890
H13 H 0.8599 0.9433 0.2123
H14 H 0.7578 0.8891 0.1701
H15 H 0.715(4) 1.0027(9) 0.378(4)
O1 O 0.4895(4) 0.24239(8) 1.2851(3)
O2 O 0.4002(3) 0.19174(7) 1.0495(3)
N1 N 0.7485(3) 0.49442(7) 1.0057(3)
N2 N 0.6857(2) 0.44615(7) 0.9420(2)
N3 N 0.4627(3) 0.23321(8) 1.1232(3)
C1 C 0.5995(4) 0.34680(9) 0.8011(3)
H1 H 0.6320 0.3716 0.7290
C2 C 0.5380(4) 0.29879(10) 0.7255(3)
H2 H 0.5275 0.2918 0.6032
C3 C 0.4918(3) 0.26112(9) 0.8293(3)
H3 H 0.4505 0.2284 0.7797
C4 C 0.5086(3) 0.27327(8) 1.0084(3)
C5 C 0.5684(3) 0.32117(8) 1.0874(3)
H4 H 0.5778 0.3278 1.2097
C6 C 0.6147(3) 0.35941(8) 0.9826(3)
C7 C 0.6796(3) 0.41168(8) 1.0615(3)
C8 C 0.8256(3) 0.58197(8) 0.9538(3)
C9 C 0.8307(3) 0.62021(9) 0.8286(4)
H5 H 0.8731 0.6533 0.8731
C10 C 0.7748(4) 0.61080(11) 0.6401(4)
H6 H 0.7791 0.6372 0.5588
C11 C 0.7130(4) 0.56233(11) 0.5734(3)
H7 H 0.6747 0.5558 0.4461
C12 C 0.7068(3) 0.52331(9) 0.6923(3)
H8 H 0.6665 0.4903 0.6456
C13 C 0.7604(3) 0.53265(8) 0.8823(3)
C14 C 0.8872(4) 0.59290(10) 1.1573(3)
H9 H 0.9376 0.6275 1.1814
H10 H 0.7796 0.5898 1.1976
H11 H 0.9840 0.5685 1.2242
C15 C 0.7345(4) 0.42155(9) 1.2658(3)
H12 H 0.8563 0.4386 1.3110
H13 H 0.6401 0.4433 1.2877
H14 H 0.7422 0.3891 1.3299
H15 H 0.785(4) 0.5027(9) 1.122(4)

#END
