
#######################################################################
#
#                 Cambridge Crystallographic Data Centre
#                                CCDC 
#
#######################################################################
#
# If this CIF has been generated from an entry in the Cambridge 
# Structural Database, then it will include bibliographic, chemical, 
# crystal, experimental, refinement or atomic coordinate data resulting 
# from the CCDC's data processing and validation procedures.
#
#######################################################################

data_ABAVEG
_symmetry_cell_setting           triclinic
_symmetry_space_group_name_H-M   'P -1'
_symmetry_Int_Tables_number      2
_space_group_name_Hall           '-P 1'
loop_
_symmetry_equiv_pos_site_id
_symmetry_equiv_pos_as_xyz
1 x,y,z
2 -x,-y,-z
_cell_length_a                   5.9763(2)
_cell_length_b                   7.3363(3)
_cell_length_c                   13.4872(5)
_cell_angle_alpha                80.545(2)
_cell_angle_beta                 80.030(2)
_cell_angle_gamma                86.569(2)
_cell_volume                     574.19
loop_
_atom_site_label
_atom_site_type_symbol
_atom_site_fract_x
_atom_site_fract_y
_atom_site_fract_z
O1 O 0.70002(15) 1.41295(11) 0.06809(6)
C1 C 0.71209(18) 1.26003(14) 0.13709(8)
C2 C 0.91033(18) 1.14596(14) 0.12455(8)
O2 O 1.42017(15) 1.18986(12) -0.06468(6)
C3 C 0.93153(19) 0.98738(15) 0.19482(8)
H1 H 1.0652 0.9113 0.1846
C4 C 0.76547(17) 0.93408(14) 0.28000(8)
C5 C 0.57092(18) 1.04580(14) 0.29101(8)
H2 H 0.4534 1.0138 0.3474
C6 C 0.54417(18) 1.20416(14) 0.22102(8)
C7 C 1.08747(19) 1.20153(15) 0.03676(8)
H3 H 1.0610 1.3069 -0.0115
N1 N 1.27631(16) 1.11119(13) 0.02396(7)
C8 C 0.79704(18) 0.75681(15) 0.35417(8)
C9 C 0.7498(2) 0.59145(16) 0.30538(10)
H4 H 0.5933 0.6020 0.2918
H5 H 0.7703 0.4766 0.3520
H6 H 0.8555 0.5901 0.2412
C10 C 1.0406(2) 0.73916(18) 0.37722(10)
H7 H 1.1479 0.7316 0.3141
H8 H 1.0571 0.6271 0.4265
H9 H 1.0724 0.8475 0.4058
C11 C 0.6345(2) 0.75440(18) 0.45554(9)
H10 H 0.6540 0.8655 0.4844
H11 H 0.6681 0.6443 0.5032
H12 H 0.4774 0.7519 0.4439
N2 N 0.33343(16) 1.31313(13) 0.23854(7)
O3 O 0.30755(15) 1.45784(11) 0.17862(7)
O4 O 0.18777(14) 1.25901(12) 0.31142(7)
H13 H 1.527(3) 1.111(2) -0.0640(12)
H14 H 0.577(4) 1.473(3) 0.0870(16)
O1 O 0.29998(15) -0.41295(11) 0.93191(6)
C1 C 0.28791(18) -0.26003(14) 0.86291(8)
C2 C 0.08967(18) -0.14596(14) 0.87545(8)
O2 O -0.42017(15) -0.18986(12) 1.06468(6)
C3 C 0.06847(19) 0.01262(15) 0.80518(8)
H1 H -0.0652 0.0887 0.8154
C4 C 0.23453(17) 0.06592(14) 0.72000(8)
C5 C 0.42908(18) -0.04580(14) 0.70899(8)
H2 H 0.5466 -0.0138 0.6526
C6 C 0.45583(18) -0.20416(14) 0.77898(8)
C7 C -0.08747(19) -0.20153(15) 0.96324(8)
H3 H -0.0610 -0.3069 1.0115
N1 N -0.27631(16) -0.11119(13) 0.97604(7)
C8 C 0.20296(18) 0.24319(15) 0.64583(8)
C9 C 0.2502(2) 0.40855(16) 0.69462(10)
H4 H 0.4067 0.3980 0.7082
H5 H 0.2297 0.5234 0.6480
H6 H 0.1445 0.4099 0.7588
C10 C -0.0406(2) 0.26084(18) 0.62278(10)
H7 H -0.1479 0.2684 0.6859
H8 H -0.0571 0.3729 0.5735
H9 H -0.0724 0.1525 0.5942
C11 C 0.3655(2) 0.24560(18) 0.54446(9)
H10 H 0.3460 0.1345 0.5156
H11 H 0.3319 0.3557 0.4968
H12 H 0.5226 0.2481 0.5561
N2 N 0.66657(16) -0.31313(13) 0.76146(7)
O3 O 0.69245(15) -0.45784(11) 0.82138(7)
O4 O 0.81223(14) -0.25901(12) 0.68858(7)
H13 H -0.527(3) -0.111(2) 1.0640(12)
H14 H 0.423(4) -0.473(3) 0.9130(16)

#END
