
#######################################################################
#
#                 Cambridge Crystallographic Data Centre
#                                CCDC 
#
#######################################################################
#
# If this CIF has been generated from an entry in the Cambridge 
# Structural Database, then it will include bibliographic, chemical, 
# crystal, experimental, refinement or atomic coordinate data resulting 
# from the CCDC's data processing and validation procedures.
#
#######################################################################

data_ABEBUF
_symmetry_cell_setting           orthorhombic
_symmetry_space_group_name_H-M   'P b c a'
_symmetry_Int_Tables_number      61
_space_group_name_Hall           '-P 2ac 2ab'
loop_
_symmetry_equiv_pos_site_id
_symmetry_equiv_pos_as_xyz
1 x,y,z
2 1/2+x,y,1/2-z
3 x,1/2-y,1/2+z
4 1/2-x,1/2+y,z
5 -x,-y,-z
6 1/2-x,-y,1/2+z
7 -x,1/2+y,1/2-z
8 1/2+x,1/2-y,-z
_cell_length_a                   10.72170(10)
_cell_length_b                   10.89980(10)
_cell_length_c                   27.6353(2)
_cell_angle_alpha                90
_cell_angle_beta                 90
_cell_angle_gamma                90
_cell_volume                     3229.58
loop_
_atom_site_label
_atom_site_type_symbol
_atom_site_fract_x
_atom_site_fract_y
_atom_site_fract_z
O1 O 1.17989(8) 0.47410(8) 0.06227(3)
O2 O 1.21788(8) 0.09155(8) 0.17544(3)
N1 N 1.12146(9) 0.41573(9) 0.13702(3)
N2 N 1.13774(9) 0.14494(9) 0.10297(3)
C1 C 1.11519(10) 0.40760(10) 0.08851(4)
C2 C 1.02604(10) 0.31795(11) 0.06649(4)
C3 C 0.93234(12) 0.36158(12) 0.03595(4)
C4 C 0.85335(13) 0.28019(13) 0.01278(5)
C5 C 0.86842(13) 0.15469(13) 0.01906(5)
C6 C 0.96162(13) 0.11047(12) 0.04916(4)
C7 C 1.03936(11) 0.19165(11) 0.07342(4)
C8 C 1.14004(10) 0.14927(10) 0.15179(4)
C9 C 1.04712(10) 0.22829(10) 0.17763(4)
C10 C 0.97231(12) 0.17415(11) 0.21297(4)
C11 C 0.89551(13) 0.24528(13) 0.24190(5)
C12 C 0.89441(13) 0.37212(12) 0.23627(5)
C13 C 0.96706(12) 0.42691(11) 0.20084(4)
C14 C 1.04251(10) 0.35510(10) 0.17107(4)
H1 H 1.1730(15) 0.4747(15) 0.1494(6)
H2 H 1.1899(14) 0.0910(15) 0.0890(5)
H3 H 0.9234(14) 0.4510(15) 0.0314(5)
H4 H 0.7880(16) 0.3122(15) -0.0079(6)
H5 H 0.8154(16) 0.0990(16) 0.0023(6)
H6 H 0.9725(14) 0.0230(15) 0.0549(5)
H7 H 0.9758(13) 0.0860(14) 0.2165(5)
H8 H 0.8435(15) 0.2073(14) 0.2657(6)
H9 H 0.8411(15) 0.4218(14) 0.2568(6)
H10 H 0.9678(13) 0.5158(14) 0.1959(5)
O1 O 0.67989(8) 0.47410(8) 0.43773(3)
O2 O 0.71788(8) 0.09155(8) 0.32456(3)
N1 N 0.62146(9) 0.41573(9) 0.36298(3)
N2 N 0.63774(9) 0.14494(9) 0.39703(3)
C1 C 0.61519(10) 0.40760(10) 0.41149(4)
C2 C 0.52604(10) 0.31795(11) 0.43351(4)
C3 C 0.43234(12) 0.36158(12) 0.46405(4)
C4 C 0.35335(13) 0.28019(13) 0.48722(5)
C5 C 0.36842(13) 0.15469(13) 0.48094(5)
C6 C 0.46162(13) 0.11047(12) 0.45084(4)
C7 C 0.53936(11) 0.19165(11) 0.42658(4)
C8 C 0.64004(10) 0.14927(10) 0.34821(4)
C9 C 0.54712(10) 0.22829(10) 0.32237(4)
C10 C 0.47231(12) 0.17415(11) 0.28703(4)
C11 C 0.39551(13) 0.24528(13) 0.25810(5)
C12 C 0.39441(13) 0.37212(12) 0.26373(5)
C13 C 0.46706(12) 0.42691(11) 0.29916(4)
C14 C 0.54251(10) 0.35510(10) 0.32893(4)
H1 H 0.6730(15) 0.4747(15) 0.3506(6)
H2 H 0.6899(14) 0.0910(15) 0.4110(5)
H3 H 0.4234(14) 0.4510(15) 0.4686(5)
H4 H 0.2880(16) 0.3122(15) 0.5079(6)
H5 H 0.3154(16) 0.0990(16) 0.4977(6)
H6 H 0.4725(14) 0.0230(15) 0.4451(5)
H7 H 0.4758(13) 0.0860(14) 0.2835(5)
H8 H 0.3435(15) 0.2073(14) 0.2343(6)
H9 H 0.3411(15) 0.4218(14) 0.2432(6)
H10 H 0.4678(13) 0.5158(14) 0.3041(5)
O1 O 1.17989(8) 0.02590(8) 0.56227(3)
O2 O 1.21788(8) 0.40845(8) 0.67544(3)
N1 N 1.12146(9) 0.08427(9) 0.63702(3)
N2 N 1.13774(9) 0.35506(9) 0.60297(3)
C1 C 1.11519(10) 0.09240(10) 0.58851(4)
C2 C 1.02604(10) 0.18205(11) 0.56649(4)
C3 C 0.93234(12) 0.13842(12) 0.53595(4)
C4 C 0.85335(13) 0.21981(13) 0.51278(5)
C5 C 0.86842(13) 0.34531(13) 0.51906(5)
C6 C 0.96162(13) 0.38953(12) 0.54916(4)
C7 C 1.03936(11) 0.30835(11) 0.57342(4)
C8 C 1.14004(10) 0.35073(10) 0.65179(4)
C9 C 1.04712(10) 0.27171(10) 0.67763(4)
C10 C 0.97231(12) 0.32585(11) 0.71297(4)
C11 C 0.89551(13) 0.25472(13) 0.74190(5)
C12 C 0.89441(13) 0.12788(12) 0.73627(5)
C13 C 0.96706(12) 0.07309(11) 0.70084(4)
C14 C 1.04251(10) 0.14490(10) 0.67107(4)
H1 H 1.1730(15) 0.0253(15) 0.6494(6)
H2 H 1.1899(14) 0.4090(15) 0.5890(5)
H3 H 0.9234(14) 0.0490(15) 0.5314(5)
H4 H 0.7880(16) 0.1878(15) 0.4921(6)
H5 H 0.8154(16) 0.4010(16) 0.5023(6)
H6 H 0.9725(14) 0.4770(15) 0.5549(5)
H7 H 0.9758(13) 0.4140(14) 0.7165(5)
H8 H 0.8435(15) 0.2927(14) 0.7657(6)
H9 H 0.8411(15) 0.0782(14) 0.7568(6)
H10 H 0.9678(13) -0.0158(14) 0.6959(5)
O1 O 0.32011(8) 0.97410(8) 0.06227(3)
O2 O 0.28212(8) 0.59155(8) 0.17544(3)
N1 N 0.37854(9) 0.91573(9) 0.13702(3)
N2 N 0.36226(9) 0.64494(9) 0.10297(3)
C1 C 0.38481(10) 0.90760(10) 0.08851(4)
C2 C 0.47396(10) 0.81795(11) 0.06649(4)
C3 C 0.56766(12) 0.86158(12) 0.03595(4)
C4 C 0.64665(13) 0.78019(13) 0.01278(5)
C5 C 0.63158(13) 0.65469(13) 0.01906(5)
C6 C 0.53838(13) 0.61047(12) 0.04916(4)
C7 C 0.46064(11) 0.69165(11) 0.07342(4)
C8 C 0.35996(10) 0.64927(10) 0.15179(4)
C9 C 0.45288(10) 0.72829(10) 0.17763(4)
C10 C 0.52769(12) 0.67415(11) 0.21297(4)
C11 C 0.60449(13) 0.74528(13) 0.24190(5)
C12 C 0.60559(13) 0.87212(12) 0.23627(5)
C13 C 0.53294(12) 0.92691(11) 0.20084(4)
C14 C 0.45749(10) 0.85510(10) 0.17107(4)
H1 H 0.3270(15) 0.9747(15) 0.1494(6)
H2 H 0.3101(14) 0.5910(15) 0.0890(5)
H3 H 0.5766(14) 0.9510(15) 0.0314(5)
H4 H 0.7120(16) 0.8122(15) -0.0079(6)
H5 H 0.6846(16) 0.5990(16) 0.0023(6)
H6 H 0.5275(14) 0.5230(15) 0.0549(5)
H7 H 0.5242(13) 0.5860(14) 0.2165(5)
H8 H 0.6565(15) 0.7073(14) 0.2657(6)
H9 H 0.6589(15) 0.9218(14) 0.2568(6)
H10 H 0.5322(13) 1.0158(14) 0.1959(5)
O1 O -0.17989(8) 0.52590(8) 0.93773(3)
O2 O -0.21788(8) 0.90845(8) 0.82456(3)
N1 N -0.12146(9) 0.58427(9) 0.86298(3)
N2 N -0.13774(9) 0.85506(9) 0.89703(3)
C1 C -0.11519(10) 0.59240(10) 0.91149(4)
C2 C -0.02604(10) 0.68205(11) 0.93351(4)
C3 C 0.06766(12) 0.63842(12) 0.96405(4)
C4 C 0.14665(13) 0.71981(13) 0.98722(5)
C5 C 0.13158(13) 0.84531(13) 0.98094(5)
C6 C 0.03838(13) 0.88953(12) 0.95084(4)
C7 C -0.03936(11) 0.80835(11) 0.92658(4)
C8 C -0.14004(10) 0.85073(10) 0.84821(4)
C9 C -0.04712(10) 0.77171(10) 0.82237(4)
C10 C 0.02769(12) 0.82585(11) 0.78703(4)
C11 C 0.10449(13) 0.75472(13) 0.75810(5)
C12 C 0.10559(13) 0.62788(12) 0.76373(5)
C13 C 0.03294(12) 0.57309(11) 0.79916(4)
C14 C -0.04251(10) 0.64490(10) 0.82893(4)
H1 H -0.1730(15) 0.5253(15) 0.8506(6)
H2 H -0.1899(14) 0.9090(15) 0.9110(5)
H3 H 0.0766(14) 0.5490(15) 0.9686(5)
H4 H 0.2120(16) 0.6878(15) 1.0079(6)
H5 H 0.1846(16) 0.9010(16) 0.9977(6)
H6 H 0.0275(14) 0.9770(15) 0.9451(5)
H7 H 0.0242(13) 0.9140(14) 0.7835(5)
H8 H 0.1565(15) 0.7927(14) 0.7343(6)
H9 H 0.1589(15) 0.5782(14) 0.7432(6)
H10 H 0.0322(13) 0.4842(14) 0.8041(5)
O1 O 0.32011(8) 0.52590(8) 0.56227(3)
O2 O 0.28212(8) 0.90845(8) 0.67544(3)
N1 N 0.37854(9) 0.58427(9) 0.63702(3)
N2 N 0.36226(9) 0.85506(9) 0.60297(3)
C1 C 0.38481(10) 0.59240(10) 0.58851(4)
C2 C 0.47396(10) 0.68205(11) 0.56649(4)
C3 C 0.56766(12) 0.63842(12) 0.53595(4)
C4 C 0.64665(13) 0.71981(13) 0.51278(5)
C5 C 0.63158(13) 0.84531(13) 0.51906(5)
C6 C 0.53838(13) 0.88953(12) 0.54916(4)
C7 C 0.46064(11) 0.80835(11) 0.57342(4)
C8 C 0.35996(10) 0.85073(10) 0.65179(4)
C9 C 0.45288(10) 0.77171(10) 0.67763(4)
C10 C 0.52769(12) 0.82585(11) 0.71297(4)
C11 C 0.60449(13) 0.75472(13) 0.74190(5)
C12 C 0.60559(13) 0.62788(12) 0.73627(5)
C13 C 0.53294(12) 0.57309(11) 0.70084(4)
C14 C 0.45749(10) 0.64490(10) 0.67107(4)
H1 H 0.3270(15) 0.5253(15) 0.6494(6)
H2 H 0.3101(14) 0.9090(15) 0.5890(5)
H3 H 0.5766(14) 0.5490(15) 0.5314(5)
H4 H 0.7120(16) 0.6878(15) 0.4921(6)
H5 H 0.6846(16) 0.9010(16) 0.5023(6)
H6 H 0.5275(14) 0.9770(15) 0.5549(5)
H7 H 0.5242(13) 0.9140(14) 0.7165(5)
H8 H 0.6565(15) 0.7927(14) 0.7657(6)
H9 H 0.6589(15) 0.5782(14) 0.7568(6)
H10 H 0.5322(13) 0.4842(14) 0.6959(5)
O1 O -0.17989(8) 0.97410(8) 0.43773(3)
O2 O -0.21788(8) 0.59155(8) 0.32456(3)
N1 N -0.12146(9) 0.91573(9) 0.36298(3)
N2 N -0.13774(9) 0.64494(9) 0.39703(3)
C1 C -0.11519(10) 0.90760(10) 0.41149(4)
C2 C -0.02604(10) 0.81795(11) 0.43351(4)
C3 C 0.06766(12) 0.86158(12) 0.46405(4)
C4 C 0.14665(13) 0.78019(13) 0.48722(5)
C5 C 0.13158(13) 0.65469(13) 0.48094(5)
C6 C 0.03838(13) 0.61047(12) 0.45084(4)
C7 C -0.03936(11) 0.69165(11) 0.42658(4)
C8 C -0.14004(10) 0.64927(10) 0.34821(4)
C9 C -0.04712(10) 0.72829(10) 0.32237(4)
C10 C 0.02769(12) 0.67415(11) 0.28703(4)
C11 C 0.10449(13) 0.74528(13) 0.25810(5)
C12 C 0.10559(13) 0.87212(12) 0.26373(5)
C13 C 0.03294(12) 0.92691(11) 0.29916(4)
C14 C -0.04251(10) 0.85510(10) 0.32893(4)
H1 H -0.1730(15) 0.9747(15) 0.3506(6)
H2 H -0.1899(14) 0.5910(15) 0.4110(5)
H3 H 0.0766(14) 0.9510(15) 0.4686(5)
H4 H 0.2120(16) 0.8122(15) 0.5079(6)
H5 H 0.1846(16) 0.5990(16) 0.4977(6)
H6 H 0.0275(14) 0.5230(15) 0.4451(5)
H7 H 0.0242(13) 0.5860(14) 0.2835(5)
H8 H 0.1565(15) 0.7073(14) 0.2343(6)
H9 H 0.1589(15) 0.9218(14) 0.2432(6)
H10 H 0.0322(13) 1.0158(14) 0.3041(5)
O1 O 0.67989(8) 0.02590(8) 0.93773(3)
O2 O 0.71788(8) 0.40845(8) 0.82456(3)
N1 N 0.62146(9) 0.08427(9) 0.86298(3)
N2 N 0.63774(9) 0.35506(9) 0.89703(3)
C1 C 0.61519(10) 0.09240(10) 0.91149(4)
C2 C 0.52604(10) 0.18205(11) 0.93351(4)
C3 C 0.43234(12) 0.13842(12) 0.96405(4)
C4 C 0.35335(13) 0.21981(13) 0.98722(5)
C5 C 0.36842(13) 0.34531(13) 0.98094(5)
C6 C 0.46162(13) 0.38953(12) 0.95084(4)
C7 C 0.53936(11) 0.30835(11) 0.92658(4)
C8 C 0.64004(10) 0.35073(10) 0.84821(4)
C9 C 0.54712(10) 0.27171(10) 0.82237(4)
C10 C 0.47231(12) 0.32585(11) 0.78703(4)
C11 C 0.39551(13) 0.25472(13) 0.75810(5)
C12 C 0.39441(13) 0.12788(12) 0.76373(5)
C13 C 0.46706(12) 0.07309(11) 0.79916(4)
C14 C 0.54251(10) 0.14490(10) 0.82893(4)
H1 H 0.6730(15) 0.0253(15) 0.8506(6)
H2 H 0.6899(14) 0.4090(15) 0.9110(5)
H3 H 0.4234(14) 0.0490(15) 0.9686(5)
H4 H 0.2880(16) 0.1878(15) 1.0079(6)
H5 H 0.3154(16) 0.4010(16) 0.9977(6)
H6 H 0.4725(14) 0.4770(15) 0.9451(5)
H7 H 0.4758(13) 0.4140(14) 0.7835(5)
H8 H 0.3435(15) 0.2927(14) 0.7343(6)
H9 H 0.3411(15) 0.0782(14) 0.7432(6)
H10 H 0.4678(13) -0.0158(14) 0.8041(5)
N3 N 0.97192(13) 0.91115(12) 0.14764(5)
C15 C 0.85168(16) 0.88474(16) 0.15009(7)
C16 C 0.80002(16) 0.77799(19) 0.13276(8)
C17 C 0.87626(17) 0.69310(17) 0.11128(7)
C18 C 1.00189(16) 0.71976(15) 0.10774(7)
C19 C 1.04385(15) 0.82808(15) 0.12682(7)
H11 H 0.799(2) 0.949(2) 0.1665(8)
H12 H 0.709(2) 0.765(2) 0.1367(8)
H13 H 0.8439(19) 0.618(2) 0.0971(8)
H14 H 1.0571(19) 0.664(2) 0.0912(7)
H15 H 1.132(2) 0.848(2) 0.1243(7)
N3 N 0.47192(13) 0.91115(12) 0.35236(5)
C15 C 0.35168(16) 0.88474(16) 0.34991(7)
C16 C 0.30002(16) 0.77799(19) 0.36724(8)
C17 C 0.37626(17) 0.69310(17) 0.38872(7)
C18 C 0.50189(16) 0.71976(15) 0.39226(7)
C19 C 0.54385(15) 0.82808(15) 0.37318(7)
H11 H 0.299(2) 0.949(2) 0.3335(8)
H12 H 0.209(2) 0.765(2) 0.3633(8)
H13 H 0.3439(19) 0.618(2) 0.4029(8)
H14 H 0.5571(19) 0.664(2) 0.4088(7)
H15 H 0.632(2) 0.848(2) 0.3757(7)
N3 N 0.97192(13) 0.58885(12) 0.64764(5)
C15 C 0.85168(16) 0.61526(16) 0.65009(7)
C16 C 0.80002(16) 0.72201(19) 0.63276(8)
C17 C 0.87626(17) 0.80690(17) 0.61128(7)
C18 C 1.00189(16) 0.78024(15) 0.60774(7)
C19 C 1.04385(15) 0.67192(15) 0.62682(7)
H11 H 0.799(2) 0.551(2) 0.6665(8)
H12 H 0.709(2) 0.735(2) 0.6367(8)
H13 H 0.8439(19) 0.882(2) 0.5971(8)
H14 H 1.0571(19) 0.836(2) 0.5912(7)
H15 H 1.132(2) 0.652(2) 0.6243(7)
N3 N 0.52808(13) 0.41115(12) 0.14764(5)
C15 C 0.64832(16) 0.38474(16) 0.15009(7)
C16 C 0.69998(16) 0.27799(19) 0.13276(8)
C17 C 0.62374(17) 0.19310(17) 0.11128(7)
C18 C 0.49811(16) 0.21976(15) 0.10774(7)
C19 C 0.45615(15) 0.32808(15) 0.12682(7)
H11 H 0.701(2) 0.449(2) 0.1665(8)
H12 H 0.791(2) 0.265(2) 0.1367(8)
H13 H 0.6561(19) 0.118(2) 0.0971(8)
H14 H 0.4429(19) 0.164(2) 0.0912(7)
H15 H 0.368(2) 0.348(2) 0.1243(7)
N3 N 0.02808(13) 0.08885(12) 0.85236(5)
C15 C 0.14832(16) 0.11526(16) 0.84991(7)
C16 C 0.19998(16) 0.22201(19) 0.86724(8)
C17 C 0.12374(17) 0.30690(17) 0.88872(7)
C18 C -0.00189(16) 0.28024(15) 0.89226(7)
C19 C -0.04385(15) 0.17192(15) 0.87318(7)
H11 H 0.201(2) 0.051(2) 0.8335(8)
H12 H 0.291(2) 0.235(2) 0.8633(8)
H13 H 0.1561(19) 0.382(2) 0.9029(8)
H14 H -0.0571(19) 0.336(2) 0.9088(7)
H15 H -0.132(2) 0.152(2) 0.8757(7)
N3 N 0.52808(13) 0.08885(12) 0.64764(5)
C15 C 0.64832(16) 0.11526(16) 0.65009(7)
C16 C 0.69998(16) 0.22201(19) 0.63276(8)
C17 C 0.62374(17) 0.30690(17) 0.61128(7)
C18 C 0.49811(16) 0.28024(15) 0.60774(7)
C19 C 0.45615(15) 0.17192(15) 0.62682(7)
H11 H 0.701(2) 0.051(2) 0.6665(8)
H12 H 0.791(2) 0.235(2) 0.6367(8)
H13 H 0.6561(19) 0.382(2) 0.5971(8)
H14 H 0.4429(19) 0.336(2) 0.5912(7)
H15 H 0.368(2) 0.152(2) 0.6243(7)
N3 N 0.02808(13) 0.41115(12) 0.35236(5)
C15 C 0.14832(16) 0.38474(16) 0.34991(7)
C16 C 0.19998(16) 0.27799(19) 0.36724(8)
C17 C 0.12374(17) 0.19310(17) 0.38872(7)
C18 C -0.00189(16) 0.21976(15) 0.39226(7)
C19 C -0.04385(15) 0.32808(15) 0.37318(7)
H11 H 0.201(2) 0.449(2) 0.3335(8)
H12 H 0.291(2) 0.265(2) 0.3633(8)
H13 H 0.1561(19) 0.118(2) 0.4029(8)
H14 H -0.0571(19) 0.164(2) 0.4088(7)
H15 H -0.132(2) 0.348(2) 0.3757(7)
N3 N 0.47192(13) 0.58885(12) 0.85236(5)
C15 C 0.35168(16) 0.61526(16) 0.84991(7)
C16 C 0.30002(16) 0.72201(19) 0.86724(8)
C17 C 0.37626(17) 0.80690(17) 0.88872(7)
C18 C 0.50189(16) 0.78024(15) 0.89226(7)
C19 C 0.54385(15) 0.67192(15) 0.87318(7)
H11 H 0.299(2) 0.551(2) 0.8335(8)
H12 H 0.209(2) 0.735(2) 0.8633(8)
H13 H 0.3439(19) 0.882(2) 0.9029(8)
H14 H 0.5571(19) 0.836(2) 0.9088(7)
H15 H 0.632(2) 0.652(2) 0.8757(7)

#END
