./MAQBEM_from_POSCAR.cif_generated_by_CrystalShift
_symmetry_cell_setting triclinic
_symmetry_space_group_name_H-M 'P 1'
loop_
_symmetry_equiv_pos_site_id
_symmetry_equiv_pos_as_xyz
1 x,y,z
_cell_length_a 6.928000
_cell_length_b 11.272000
_cell_length_c 11.678000
_cell_angle_alpha 110.157000
_cell_angle_beta 103.151000
_cell_angle_gamma 94.128000
_cell_volume 822.296252
loop_
_atom_site_label
_atom_site_type_symbol
_atom_site_fract_x
_atom_site_fract_y
_atom_site_fract_z
H1 H 0.429000 0.095000 0.919000
H2 H 0.342000 0.134000 1.008000
H3 H 0.571000 0.905000 0.081000
H4 H 0.658000 0.866000 -0.008000
H5 H 0.804000 0.034000 0.869000
H6 H 0.880000 0.731000 0.496000
H7 H 0.944000 0.612000 0.525000
H8 H 0.456100 0.603000 0.443700
H9 H 0.734000 0.156000 0.865000
H10 H 0.847000 0.224000 0.061000
H11 H 0.207700 0.867400 0.330200
H12 H 0.948000 0.238000 0.198000
H13 H 0.802000 0.410000 0.027000
H14 H 0.695000 0.576000 -0.026000
H15 H 0.317000 0.305000 0.923000
H16 H 0.397800 0.933900 0.701400
H17 H 0.120000 0.269000 0.504000
H18 H 0.056000 0.388000 0.475000
H19 H 0.642000 0.578000 0.716000
H20 H 0.246000 1.191000 0.681000
H21 H 0.196000 0.966000 0.131000
H22 H 0.266000 0.844000 0.135000
H23 H 0.100000 1.001000 0.836000
H24 H -0.056000 0.953000 0.718000
H25 H 0.900000 -0.001000 0.164000
H26 H 0.153000 0.776000 0.939000
H27 H 0.052000 0.762000 0.802000
H28 H 0.543900 0.397000 0.556300
H29 H 1.056000 0.047000 0.282000
H30 H 0.198000 0.590000 0.973000
H31 H 0.792300 0.132600 0.669800
H32 H 0.305000 0.424000 1.026000
H33 H 0.754000 -0.191000 0.319000
H34 H 0.358000 0.422000 0.284000
H35 H 0.683000 0.695000 0.077000
H36 H 0.602200 0.066100 0.298600
C37 C 0.618800 0.118900 0.382500
C38 C 0.558400 0.238200 0.411500
C39 C 0.763800 -0.050200 0.451900
C40 C 0.704600 0.366000 0.772500
C41 C 0.327800 0.720700 0.365000
C42 C 0.414800 0.682600 0.462400
C43 C 0.124700 0.419000 0.649500
C44 C 0.267600 0.840800 0.394900
C45 C 0.296100 0.921000 0.520300
C46 C 0.295400 0.634000 0.227500
C47 C 0.236200 1.050200 0.548100
C48 C 0.123500 0.604900 0.807800
C49 C 0.221500 0.425500 0.852400
C50 C 0.703900 0.079000 0.479700
C51 C 0.732400 0.159200 0.605100
C52 C 0.585200 0.317400 0.537600
C53 C 0.672200 0.279300 0.635000
C54 C 0.441600 0.761800 0.588500
C55 C 0.532100 0.720400 0.694100
C56 C 0.381200 0.881100 0.617500
C57 C 0.778500 0.574500 0.147600
C58 C 0.876500 0.395100 0.192200
C59 C 0.875300 0.581000 0.350500
C60 C 0.467900 0.279600 0.305900
N61 N 0.717800 0.624100 0.062300
N62 N 0.905800 0.647000 0.472800
N63 N 0.910300 0.276700 0.147500
N64 N 0.910800 0.459100 0.316000
N65 N 0.811300 0.642390 0.270990
N66 N 0.089700 0.723300 0.852500
N67 N 0.094200 0.353000 0.527200
N68 N 0.282200 0.375900 0.937700
N69 N 0.193500 0.550100 0.893800
N70 N 0.089200 0.540900 0.684000
N71 N 0.188700 0.357610 0.729010
N72 N 0.806500 0.449900 0.106200
O73 O 1.009400 0.057700 0.211600
O74 O 0.466000 0.222200 0.197680
O75 O 0.388800 0.384300 0.343590
O76 O -0.009400 0.942300 0.788400
O77 O 0.754900 0.318110 0.854240
O78 O 0.835000 -0.089580 0.534910
O79 O 0.276400 0.903000 0.105500
O80 O 0.733700 -0.117710 0.331110
O81 O 0.680400 0.480600 0.798660
O82 O 0.723600 0.097000 0.894500
O83 O 0.534000 0.777800 0.802320
O84 O 0.611200 0.615700 0.656410
O85 O 0.658100 0.882500 0.064400
O86 O 0.245100 0.681890 0.145760
O87 O 0.165000 1.089580 0.465090
O88 O 0.341900 0.117500 0.935600
O89 O 0.266300 1.117710 0.668890
O90 O 0.319600 0.519400 0.201340

#END
