./MAQCIR_from_POSCAR.cif_generated_by_CrystalShift
_symmetry_cell_setting triclinic
_symmetry_space_group_name_H-M 'P 1'
loop_
_symmetry_equiv_pos_site_id
_symmetry_equiv_pos_as_xyz
1 x,y,z
_cell_length_a 6.947000
_cell_length_b 6.246000
_cell_length_c 10.760000
_cell_angle_alpha 90.000000
_cell_angle_beta 104.230000
_cell_angle_gamma 90.000000
_cell_volume 452.561160
loop_
_atom_site_label
_atom_site_type_symbol
_atom_site_fract_x
_atom_site_fract_y
_atom_site_fract_z
H1 H 1.092000 0.868700 1.088000
H2 H 1.092000 0.631300 1.088000
H3 H 1.142000 0.750000 1.212000
H4 H 0.104000 0.750000 0.474000
H5 H 0.121000 0.629000 0.617000
H6 H -0.092000 0.368700 -0.088000
H7 H 0.879000 0.371000 0.383000
H8 H -0.092000 0.131300 -0.088000
H9 H -0.142000 0.250000 -0.212000
H10 H 0.896000 0.250000 0.526000
H11 H 0.879000 0.129000 0.383000
H12 H 0.121000 0.871000 0.617000
C13 C 0.148900 0.250000 -0.146030
C14 C 0.841300 0.250000 0.427700
C15 C 0.623600 0.250000 0.411450
C16 C 1.060300 0.750000 1.135800
C17 C -0.060300 0.250000 -0.135800
C18 C 0.326600 0.250000 -0.044150
C19 C 0.158700 0.750000 0.572300
C20 C 0.851100 0.750000 1.146030
C21 C 0.463900 0.250000 0.298950
C22 C 0.673400 0.750000 1.044150
C23 C 0.376400 0.750000 0.588550
C24 C 0.536100 0.750000 0.701050
N25 N 0.800500 0.750000 1.253900
N26 N 0.706300 0.750000 0.673870
N27 N 0.457000 0.750000 0.492000
N28 N 0.518830 0.750000 0.831900
N29 N 0.683640 0.750000 0.917060
N30 N 0.543000 0.250000 0.508000
N31 N 0.516000 0.750000 1.091390
N32 N 0.484000 0.250000 -0.091390
N33 N 0.199500 0.250000 -0.253900
N34 N 0.481170 0.250000 0.168100
N35 N 0.316360 0.250000 0.082940
N36 N 0.293700 0.250000 0.326130
O37 O 0.593200 0.750000 1.222150
O38 O 0.347640 0.750000 0.848560
O39 O 0.406800 0.250000 -0.222150
O40 O 0.660500 0.750000 0.543060
O41 O 0.339500 0.250000 0.456940
O42 O 0.652360 0.250000 0.151440

#END
