./MAQHUK_from_POSCAR.cif_generated_by_CrystalShift
_symmetry_cell_setting triclinic
_symmetry_space_group_name_H-M 'P 1'
loop_
_symmetry_equiv_pos_site_id
_symmetry_equiv_pos_as_xyz
1 x,y,z
_cell_length_a 9.124500
_cell_length_b 18.508000
_cell_length_c 10.520900
_cell_angle_alpha 90.000000
_cell_angle_beta 115.544000
_cell_angle_gamma 90.000000
_cell_volume 1603.062564
loop_
_atom_site_label
_atom_site_type_symbol
_atom_site_fract_x
_atom_site_fract_y
_atom_site_fract_z
H1 H 0.180200 0.347700 0.628200
H2 H 0.327000 0.445600 0.748200
H3 H 0.058800 0.468100 0.422800
H4 H 0.466100 0.441400 0.991500
H5 H 0.448600 0.341100 1.114600
H6 H 0.293600 0.244300 0.990200
H7 H -0.085000 0.191800 0.215700
H8 H 0.038700 0.240600 0.624500
H9 H -0.301700 0.145000 0.245800
H10 H 0.194800 0.192300 0.688400
H11 H -0.429000 0.212600 0.353100
H12 H 0.318700 0.063400 0.985100
H13 H -0.345700 0.327300 0.423000
H14 H 0.352000 0.133800 0.919100
H15 H 0.427600 0.060200 0.903800
H16 H 0.194100 0.017900 0.781900
H17 H 0.230600 0.086600 0.714500
H18 H -0.065500 0.399000 0.046100
H19 H -0.082200 0.474100 0.107700
H20 H -0.191700 0.409100 0.109000
H21 H -0.191700 0.090900 0.609000
H22 H 0.230600 0.413400 0.214500
H23 H 0.194100 0.482100 0.281900
H24 H -0.082200 0.025900 0.607700
H25 H 0.427600 0.439800 0.403800
H26 H 0.352000 0.366200 0.419100
H27 H 0.318700 0.436600 0.485100
H28 H -0.065500 0.101000 0.546100
H29 H 0.194800 0.307700 0.188400
H30 H 0.038700 0.259400 0.124500
H31 H -0.345700 0.172700 0.923000
H32 H -0.429000 0.287400 0.853100
H33 H 0.293600 0.255700 0.490200
H34 H -0.301700 0.355000 0.745800
H35 H 0.448600 0.158900 0.614600
H36 H -0.085000 0.308200 0.715700
H37 H 0.466100 0.058600 0.491500
H38 H 0.058800 0.031900 0.922800
H39 H 0.327000 0.054400 0.248200
H40 H 0.819800 0.847700 0.871800
H41 H 0.180200 0.152300 0.128200
H42 H 0.673000 0.945600 0.751800
H43 H 0.533900 0.941400 0.508500
H44 H 0.941200 0.968100 0.077200
H45 H 0.551400 0.841100 0.385400
H46 H 0.706400 0.744300 0.509800
H47 H 0.961300 0.740600 0.875500
H48 H 1.085000 0.691800 0.284300
H49 H 0.805200 0.692300 0.811600
H50 H 1.301700 0.645000 0.254200
H51 H 0.681300 0.563400 0.514900
H52 H 1.429000 0.712600 0.146900
H53 H 0.648000 0.633800 0.580900
H54 H 1.345700 0.827300 0.077000
H55 H 0.572400 0.560200 0.596200
H56 H 0.805900 0.517900 0.718100
H57 H 0.769400 0.586600 0.785500
H58 H 1.191700 0.590900 0.891000
H59 H 1.065500 0.899000 0.453900
H60 H 1.082200 0.974100 0.392300
H61 H 1.191700 0.909100 0.391000
H62 H 1.082200 0.525900 0.892300
H63 H 0.769400 0.913400 0.285500
H64 H 0.805900 0.982100 0.218100
H65 H 1.065500 0.601000 0.953900
H66 H 0.572400 0.939800 0.096200
H67 H 0.648000 0.866200 0.080900
H68 H 0.681300 0.936600 0.014900
H69 H 1.345700 0.672700 0.577000
H70 H 0.805200 0.807700 0.311600
H71 H 0.961300 0.759400 0.375500
H72 H 1.429000 0.787400 0.646900
H73 H 1.301700 0.855000 0.754200
H74 H 0.706400 0.755700 0.009800
H75 H 1.085000 0.808200 0.784300
H76 H 0.551400 0.658900 -0.114600
H77 H 0.941200 0.531900 0.577200
H78 H 0.533900 0.558600 0.008500
H79 H 0.819800 0.652300 0.371800
H80 H 0.673000 0.554400 0.251800
C81 C 0.766900 0.653600 0.273900
C82 C 0.678500 0.595500 0.203100
C83 C 0.321500 0.404500 0.796900
C84 C 0.403700 0.402000 0.943000
C85 C 0.596300 0.598000 0.057000
C86 C -0.083800 0.289100 0.298400
C87 C 1.083800 0.710900 0.701600
C88 C 1.136800 0.779900 0.742900
C89 C 0.605800 0.657500 -0.016900
C90 C 1.266300 0.808300 0.724000
C91 C 0.698100 0.714900 0.058000
C92 C 1.343100 0.767900 0.660800
C93 C 0.779600 0.713600 0.204800
C94 C 1.293100 0.700000 0.619200
C95 C 0.875800 0.776800 0.288000
C96 C 1.163700 0.669600 0.638100
C97 C 1.106200 0.597600 0.585300
C98 C 0.950100 0.601200 0.728900
C99 C 1.086200 0.577300 0.882000
C100 C 0.665400 0.917400 0.092700
C101 C 0.792400 0.930100 0.208600
C102 C 1.086200 0.922700 0.382000
C103 C 0.792400 0.569900 0.708600
C104 C 0.950100 0.898800 0.228900
C105 C 1.106200 0.902400 0.085300
C106 C 0.665400 0.582600 0.592700
C107 C 1.163700 0.830400 0.138100
C108 C 1.293100 0.800000 0.119200
C109 C 1.343100 0.732100 0.160800
C110 C 0.875800 0.723200 0.788000
C111 C 1.266300 0.691700 0.224000
C112 C 1.136800 0.720100 0.242900
C113 C 0.779600 0.786400 0.704800
C114 C 0.698100 0.785100 0.558000
C115 C 1.083800 0.789100 0.201600
C116 C 0.605800 0.842500 0.483100
C117 C 0.394200 0.342500 1.016900
C118 C 0.596300 0.902000 0.557000
C119 C -0.136800 0.220100 0.257100
C120 C 0.678500 0.904500 0.703100
C121 C 0.301900 0.285100 0.942000
C122 C 0.766900 0.846400 0.773900
C123 C 0.233100 0.153600 0.226100
C124 C 0.220400 0.286400 0.795200
C125 C -0.266300 0.191700 0.276000
C126 C 0.321500 0.095500 0.296900
C127 C -0.343100 0.232100 0.339200
C128 C -0.083800 0.210900 0.798400
C129 C -0.136800 0.279900 0.757100
C130 C 0.403700 0.098000 0.443000
C131 C -0.266300 0.308300 0.776000
C132 C 0.394200 0.157500 0.516900
C133 C -0.343100 0.267900 0.839200
C134 C 0.301900 0.214900 0.442000
C135 C -0.293100 0.200000 0.880800
C136 C 0.220400 0.213600 0.295200
C137 C -0.163700 0.169600 0.861900
C138 C -0.106200 0.097600 0.914700
C139 C 0.049900 0.101200 0.771100
C140 C -0.086200 0.077300 0.618000
C141 C 0.124200 0.276800 0.212000
C142 C 0.334600 0.417400 0.407300
C143 C 0.207600 0.430100 0.291400
C144 C 0.207600 0.069900 0.791400
C145 C -0.086200 0.422700 0.118000
C146 C 0.049900 0.398800 0.271100
C147 C 0.334600 0.082600 0.907300
C148 C -0.106200 0.402400 0.414700
C149 C -0.163700 0.330400 0.361900
C150 C -0.293100 0.300000 0.380800
C151 C 0.124200 0.223200 0.712000
C152 C 0.233100 0.346400 0.726100
N153 N 0.007700 0.070000 0.879400
N154 N 0.007700 0.430000 0.379400
N155 N 0.050400 0.320200 0.287400
N156 N 0.992300 0.930000 0.120600
N157 N 0.949600 0.820200 0.212600
N158 N 0.949600 0.679800 0.712600
N159 N 0.992300 0.570000 0.620600
N160 N 0.050400 0.179800 0.787400
O161 O -0.151400 0.063530 0.993600
O162 O 1.151400 0.563530 0.506400
O163 O 1.151400 0.936470 0.006400
O164 O -0.151400 0.436470 0.493600

#END
