./MAQMOJ_from_POSCAR.cif_generated_by_CrystalShift
_symmetry_cell_setting triclinic
_symmetry_space_group_name_H-M 'P 1'
loop_
_symmetry_equiv_pos_site_id
_symmetry_equiv_pos_as_xyz
1 x,y,z
_cell_length_a 15.177900
_cell_length_b 8.269900
_cell_length_c 27.967100
_cell_angle_alpha 90.000000
_cell_angle_beta 90.000000
_cell_angle_gamma 90.000000
_cell_volume 3510.422427
loop_
_atom_site_label
_atom_site_type_symbol
_atom_site_fract_x
_atom_site_fract_y
_atom_site_fract_z
H1 H 0.652200 1.233800 -0.020800
H2 H 0.652200 0.266200 0.479200
H3 H 0.645600 0.074300 0.485800
H4 H 0.678900 0.185000 0.529100
H5 H 0.678900 1.315000 0.029100
H6 H 0.334300 0.194300 0.619800
H7 H 0.294100 0.069900 0.581800
H8 H 0.276700 0.259700 0.576000
H9 H 0.694800 0.072200 0.780700
H10 H 0.727800 -0.050200 0.821300
H11 H 0.751300 -0.083900 0.766400
H12 H 0.359100 0.465400 0.602200
H13 H 1.097700 0.251100 0.796100
H14 H 1.068800 0.292800 0.849700
H15 H 1.051700 0.420700 0.807800
H16 H 0.641400 0.463700 0.534800
H17 H 0.762400 0.104400 0.706200
H18 H 1.034900 0.361300 0.727600
H19 H 0.475800 0.970100 0.644400
H20 H 0.846800 0.260100 0.551300
H21 H 0.607600 0.987800 0.599500
H22 H 0.530400 0.931200 0.564100
H23 H 0.969600 0.431200 0.564100
H24 H 0.653200 0.760100 0.551300
H25 H 0.892400 0.487800 0.599500
H26 H 1.024200 0.470100 0.644400
H27 H 0.858600 -0.036300 0.534800
H28 H 1.140900 -0.034600 0.602200
H29 H 0.465100 0.861300 0.727600
H30 H 1.223300 -0.240300 0.576000
H31 H 1.205900 -0.430100 0.581800
H32 H 1.165700 -0.305700 0.619800
H33 H 0.737600 0.604400 0.706200
H34 H 0.821100 -0.315000 0.529100
H35 H 0.448300 0.920700 0.807800
H36 H 0.431200 0.792800 0.849700
H37 H 0.402300 0.751100 0.796100
H38 H 0.854400 -0.425700 0.485800
H39 H 0.748700 0.416100 0.766400
H40 H 0.772200 0.449800 0.821300
H41 H 0.805200 0.572200 0.780700
H42 H 0.805200 0.927800 0.280700
H43 H 0.772200 1.050200 0.321300
H44 H 0.748700 1.083900 0.266400
H45 H 0.847800 -0.233800 0.479200
H46 H 0.402300 0.748900 0.296100
H47 H 0.431200 0.707200 0.349700
H48 H 0.334300 1.305700 0.119800
H49 H 0.847800 0.733800 -0.020800
H50 H 0.854400 0.925700 -0.014200
H51 H 0.821100 0.815000 0.029100
H52 H 0.294100 1.430100 0.081800
H53 H 1.165700 0.805700 0.119800
H54 H 1.205900 0.930100 0.081800
H55 H 1.223300 0.740300 0.076000
H56 H 0.276700 1.240300 0.076000
H57 H 0.305200 0.572200 0.719300
H58 H 0.272200 0.449800 0.678700
H59 H 1.140900 0.534600 0.102200
H60 H 0.248700 0.416100 0.733600
H61 H -0.097700 0.751100 0.703900
H62 H -0.068800 0.792800 0.650300
H63 H 0.858600 0.536300 0.034800
H64 H -0.051700 0.920700 0.692200
H65 H 0.237600 0.604400 0.793800
H66 H 1.024200 0.029900 0.144400
H67 H -0.034900 0.861300 0.772400
H68 H 0.892400 0.012200 0.099500
H69 H 0.969600 0.068800 0.064100
H70 H 0.153200 0.760100 0.948700
H71 H 0.846800 0.239900 0.051300
H72 H 0.030400 0.931200 0.935900
H73 H 0.107600 0.987800 0.900500
H74 H -0.024200 0.970100 0.855600
H75 H 0.141400 0.463700 0.965200
H76 H 1.034900 0.138700 0.227600
H77 H -0.140900 0.465400 0.897800
H78 H -0.223300 0.259700 0.924000
H79 H -0.205900 0.069900 0.918200
H80 H 0.762400 0.395600 0.206200
H81 H -0.165700 0.194300 0.880200
H82 H 1.051700 0.079300 0.307800
H83 H 1.068800 0.207200 0.349700
H84 H 1.097700 0.248900 0.296100
H85 H 0.178900 0.185000 0.970900
H86 H 0.751300 0.583900 0.266400
H87 H 0.727800 0.550200 0.321300
H88 H 0.694800 0.427800 0.280700
H89 H 0.448300 0.579300 0.307800
H90 H 0.145600 0.074300 1.014200
H91 H 0.737600 0.895600 0.206200
H92 H 0.152200 0.266200 1.020800
H93 H 0.359100 1.034600 0.102200
H94 H 0.641400 1.036300 0.034800
H95 H 0.194800 0.427800 0.219300
H96 H 0.152200 1.233800 0.520800
H97 H 0.145600 1.425700 0.514200
H98 H 0.178900 1.315000 0.470900
H99 H 0.227800 0.550200 0.178700
H100 H -0.165700 1.305700 0.380200
H101 H -0.205900 1.430100 0.418200
H102 H -0.223300 1.240300 0.424000
H103 H 0.251300 0.583900 0.233600
H104 H 0.597700 0.248900 0.203900
H105 H 0.568800 0.207200 0.150300
H106 H -0.140900 1.034600 0.397800
H107 H 0.551700 0.079300 0.192200
H108 H 0.262400 0.395600 0.293800
H109 H 0.534900 0.138700 0.272400
H110 H 0.141400 1.036300 0.465200
H111 H 0.346800 0.239900 0.448700
H112 H 0.469600 0.068800 0.435900
H113 H -0.024200 0.529900 0.355600
H114 H 0.392400 0.012200 0.400500
H115 H 0.107600 0.512200 0.400500
H116 H 0.030400 0.568800 0.435900
H117 H 0.524200 0.029900 0.355600
H118 H 0.153200 0.739900 0.448700
H119 H 0.358600 0.536300 0.465200
H120 H 0.640900 0.534600 0.397800
H121 H 0.723300 0.740300 0.424000
H122 H 0.705900 0.930100 0.418200
H123 H -0.034900 0.638700 0.272400
H124 H 0.665700 0.805700 0.380200
H125 H 0.321100 0.815000 0.470900
H126 H 0.354400 0.925700 0.514200
H127 H 0.237600 0.895600 0.293800
H128 H 0.347800 0.733800 0.520800
H129 H -0.051700 0.579300 0.192200
H130 H -0.068800 0.707200 0.150300
H131 H -0.097700 0.748900 0.203900
H132 H 0.475800 0.529900 0.144400
H133 H 0.248700 1.083900 0.233600
H134 H 0.272200 1.050200 0.178700
H135 H 0.305200 0.927800 0.219300
H136 H 0.465100 0.638700 0.227600
H137 H 0.607600 0.512200 0.099500
H138 H 0.530400 0.568800 0.064100
H139 H 0.194800 0.072200 0.719300
H140 H 0.227800 -0.050200 0.678700
H141 H 0.653200 0.739900 0.051300
H142 H 0.251300 -0.083900 0.733600
H143 H 0.347800 -0.233800 1.020800
H144 H 0.354400 -0.425700 1.014200
H145 H 0.321100 -0.315000 0.970900
H146 H 0.597700 0.251100 0.703900
H147 H 0.665700 -0.305700 0.880200
H148 H 0.705900 -0.430100 0.918200
H149 H 0.723300 -0.240300 0.924000
H150 H 0.568800 0.292800 0.650300
H151 H 0.551700 0.420700 0.692200
H152 H 0.262400 0.104400 0.793800
H153 H 0.640900 -0.034600 0.897800
H154 H 0.534900 0.361300 0.772400
H155 H 0.346800 0.260100 0.948700
H156 H 0.645600 1.425700 -0.014200
H157 H 0.358600 -0.036300 0.965200
H158 H 0.469600 0.431200 0.935900
H159 H 0.392400 0.487800 0.900500
H160 H 0.524200 0.470100 0.855600
C161 C 0.433920 0.398970 0.907900
C162 C 0.493880 0.367630 0.865040
C163 C 0.561940 0.240300 0.878510
C164 C 0.415920 -0.035240 0.951600
C165 C 0.444360 0.100830 0.926080
C166 C 0.442550 0.300720 0.822790
C167 C 0.361620 0.223840 0.828840
C168 C 0.322180 0.204460 0.877350
C169 C 0.480150 0.307780 0.776950
C170 C 0.528870 0.100310 0.906290
C171 C 0.437990 0.237290 0.738320
C172 C 0.356050 0.158700 0.744780
C173 C 0.318150 0.154460 0.789500
C174 C 0.583630 -0.035320 0.911510
C175 C 0.553410 0.305400 0.684100
C176 C 0.555280 -0.169320 0.936340
C177 C 0.470410 -0.168160 0.957200
C178 C 0.680490 -0.322200 0.913940
C179 C 0.242770 0.000300 0.709400
C180 C 0.361370 -0.321000 0.998230
C181 C 0.557450 0.699280 0.177210
C182 C 0.638380 0.776160 0.171160
C183 C 0.617270 0.756060 0.080870
C184 C 0.677820 0.795540 0.122650
C185 C 0.519850 0.692220 0.223050
C186 C 0.566080 0.601030 0.092100
C187 C 0.257230 0.999700 0.209400
C188 C 0.506120 0.632370 0.134960
C189 C 0.361370 0.821000 0.498230
C190 C -0.053410 0.694600 0.184100
C191 C 0.181850 0.845540 0.289500
C192 C 0.143950 0.841300 0.244780
C193 C 0.680490 0.822200 0.413940
C194 C 0.062010 0.762710 0.238320
C195 C 0.019850 0.692220 0.276950
C196 C 0.177820 0.795540 0.377350
C197 C 0.470410 0.668160 0.457200
C198 C 0.555280 0.669320 0.436340
C199 C 0.583630 0.535320 0.411510
C200 C 0.138380 0.776160 0.328840
C201 C 0.528870 0.399690 0.406290
C202 C 0.444360 0.399170 0.426080
C203 C 0.415920 0.535240 0.451600
C204 C 0.057450 0.699280 0.322790
C205 C 0.561940 0.259700 0.378510
C206 C 0.493880 0.132370 0.365040
C207 C 0.117270 0.756060 0.419130
C208 C 0.433920 0.101030 0.407900
C209 C 0.066080 0.601030 0.407900
C210 C 0.006120 0.632370 0.365040
C211 C 0.382730 0.256060 0.419130
C212 C -0.061940 0.759700 0.378510
C213 C 0.442550 0.199280 0.322790
C214 C 0.361620 0.276160 0.328840
C215 C 0.322180 0.295540 0.377350
C216 C 0.480150 0.192220 0.276950
C217 C 0.084080 1.035240 0.451600
C218 C 0.437990 0.262710 0.238320
C219 C 0.356050 0.341300 0.244780
C220 C 0.318150 0.345540 0.289500
C221 C 0.055640 0.899170 0.426080
C222 C 0.553410 0.194600 0.184100
C223 C -0.028870 0.899690 0.406290
C224 C -0.083630 1.035320 0.411510
C225 C -0.055280 1.169320 0.436340
C226 C 0.242770 0.499700 0.209400
C227 C 0.029590 1.168160 0.457200
C228 C -0.180490 1.322200 0.413940
C229 C 0.138630 1.321000 0.498230
C230 C 0.438060 0.759700 0.121490
C231 C 0.562010 0.762710 0.261680
C232 C 0.584080 1.035240 0.048400
C233 C 0.555640 0.899170 0.073920
C234 C 0.471130 0.899690 0.093710
C235 C 0.643950 0.841300 0.255220
C236 C 0.138630 0.179000 0.998230
C237 C 0.681850 0.845540 0.210500
C238 C 0.446590 0.694600 0.315900
C239 C 0.742770 0.499700 0.290600
C240 C -0.180490 0.177800 0.913940
C241 C 1.053410 0.194600 0.315900
C242 C 0.818150 0.345540 0.210500
C243 C 0.856050 0.341300 0.255220
C244 C 0.029590 0.331840 0.957200
C245 C -0.055280 0.330680 0.936340
C246 C -0.083630 0.464680 0.911510
C247 C 0.937990 0.262710 0.261680
C248 C -0.028870 0.600310 0.906290
C249 C 0.055640 0.600830 0.926080
C250 C 0.084080 0.464760 0.951600
C251 C 0.980150 0.192220 0.223050
C252 C -0.061940 0.740300 0.878510
C253 C 0.006120 0.867630 0.865040
C254 C 0.822180 0.295540 0.122650
C255 C 0.066080 0.898970 0.907900
C256 C 0.861620 0.276160 0.171160
C257 C 0.942550 0.199280 0.177210
C258 C 0.117270 0.743940 0.919130
C259 C 0.882730 0.256060 0.080870
C260 C 0.057450 0.800720 0.822790
C261 C 0.138380 0.723840 0.828840
C262 C 0.177820 0.704460 0.877350
C263 C 0.019850 0.807780 0.776950
C264 C 0.933920 0.101030 0.092100
C265 C 0.062010 0.737290 0.738320
C266 C 0.143950 0.658700 0.744780
C267 C 0.181850 0.654460 0.789500
C268 C 0.993880 0.132370 0.134960
C269 C -0.053410 0.805400 0.684100
C270 C 1.061940 0.259700 0.121490
C271 C 0.915920 0.535240 0.048400
C272 C 0.944360 0.399170 0.073920
C273 C 0.257230 0.500300 0.709400
C274 C 1.028870 0.399690 0.093710
C275 C 1.083630 0.535320 0.088490
C276 C 1.055280 0.669320 0.063660
C277 C 0.416370 1.035320 0.088490
C278 C 0.444720 1.169320 0.063660
C279 C 0.529590 1.168160 0.042800
C280 C 0.970410 0.668160 0.042800
C281 C 1.180490 0.822200 0.086060
C282 C 0.861370 0.821000 0.001770
C283 C 0.861370 -0.321000 0.501770
C284 C 0.757230 0.999700 0.290600
C285 C 0.757230 0.500300 0.790600
C286 C 0.446590 0.805400 0.815900
C287 C 1.180490 -0.322200 0.586060
C288 C 0.681850 0.654460 0.710500
C289 C 0.643950 0.658700 0.755220
C290 C 0.562010 0.737290 0.761680
C291 C 0.970410 -0.168160 0.542800
C292 C 1.055280 -0.169320 0.563660
C293 C 1.083630 -0.035320 0.588490
C294 C 0.519850 0.807780 0.723050
C295 C 1.028870 0.100310 0.593710
C296 C 0.944360 0.100830 0.573920
C297 C 0.915920 -0.035240 0.548400
C298 C 0.677820 0.704460 0.622650
C299 C 1.061940 0.240300 0.621490
C300 C 0.993880 0.367630 0.634960
C301 C 0.638380 0.723840 0.671160
C302 C 0.933920 0.398970 0.592100
C303 C 0.557450 0.800720 0.677210
C304 C 0.617270 0.743940 0.580870
C305 C 0.882730 0.243940 0.580870
C306 C 0.566080 0.898970 0.592100
C307 C 0.942550 0.300720 0.677210
C308 C 0.861620 0.223840 0.671160
C309 C 0.822180 0.204460 0.622650
C310 C 0.980150 0.307780 0.723050
C311 C 0.506120 0.867630 0.634960
C312 C 0.937990 0.237290 0.761680
C313 C 0.856050 0.158700 0.755220
C314 C 0.818150 0.154460 0.710500
C315 C 0.438060 0.740300 0.621490
C316 C 1.053410 0.305400 0.815900
C317 C 0.584080 0.464760 0.548400
C318 C 0.555640 0.600830 0.573920
C319 C 0.471130 0.600310 0.593710
C320 C 0.742770 0.000300 0.790600
C321 C 0.416370 0.464680 0.588490
C322 C 0.444720 0.330680 0.563660
C323 C 0.529590 0.331840 0.542800
C324 C 0.319510 1.322200 0.086060
C325 C 0.319510 0.177800 0.586060
C326 C 0.382730 0.243940 0.919130
C327 C 0.638630 0.179000 0.501770
C328 C 0.638630 1.321000 0.001770
O329 O 0.821850 0.091210 0.795670
O330 O 0.968940 0.235030 0.807270
O331 O 0.747520 0.154510 0.616870
O332 O 1.138820 0.250920 0.634010
O333 O 1.102480 -0.308110 0.557670
O334 O 0.949640 -0.304280 0.518040
O335 O 0.178150 0.591210 0.704330
O336 O 0.031060 0.735030 0.692730
O337 O 0.252480 0.654510 0.883130
O338 O -0.138820 0.750920 0.865990
O339 O -0.102480 0.191890 0.942330
O340 O 0.050360 0.195720 0.981960
O341 O 0.321850 0.408790 0.204330
O342 O 0.468940 0.264970 0.192730
O343 O 0.247520 0.345490 0.383130
O344 O 0.638820 0.249080 0.365990
O345 O 0.602480 0.808110 0.442330
O346 O 0.449640 0.804280 0.481960
O347 O 0.321850 0.091210 0.704330
O348 O 0.468940 0.235030 0.692730
O349 O 0.247520 0.154510 0.883130
O350 O 0.638820 0.250920 0.865990
O351 O 0.602480 -0.308110 0.942330
O352 O 0.449640 -0.304280 0.981960
O353 O 0.178150 0.908790 0.204330
O354 O 0.031060 0.764970 0.192730
O355 O 0.252480 0.845490 0.383130
O356 O -0.138820 0.749080 0.365990
O357 O -0.102480 1.308110 0.442330
O358 O 0.050360 1.304280 0.481960
O359 O 0.821850 0.408790 0.295670
O360 O 0.968940 0.264970 0.307270
O361 O 0.747520 0.345490 0.116870
O362 O 1.138820 0.249080 0.134010
O363 O 1.102480 0.808110 0.057670
O364 O 0.949640 0.804280 0.018040
O365 O 0.678150 0.591210 0.795670
O366 O 0.531060 0.735030 0.807270
O367 O 0.752480 0.654510 0.616870
O368 O 0.361180 0.750920 0.634010
O369 O 0.397520 0.191890 0.557670
O370 O 0.550360 0.195720 0.518040
O371 O 0.550360 1.304280 0.018040
O372 O 0.397520 1.308110 0.057670
O373 O 0.361180 0.749080 0.134010
O374 O 0.752480 0.845490 0.116870
O375 O 0.531060 0.764970 0.307270
O376 O 0.678150 0.908790 0.295670

#END
