./MAQTIH_from_POSCAR.cif_generated_by_CrystalShift
_symmetry_cell_setting triclinic
_symmetry_space_group_name_H-M 'P 1'
loop_
_symmetry_equiv_pos_site_id
_symmetry_equiv_pos_as_xyz
1 x,y,z
_cell_length_a 36.040000
_cell_length_b 12.110000
_cell_length_c 8.861000
_cell_angle_alpha 90.000000
_cell_angle_beta 104.040000
_cell_angle_gamma 90.000000
_cell_volume 3751.803404
loop_
_atom_site_label
_atom_site_type_symbol
_atom_site_fract_x
_atom_site_fract_y
_atom_site_fract_z
H1 H 0.271200 0.664300 0.601800
H2 H 0.244490 0.361000 0.726700
H3 H 0.173610 0.115900 0.624100
H4 H -0.048200 0.200100 -0.157700
H5 H -0.046500 0.196000 0.020900
H6 H -0.038100 0.307000 -0.056000
H7 H 0.081650 0.363300 0.190300
H8 H 0.015330 0.372200 0.099500
H9 H 0.014400 0.071100 -0.071900
H10 H 0.079990 0.060800 0.011700
H11 H 0.148430 0.492400 -0.037300
H12 H 0.123430 0.187700 -0.173100
H13 H 0.303210 0.881100 0.313400
H14 H 0.196790 0.381100 0.186600
H15 H 0.271200 0.335700 1.101800
H16 H 0.241790 0.528800 0.865100
H17 H 0.376570 0.687700 0.673100
H18 H 0.244490 0.639000 1.226700
H19 H 0.351570 0.992400 0.537300
H20 H 0.173610 0.884100 1.124100
H21 H -0.048200 0.799900 0.342300
H22 H 0.420010 0.560800 0.488300
H23 H -0.046500 0.804000 0.520900
H24 H 0.485600 0.571100 0.571900
H25 H -0.038100 0.693000 0.444000
H26 H 0.081650 0.636700 0.690300
H27 H 0.484670 0.872200 0.400500
H28 H 0.015330 0.627800 0.599500
H29 H 0.418350 0.863300 0.309700
H30 H 0.014400 0.928900 0.428100
H31 H 0.538100 0.807000 0.556000
H32 H 0.546500 0.696000 0.479100
H33 H 0.548200 0.700100 0.657700
H34 H 0.079990 0.939200 0.511700
H35 H 0.326390 0.615900 -0.124100
H36 H 0.148430 0.507600 0.462700
H37 H 0.255510 0.861000 -0.226700
H38 H 0.123430 0.812300 0.326900
H39 H 0.196790 0.618900 0.686600
H40 H 0.258210 0.971200 0.134900
H41 H 0.228800 1.164300 -0.101800
H42 H 0.771200 1.164300 0.601800
H43 H 0.741790 0.971200 0.365100
H44 H 0.744490 0.861000 0.726700
H45 H 0.673610 0.615900 0.624100
H46 H 0.451800 0.700100 -0.157700
H47 H 0.453500 0.696000 0.020900
H48 H 0.461900 0.807000 -0.056000
H49 H 0.581650 0.863300 0.190300
H50 H 0.515330 0.872200 0.099500
H51 H 0.514400 0.571100 -0.071900
H52 H 0.579990 0.560800 0.011700
H53 H 0.648430 0.992400 -0.037300
H54 H 0.303210 0.118900 0.813400
H55 H 0.623430 0.687700 -0.173100
H56 H 0.696790 0.881100 0.186600
H57 H 0.771200 -0.164300 1.101800
H58 H 0.376570 0.312300 1.173100
H59 H 0.741790 0.028800 0.865100
H60 H 0.351570 0.007600 1.037300
H61 H 0.744490 0.139000 1.226700
H62 H 0.673610 0.384100 1.124100
H63 H 0.420010 0.439200 0.988300
H64 H 0.451800 0.299900 0.342300
H65 H 0.485600 0.428900 1.071900
H66 H 0.453500 0.304000 0.520900
H67 H 0.461900 0.193000 0.444000
H68 H 0.484670 0.127800 0.900500
H69 H 0.581650 0.136700 0.690300
H70 H 0.418350 0.136700 0.809700
H71 H 0.515330 0.127800 0.599500
H72 H 0.538100 0.193000 1.056000
H73 H 0.546500 0.304000 0.979100
H74 H 0.548200 0.299900 1.157700
H75 H 0.514400 0.428900 0.428100
H76 H 0.326390 0.384100 0.375900
H77 H 0.579990 0.439200 0.511700
H78 H 0.255510 0.139000 0.273300
H79 H 0.648430 0.007600 0.462700
H80 H 0.623430 0.312300 0.326900
H81 H 0.258210 0.028800 0.634900
H82 H 0.228800 -0.164300 0.398200
H83 H 0.696790 0.118900 0.686600
H84 H 0.728800 0.335700 0.398200
H85 H 0.758210 0.528800 0.634900
H86 H 0.755510 0.639000 0.273300
H87 H 0.826390 0.884100 0.375900
H88 H 1.048200 0.799900 1.157700
H89 H 1.046500 0.804000 0.979100
H90 H 1.038100 0.693000 1.056000
H91 H 0.918350 0.636700 0.809700
H92 H 0.984670 0.627800 0.900500
H93 H 0.985600 0.928900 1.071900
H94 H 0.920010 0.939200 0.988300
H95 H 0.803210 0.381100 0.313400
H96 H 0.851570 0.507600 1.037300
H97 H 0.876570 0.812300 1.173100
H98 H 0.803210 0.618900 0.813400
H99 H 0.876570 0.187700 0.673100
H100 H 0.728800 0.664300 -0.101800
H101 H 0.851570 0.492400 0.537300
H102 H 0.758210 0.471200 0.134900
H103 H 0.755510 0.361000 -0.226700
H104 H 0.920010 0.060800 0.488300
H105 H 0.826390 0.115900 -0.124100
H106 H 0.985600 0.071100 0.571900
H107 H 1.048200 0.200100 0.657700
H108 H 1.046500 0.196000 0.479100
H109 H 0.984670 0.372200 0.400500
H110 H 1.038100 0.307000 0.556000
H111 H 0.918350 0.363300 0.309700
H112 H 0.241790 0.471200 0.365100
C113 C 0.931860 0.303800 0.362500
C114 C 0.971650 0.308700 0.416400
C115 C 0.991430 0.221100 0.492100
C116 C 0.814480 0.177000 -0.093100
C117 C 0.972090 0.130400 0.518400
C118 C 0.773430 0.322100 -0.152600
C119 C 0.932930 0.123500 0.468300
C120 C 0.781800 0.360800 0.000000
C121 C 0.762880 0.461600 0.037000
C122 C 0.913290 0.211100 0.388100
C123 C 0.859350 0.431000 0.599900
C124 C 0.237120 0.461600 0.463000
C125 C 0.218200 0.360800 0.500000
C126 C 0.226570 0.322100 0.652600
C127 C 0.185520 0.177000 0.593100
C128 C -0.035380 0.228100 -0.057100
C129 C 0.068140 0.303800 0.137500
C130 C 0.028350 0.308700 0.083600
C131 C 0.008570 0.221100 0.007900
C132 C 0.027910 0.130400 -0.018400
C133 C 0.823630 0.794000 0.562500
C134 C 0.807630 0.700100 0.614900
C135 C 0.818390 0.669700 0.777300
C136 C 0.872680 0.263600 0.672500
C137 C 0.849120 0.710800 0.878800
C138 C 0.860400 0.675100 1.041200
C139 C 0.872680 0.736400 1.172500
C140 C 0.860400 0.324900 0.541200
C141 C 0.859350 0.569000 1.099900
C142 C 0.849120 0.289200 0.378800
C143 C 0.913290 0.788900 0.888100
C144 C 0.932930 0.876500 0.968300
C145 C 0.818390 0.330300 0.277300
C146 C 0.972090 0.869600 1.018400
C147 C 0.807630 0.299900 0.114900
C148 C 0.991430 0.778900 0.992100
C149 C 0.971650 0.691300 0.916400
C150 C 0.823630 0.206000 0.062500
C151 C 0.931860 0.696200 0.862500
C152 C 0.323630 0.706000 0.062500
C153 C 1.035380 0.771900 1.057100
C154 C 0.067070 0.123500 0.031700
C155 C 0.086710 0.211100 0.111900
C156 C 0.307630 0.799900 0.114900
C157 C 0.814480 0.823000 0.406900
C158 C 0.140650 0.431000 -0.099900
C159 C 0.773430 0.677900 0.347400
C160 C 0.318390 0.830300 0.277300
C161 C 0.781800 0.639200 0.500000
C162 C 0.762880 0.538400 0.537000
C163 C 0.127320 0.263600 -0.172500
C164 C 0.139600 0.324900 -0.041200
C165 C 0.150880 0.289200 0.121200
C166 C 0.349120 0.789200 0.378800
C167 C 0.181610 0.330300 0.222700
C168 C 0.192370 0.299900 0.385100
C169 C 0.176370 0.206000 0.437500
C170 C 0.360400 0.824900 0.541200
C171 C 0.372680 0.763600 0.672500
C172 C 0.237120 0.538400 0.963000
C173 C 0.218200 0.639200 1.000000
C174 C 0.676370 0.294000 0.937500
C175 C 0.692370 0.200100 0.885100
C176 C 0.681610 0.169700 0.722700
C177 C 0.359350 0.931000 0.599900
C178 C 0.650880 0.210800 0.621200
C179 C 0.639600 0.175100 0.458800
C180 C 0.627320 0.236400 0.327500
C181 C 0.262880 0.038400 0.537000
C182 C 0.640650 0.069000 0.400100
C183 C 0.281800 0.139200 0.500000
C184 C 0.586710 0.288900 0.611900
C185 C 0.567070 0.376500 0.531700
C186 C 0.273430 0.177900 0.347400
C187 C 0.527910 0.369600 0.481600
C188 C 0.314480 0.323000 0.406900
C189 C 0.508570 0.278900 0.507900
C190 C 0.528350 0.191300 0.583600
C191 C 0.535380 0.271900 1.057100
C192 C 0.568140 0.196200 0.637500
C193 C 0.431860 0.196200 0.862500
C194 C 0.464620 0.271900 0.442900
C195 C 0.471650 0.191300 0.916400
C196 C 0.491430 0.278900 0.992100
C197 C 0.472090 0.369600 1.018400
C198 C 0.685520 0.323000 1.093100
C199 C 0.432930 0.376500 0.968300
C200 C 0.726570 0.177900 1.152600
C201 C 0.413290 0.288900 0.888100
C202 C 0.718200 0.139200 1.000000
C203 C 0.737120 0.038400 0.963000
C204 C 0.359350 0.069000 1.099900
C205 C 0.372680 0.236400 1.172500
C206 C 0.226570 0.677900 1.152600
C207 C 0.413290 0.711100 0.388100
C208 C 0.185520 0.823000 1.093100
C209 C 0.432930 0.623500 0.468300
C210 C 0.472090 0.630400 0.518400
C211 C 0.491430 0.721100 0.492100
C212 C -0.035380 0.771900 0.442900
C213 C 0.471650 0.808700 0.416400
C214 C 0.068140 0.696200 0.637500
C215 C 0.676370 0.706000 0.437500
C216 C 0.692370 0.799900 0.385100
C217 C 0.681610 0.830300 0.222700
C218 C 0.360400 0.175100 1.041200
C219 C 0.650880 0.789200 0.121200
C220 C 0.639600 0.824900 -0.041200
C221 C 0.627320 0.763600 -0.172500
C222 C 0.349120 0.210800 0.878800
C223 C 0.640650 0.931000 -0.099900
C224 C 0.318390 0.169700 0.777300
C225 C 0.586710 0.711100 0.111900
C226 C 0.567070 0.623500 0.031700
C227 C 0.307630 0.200100 0.614900
C228 C 0.527910 0.630400 -0.018400
C229 C 0.323630 0.294000 0.562500
C230 C 0.508570 0.721100 0.007900
C231 C 0.528350 0.808700 0.083600
C232 C 0.431860 0.803800 0.362500
C233 C 0.568140 0.803800 0.137500
C234 C 0.028350 0.691300 0.583600
C235 C 0.464620 0.728100 -0.057100
C236 C 0.008570 0.778900 0.507900
C237 C 0.535380 0.728100 0.557100
C238 C 0.027910 0.869600 0.481600
C239 C 0.685520 0.677000 0.593100
C240 C 0.314480 0.677000 -0.093100
C241 C 0.726570 0.822100 0.652600
C242 C 0.067070 0.876500 0.531700
C243 C 0.718200 0.860800 0.500000
C244 C 0.737120 0.961600 0.463000
C245 C 0.086710 0.788900 0.611900
C246 C 0.273430 0.822100 -0.152600
C247 C 0.140650 0.569000 0.400100
C248 C 0.281800 0.860800 0.000000
C249 C 0.127320 0.736400 0.327500
C250 C 0.139600 0.675100 0.458800
C251 C 0.150880 0.710800 0.621200
C252 C 0.262880 0.961600 0.037000
C253 C 0.181610 0.669700 0.722700
C254 C 0.192370 0.700100 0.885100
C255 C 0.176370 0.794000 0.937500
C256 C 1.035380 0.228100 0.557100
N257 N 0.210700 0.766800 1.199900
N258 N 0.129750 0.563900 0.249700
N259 N 0.127640 0.793600 0.664000
N260 N 0.372360 0.706400 0.336000
N261 N 0.370250 0.936100 0.750300
N262 N 0.872360 0.793600 0.836000
N263 N 0.289300 0.733200 -0.199900
N264 N 0.870250 0.563900 1.250300
N265 N 0.789300 0.766800 0.300100
N266 N 0.253070 1.035230 -0.067400
N267 N 0.753070 0.464770 0.432600
N268 N 0.753070 0.535230 -0.067400
N269 N 0.789300 0.233200 -0.199900
N270 N 0.372360 0.293600 0.836000
N271 N 0.370250 0.063900 1.250300
N272 N 0.289300 0.266800 0.300100
N273 N 0.253070 -0.035230 0.432600
N274 N 0.746930 1.035230 0.567400
N275 N 0.710700 0.733200 0.699900
N276 N 0.629750 0.936100 -0.250300
N277 N 0.627640 0.706400 0.164000
N278 N 0.870250 0.436100 0.750300
N279 N 0.872360 0.206400 0.336000
N280 N 0.246930 0.535230 0.567400
N281 N 0.210700 0.233200 0.699900
N282 N 0.129750 0.436100 -0.250300
N283 N 0.127640 0.206400 0.164000
N284 N 0.746930 -0.035230 1.067400
N285 N 0.710700 0.266800 1.199900
N286 N 0.629750 0.063900 0.249700
N287 N 0.627640 0.293600 0.664000
N288 N 0.246930 0.464770 1.067400
O289 O 0.174490 0.053040 0.236000
O290 O 0.120430 0.064200 0.357700
O291 O 0.121600 0.325200 -0.298700
O292 O 0.825510 0.946960 0.764000
O293 O 0.325510 0.553040 0.264000
O294 O 0.879570 0.935800 0.642300
O295 O 0.674490 0.553040 0.236000
O296 O 0.620430 0.564200 0.357700
O297 O 0.765370 -0.122670 1.016800
O298 O 0.621600 0.174800 0.201300
O299 O 0.620430 0.435800 0.857700
O300 O 0.674490 0.446960 0.736000
O301 O 0.379570 0.564200 0.142300
O302 O 0.825510 0.053040 0.264000
O303 O 0.879570 0.064200 0.142300
O304 O 0.878400 0.325200 0.798700
O305 O 0.734630 0.622670 -0.016800
O306 O 0.621600 0.825200 -0.298700
O307 O 0.765370 1.122670 0.516800
O308 O 0.234630 -0.122670 0.483200
O309 O 0.378400 0.174800 1.298700
O310 O 0.379570 0.435800 0.642300
O311 O 0.325510 0.446960 0.764000
O312 O 0.878400 0.674800 1.298700
O313 O 0.378400 0.825200 0.798700
O314 O 0.174490 0.946960 0.736000
O315 O 0.120430 0.935800 0.857700
O316 O 0.121600 0.674800 0.201300
O317 O 0.734630 0.377330 0.483200
O318 O 0.265370 0.377330 1.016800
O319 O 0.234630 1.122670 -0.016800
O320 O 0.265370 0.622670 0.516800
S321 S 0.648840 0.381990 0.799350
S322 S 0.648840 0.618010 0.299350
S323 S 0.851160 0.118010 0.200650
S324 S 0.148840 0.118010 0.299350
S325 S 0.851160 0.881990 0.700650
S326 S 0.351160 0.381990 0.700650
S327 S 0.148840 0.881990 0.799350
S328 S 0.351160 0.618010 0.200650

#END
