./MAQWIM05_from_POSCAR.cif_generated_by_CrystalShift
_symmetry_cell_setting triclinic
_symmetry_space_group_name_H-M 'P 1'
loop_
_symmetry_equiv_pos_site_id
_symmetry_equiv_pos_as_xyz
1 x,y,z
_cell_length_a 7.631500
_cell_length_b 12.099600
_cell_length_c 10.247300
_cell_angle_alpha 90.000000
_cell_angle_beta 97.950000
_cell_angle_gamma 90.000000
_cell_volume 937.122237
loop_
_atom_site_label
_atom_site_type_symbol
_atom_site_fract_x
_atom_site_fract_y
_atom_site_fract_z
H1 H 0.371200 0.313700 0.740500
H2 H -0.405600 0.363900 0.088900
H3 H 0.524800 0.387400 0.632000
H4 H 0.705500 0.449800 0.635900
H5 H 0.536000 0.514300 0.662800
H6 H 0.080500 0.100500 0.967200
H7 H 0.785100 0.556600 0.879500
H8 H 0.903600 0.455100 0.854300
H9 H 0.101200 0.184500 0.171400
H10 H 0.811900 0.459800 0.982000
H11 H -0.173600 0.243600 0.072700
H12 H -0.196900 0.044400 0.872700
H13 H -0.196900 0.455600 0.372700
H14 H -0.173600 0.256400 0.572700
H15 H 0.811900 0.040200 0.482000
H16 H 0.903600 0.044900 0.354300
H17 H 0.785100 -0.056600 0.379500
H18 H 0.101200 0.315500 0.671400
H19 H 0.080500 0.399500 0.467200
H20 H -0.405600 0.136100 0.588900
H21 H 0.536000 -0.014300 0.162800
H22 H 0.705500 0.050200 0.135900
H23 H 0.524800 0.112600 0.132000
H24 H 0.628800 0.813700 0.759500
H25 H 0.475200 0.887400 0.868000
H26 H 0.371200 0.186300 0.240500
H27 H 0.294500 0.949800 0.864100
H28 H 1.405600 0.863900 0.411100
H29 H 0.464000 1.014300 0.837200
H30 H 0.919500 0.600500 0.532800
H31 H 0.214900 1.056600 0.620500
H32 H 0.096400 0.955100 0.645700
H33 H 0.188100 0.959800 0.518000
H34 H 1.196900 0.544400 0.627300
H35 H 0.898800 0.684500 0.328600
H36 H 1.173600 0.756400 0.927300
H37 H 1.173600 0.743600 0.427300
H38 H 0.898800 0.815500 0.828600
H39 H 1.196900 0.955600 0.127300
H40 H 1.405600 0.636100 0.911100
H41 H 0.188100 0.540200 0.018000
H42 H 0.096400 0.544900 0.145700
H43 H 0.214900 0.443400 0.120500
H44 H 0.628800 0.686300 0.259500
H45 H 0.919500 0.899500 0.032800
H46 H 0.475200 0.612600 0.368000
H47 H 0.464000 0.485700 0.337200
H48 H 0.294500 0.550200 0.364100
C49 C 0.402050 0.554820 0.325660
C50 C 0.041950 0.239330 0.211620
C51 C -0.123980 0.273890 0.152730
C52 C 0.970800 0.867270 0.111250
C53 C 0.799640 0.478120 0.890020
C54 C 0.200360 0.521880 0.109980
C55 C 0.121410 0.285560 0.330310
C56 C 0.878590 0.714440 0.669690
C57 C 0.359170 0.920270 0.681390
C58 C 0.704710 0.753020 0.600420
C59 C 1.216040 0.645960 0.786320
C60 C 0.958050 0.760670 0.788380
C61 C 1.137330 0.901280 0.167960
C62 C 1.123980 0.726110 0.847270
C63 C 1.123980 0.773890 0.347270
C64 C 1.137330 0.598720 0.667960
C65 C 0.958050 0.739330 0.288380
C66 C 0.200360 0.978120 0.609980
C67 C 1.216040 0.854040 0.286320
C68 C 0.704710 0.746980 0.100420
C69 C 0.359170 0.579730 0.181390
C70 C 0.970800 0.632730 0.611250
C71 C 0.878590 0.785560 0.169690
C72 C 0.402050 0.945180 0.825660
C73 C 0.640830 0.079730 0.318610
C74 C 0.597950 0.445180 0.674340
C75 C -0.137330 0.401280 0.332040
C76 C -0.137330 0.098720 0.832040
C77 C 0.799640 0.021880 0.390020
C78 C -0.123980 0.226110 0.652730
C79 C 0.295290 0.246980 0.399580
C80 C 0.597950 0.054820 0.174340
C81 C 0.029200 0.132730 0.888750
C82 C 0.121410 0.214440 0.830310
C83 C 0.640830 0.420270 0.818610
C84 C 0.295290 0.253020 0.899580
C85 C -0.216040 0.145960 0.713680
C86 C 0.041950 0.260670 0.711620
C87 C 0.029200 0.367270 0.388750
C88 C -0.216040 0.354040 0.213680
N89 N 0.447270 0.858550 0.612290
N90 N 0.399320 0.190980 0.324560
N91 N 0.552730 0.358550 0.887710
N92 N 0.600680 0.690980 0.175440
N93 N 0.447270 0.641450 0.112290
N94 N 0.600680 0.809020 0.675440
N95 N 0.552730 0.141450 0.387710
N96 N 0.399320 0.309020 0.824560
O97 O 1.379700 0.888570 0.336380
O98 O 0.660800 0.762360 -0.018720
O99 O 0.660800 0.737640 0.481280
O100 O 0.339200 0.262360 0.518720
O101 O 1.379700 0.611430 0.836380
O102 O -0.379700 0.111430 0.663620
O103 O 0.339200 0.237640 1.018720
O104 O -0.379700 0.388570 0.163620

#END
