./MAQXEJ_from_POSCAR.cif_generated_by_CrystalShift
_symmetry_cell_setting triclinic
_symmetry_space_group_name_H-M 'P 1'
loop_
_symmetry_equiv_pos_site_id
_symmetry_equiv_pos_as_xyz
1 x,y,z
_cell_length_a 8.415000
_cell_length_b 16.247000
_cell_length_c 7.729000
_cell_angle_alpha 90.000000
_cell_angle_beta 112.600000
_cell_angle_gamma 90.000000
_cell_volume 975.553767
loop_
_atom_site_label
_atom_site_type_symbol
_atom_site_fract_x
_atom_site_fract_y
_atom_site_fract_z
H1 H -0.381200 0.512200 0.292800
H2 H -0.042400 0.301200 0.643100
H3 H 0.218500 1.228600 -0.122700
H4 H -0.281500 0.271400 0.377300
H5 H 0.457600 1.198800 0.143100
H6 H -0.544000 0.592000 -0.392000
H7 H 0.250500 0.688700 0.755400
H8 H 0.359400 0.958200 0.054600
H9 H 0.147000 0.462700 0.219000
H10 H 0.118800 0.987800 -0.207200
H11 H 0.115100 0.690600 0.854800
H12 H 0.566600 0.340900 0.662400
H13 H 0.433300 0.339200 0.764600
H14 H 0.750500 0.811300 0.255400
H15 H 0.615100 0.809400 0.354800
H16 H 0.298200 0.224900 0.587800
H17 H 0.932400 0.726000 0.487500
H18 H 0.798200 0.724900 0.587800
H19 H 0.432400 0.226000 0.487500
H20 H 0.933300 0.839200 0.764600
H21 H 1.066600 0.840900 0.662400
H22 H -0.544000 0.408000 0.108000
H23 H 0.647000 0.962700 0.219000
H24 H 0.147000 0.537300 0.719000
H25 H 0.566600 0.659100 1.162400
H26 H -0.044000 1.092000 -0.392000
H27 H 0.433300 0.660800 1.264600
H28 H 0.115100 0.309400 0.354800
H29 H 0.250500 0.311300 0.255400
H30 H 0.218500 -0.228600 0.377300
H31 H -0.381200 0.487800 -0.207200
H32 H 0.457600 -0.198800 0.643100
H33 H -0.140600 0.458200 0.054600
H34 H -0.042400 0.698800 0.143100
H35 H 0.359400 0.041800 0.554600
H36 H -0.281500 0.728600 -0.122700
H37 H 0.118800 0.012200 0.292800
H38 H -0.044000 -0.092000 0.108000
H39 H 0.432400 0.774000 0.987500
H40 H 0.298200 0.775100 1.087800
H41 H 0.750500 0.188700 0.755400
H42 H 0.615100 0.190600 0.854800
H43 H 0.647000 0.037300 0.719000
H44 H 0.932400 0.274000 0.987500
H45 H 0.798200 0.275100 1.087800
H46 H 1.066600 0.159100 1.162400
H47 H 0.933300 0.160800 1.264600
H48 H -0.140600 0.541800 0.554600
C49 C 0.447000 0.665310 1.146000
C50 C 0.857100 0.241020 1.028100
C51 C 0.735300 0.185110 0.873400
C52 C 0.823500 0.112730 0.991500
C53 C 0.587800 -0.059310 0.803200
C54 C 0.357100 0.741020 1.028100
C55 C -0.355100 0.610380 -0.191900
C56 C -0.253200 0.674160 -0.086700
C57 C 0.187600 -0.030390 0.362500
C58 C -0.109500 0.656080 0.071700
C59 C 0.331600 -0.012750 0.519300
C60 C -0.063900 0.575470 0.125800
C61 C -0.168400 0.512750 0.019300
C62 C 0.436100 -0.075470 0.625800
C63 C -0.312400 0.530390 -0.137500
C64 C 0.390500 -0.156080 0.571700
C65 C 0.087800 0.559310 0.303200
C66 C 0.323500 0.387270 0.491500
C67 C 0.235300 0.314890 0.373400
C68 C 0.246800 -0.174160 0.413300
C69 C 0.144900 -0.110380 0.308100
C70 C 0.357100 0.258980 0.528100
C71 C 0.947000 0.834690 0.646000
C72 C 0.857100 0.758980 0.528100
C73 C 0.447000 0.334690 0.646000
C74 C 0.735300 0.814890 0.373400
C75 C 0.823500 0.887270 0.491500
C76 C 0.587800 1.059310 0.303200
C77 C 0.187600 1.030390 -0.137500
C78 C 0.331600 1.012750 0.019300
C79 C 0.235300 0.685110 0.873400
C80 C 0.436100 1.075470 0.125800
C81 C 0.323500 0.612730 0.991500
C82 C -0.355100 0.389620 0.308100
C83 C -0.253200 0.325840 0.413300
C84 C 0.390500 1.156080 0.071700
C85 C -0.109500 0.343920 0.571700
C86 C 0.246800 1.174160 -0.086700
C87 C -0.063900 0.424530 0.625800
C88 C -0.168400 0.487250 0.519300
C89 C 0.947000 0.165310 1.146000
C90 C -0.312400 0.469610 0.362500
C91 C 0.144900 1.110380 -0.191900
C92 C 0.087800 0.440690 0.803200
N93 N 0.665100 0.012970 0.811800
N94 N 0.301000 0.535810 0.978500
N95 N 0.301000 0.464190 0.478500
N96 N 0.165100 0.487030 0.311800
N97 N 0.801000 0.964190 0.478500
N98 N 0.165100 0.512970 0.811800
N99 N 0.801000 0.035810 0.978500
N100 N 0.665100 0.987030 0.311800
O101 O 0.004000 1.131550 -0.345900
O102 O 0.004000 -0.131550 0.154100
O103 O 0.632300 -0.107920 0.934500
O104 O -0.496000 0.631550 -0.345900
O105 O -0.496000 0.368450 0.154100
O106 O 0.132300 0.607920 0.434500
O107 O 0.632300 1.107920 0.434500
O108 O 0.132300 0.392080 0.934500

#END
