./MAQZEK01_from_POSCAR.cif_generated_by_CrystalShift
_symmetry_cell_setting triclinic
_symmetry_space_group_name_H-M 'P 1'
loop_
_symmetry_equiv_pos_site_id
_symmetry_equiv_pos_as_xyz
1 x,y,z
_cell_length_a 13.652000
_cell_length_b 8.691000
_cell_length_c 18.893000
_cell_angle_alpha 90.000000
_cell_angle_beta 103.219000
_cell_angle_gamma 90.000000
_cell_volume 2182.249005
loop_
_atom_site_label
_atom_site_type_symbol
_atom_site_fract_x
_atom_site_fract_y
_atom_site_fract_z
H1 H 0.502000 0.428000 0.397400
H2 H 0.326000 0.750000 0.655400
H3 H 0.247000 0.524000 0.687200
H4 H 0.174000 0.750000 0.844600
H5 H 0.753000 0.476000 0.312800
H6 H 0.826000 0.250000 0.155400
H7 H 0.747000 0.024000 0.187200
H8 H 0.674000 0.250000 0.344600
H9 H 0.747000 0.476000 0.687200
H10 H 0.674000 0.250000 0.844600
H11 H 0.753000 0.024000 0.812800
H12 H 0.826000 0.250000 0.655400
H13 H 0.247000 0.976000 0.187200
H14 H 0.174000 0.750000 0.344600
H15 H 0.132000 0.247000 0.707400
H16 H 0.039000 0.027000 0.653400
H17 H 0.027000 -0.178000 0.563400
H18 H 0.138000 -0.171000 0.483400
H19 H 0.357000 0.076000 0.698300
H20 H 0.510000 0.386000 0.697400
H21 H 0.498000 0.572000 0.602600
H22 H 0.360000 0.568000 0.496200
H23 H 0.253000 0.524000 0.312800
H24 H 0.326000 0.750000 0.155400
H25 H 0.360000 -0.068000 0.996200
H26 H 0.498000 -0.072000 1.102600
H27 H 0.510000 0.114000 1.197400
H28 H 0.357000 0.424000 1.198300
H29 H 0.138000 0.671000 0.983400
H30 H 0.027000 0.678000 1.063400
H31 H 0.039000 0.473000 1.153400
H32 H 0.132000 0.253000 1.207400
H33 H 0.140000 -0.068000 1.003800
H34 H 0.002000 -0.072000 0.897400
H35 H -0.010000 0.114000 0.802600
H36 H 0.143000 0.424000 0.801700
H37 H 0.368000 0.247000 0.292600
H38 H 0.461000 0.027000 0.346600
H39 H 0.473000 -0.178000 0.436600
H40 H 0.362000 -0.171000 0.516600
H41 H 0.143000 0.076000 0.301700
H42 H -0.010000 0.386000 0.302600
H43 H 0.002000 0.572000 0.397400
H44 H 0.140000 0.568000 0.503800
H45 H 0.362000 0.671000 1.016600
H46 H 0.473000 0.678000 0.936600
H47 H 0.461000 0.473000 0.846600
H48 H 0.368000 0.253000 0.792600
H49 H 0.360000 -0.068000 -0.003800
H50 H 0.498000 -0.072000 0.102600
H51 H 0.510000 0.114000 0.197400
H52 H 0.357000 0.424000 0.198300
H53 H 0.138000 0.671000 -0.016600
H54 H 0.027000 0.678000 0.063400
H55 H 0.039000 0.473000 0.153400
H56 H 0.132000 0.253000 0.207400
H57 H 0.140000 -0.068000 0.003800
H58 H 0.002000 -0.072000 -0.102600
H59 H 0.632000 0.747000 0.207400
H60 H 0.539000 0.527000 0.153400
H61 H 0.527000 0.322000 0.063400
H62 H 0.638000 0.329000 -0.016600
H63 H 0.857000 0.576000 0.198300
H64 H 1.010000 0.886000 0.197400
H65 H 0.998000 1.072000 0.102600
H66 H 0.860000 1.068000 -0.003800
H67 H -0.010000 0.114000 -0.197400
H68 H 0.143000 0.424000 -0.198300
H69 H 0.362000 0.671000 0.016600
H70 H 0.473000 0.678000 -0.063400
H71 H 0.461000 0.473000 -0.153400
H72 H 0.368000 0.253000 -0.207400
H73 H 0.860000 0.432000 0.496200
H74 H 0.998000 0.428000 0.602600
H75 H 1.010000 0.614000 0.697400
H76 H 0.857000 0.924000 0.698300
H77 H 0.638000 1.171000 0.483400
H78 H 0.527000 1.178000 0.563400
H79 H 0.539000 0.973000 0.653400
H80 H 0.632000 0.753000 0.707400
H81 H 0.868000 0.747000 -0.207400
H82 H 0.961000 0.527000 -0.153400
H83 H 0.973000 0.322000 -0.063400
H84 H 0.862000 0.329000 0.016600
H85 H 0.643000 0.576000 -0.198300
H86 H 0.490000 0.886000 -0.197400
H87 H 0.502000 1.072000 -0.102600
H88 H 0.640000 1.068000 0.003800
H89 H 0.640000 0.432000 0.503800
H90 H 0.253000 0.976000 0.812800
H91 H 0.490000 0.614000 0.302600
H92 H 0.643000 0.924000 0.301700
H93 H 0.862000 1.171000 0.516600
H94 H 0.973000 1.178000 0.436600
H95 H 0.961000 0.973000 0.346600
H96 H 0.868000 0.753000 0.292600
H97 H 0.640000 1.068000 1.003800
H98 H 0.502000 1.072000 0.897400
H99 H 0.490000 0.886000 0.802600
H100 H 0.643000 0.576000 0.801700
H101 H 0.862000 0.329000 1.016600
H102 H 0.973000 0.322000 0.936600
H103 H 0.632000 0.747000 1.207400
H104 H 0.539000 0.527000 1.153400
H105 H 0.527000 0.322000 1.063400
H106 H 0.638000 0.329000 0.983400
H107 H 0.857000 0.576000 1.198300
H108 H 1.010000 0.886000 1.197400
H109 H 0.998000 1.072000 1.102600
H110 H 0.860000 1.068000 0.996200
H111 H 0.961000 0.527000 0.846600
H112 H 0.868000 0.747000 0.792600
C113 C 0.843000 0.635800 0.874700
C114 C 0.915000 0.520900 0.879500
C115 C 0.921400 0.406600 0.931200
C116 C 0.856800 0.405800 0.978400
C117 C 0.617400 0.768900 0.853100
C118 C 0.546500 0.886800 0.847000
C119 C 0.554400 0.995300 0.901900
C120 C 0.633400 0.989200 0.962400
C121 C 0.775700 0.636600 0.920900
C122 C 0.784000 0.520400 0.974000
C123 C 0.698200 0.760400 0.913700
C124 C 0.706000 0.873700 0.968000
C125 C 0.252600 0.880800 0.786800
C126 C 0.292800 0.750000 0.694200
C127 C 0.794000 0.873700 1.032000
C128 C 0.801800 0.760400 1.086300
C129 C 0.716000 0.520400 1.026000
C130 C 0.724300 0.636600 1.079100
C131 C 0.866600 0.989200 1.037600
C132 C 0.945600 0.995300 1.098100
C133 C 0.157000 0.135800 0.625300
C134 C 0.085000 0.020900 0.620500
C135 C 0.843000 0.864200 0.374700
C136 C 0.915000 0.979100 0.379500
C137 C 0.921400 1.093400 0.431200
C138 C 0.856800 1.094200 0.478400
C139 C 0.617400 0.731100 0.353100
C140 C 0.546500 0.613200 0.347000
C141 C 0.554400 0.504700 0.401900
C142 C 0.633400 0.510800 0.462400
C143 C 0.775700 0.863400 0.420900
C144 C 0.784000 0.979600 0.474000
C145 C 0.698200 0.739600 0.413700
C146 C 0.706000 0.626300 0.468000
C147 C 0.953500 0.886800 1.153000
C148 C 0.882600 0.768900 1.146900
C149 C 0.643200 0.405800 1.021600
C150 C 0.578600 0.406600 1.068800
C151 C 0.585000 0.520900 1.120500
C152 C 0.657000 0.635800 1.125300
C153 C 0.247400 0.619200 0.713200
C154 C 0.207200 0.750000 0.805800
C155 C 0.078600 -0.093400 0.568800
C156 C 0.143200 -0.094200 0.521600
C157 C 0.657000 0.864200 0.625300
C158 C 0.585000 0.979100 0.620500
C159 C 0.578600 1.093400 0.568800
C160 C 0.643200 1.094200 0.521600
C161 C 0.882600 0.731100 0.646900
C162 C 0.953500 0.613200 0.653000
C163 C 0.945600 0.504700 0.598100
C164 C 0.866600 0.510800 0.537600
C165 C 0.724300 0.863400 0.579100
C166 C 0.716000 0.979600 0.526000
C167 C 0.801800 0.739600 0.586300
C168 C 0.794000 0.626300 0.532000
C169 C 0.706000 0.873700 -0.032000
C170 C 0.698200 0.760400 -0.086300
C171 C 0.784000 0.520400 -0.026000
C172 C 0.775700 0.636600 -0.079100
C173 C 0.633400 0.989200 -0.037600
C174 C 0.554400 0.995300 -0.098100
C175 C 0.546500 0.886800 -0.153000
C176 C 0.617400 0.768900 -0.146900
C177 C 0.752600 0.380800 0.286800
C178 C 0.792800 0.250000 0.194200
C179 C 0.343000 0.364200 -0.125300
C180 C 0.415000 0.479100 -0.120500
C181 C 0.421400 0.593400 -0.068800
C182 C 0.356800 0.594200 -0.021600
C183 C 0.117400 0.231100 -0.146900
C184 C 0.046500 0.113200 -0.153000
C185 C 0.054400 0.004700 -0.098100
C186 C 0.133400 0.010800 -0.037600
C187 C 0.275700 0.363400 -0.079100
C188 C 0.284000 0.479600 -0.026000
C189 C 0.198200 0.239600 -0.086300
C190 C 0.206000 0.126300 -0.032000
C191 C 0.856800 0.405800 -0.021600
C192 C 0.921400 0.406600 -0.068800
C193 C 0.915000 0.520900 -0.120500
C194 C 0.843000 0.635800 -0.125300
C195 C 0.382600 0.268900 0.646900
C196 C 0.453500 0.386800 0.653000
C197 C 0.794000 0.873700 0.032000
C198 C 0.801800 0.760400 0.086300
C199 C 0.747400 0.119200 0.213200
C200 C 0.707200 0.250000 0.305800
C201 C 0.157000 0.364200 0.125300
C202 C 0.085000 0.479100 0.120500
C203 C 0.078600 0.593400 0.068800
C204 C 0.143200 0.594200 0.021600
C205 C 0.382600 0.231100 0.146900
C206 C 0.453500 0.113200 0.153000
C207 C 0.445600 0.004700 0.098100
C208 C 0.366600 0.010800 0.037600
C209 C 0.224300 0.363400 0.079100
C210 C 0.216000 0.479600 0.026000
C211 C 0.301800 0.239600 0.086300
C212 C 0.294000 0.126300 0.032000
C213 C 0.716000 0.520400 0.026000
C214 C 0.724300 0.636600 0.079100
C215 C 0.866600 0.989200 0.037600
C216 C 0.945600 0.995300 0.098100
C217 C 0.953500 0.886800 0.153000
C218 C 0.882600 0.768900 0.146900
C219 C 0.643200 0.405800 0.021600
C220 C 0.578600 0.406600 0.068800
C221 C 0.445600 0.495300 0.598100
C222 C 0.366600 0.489200 0.537600
C223 C 0.343000 0.364200 0.874700
C224 C 0.415000 0.479100 0.879500
C225 C 0.421400 0.593400 0.931200
C226 C 0.356800 0.594200 0.978400
C227 C 0.117400 0.231100 0.853100
C228 C 0.046500 0.113200 0.847000
C229 C 0.054400 0.004700 0.901900
C230 C 0.133400 0.010800 0.962400
C231 C 0.275700 0.363400 0.920900
C232 C 0.284000 0.479600 0.974000
C233 C 0.198200 0.239600 0.913700
C234 C 0.206000 0.126300 0.968000
C235 C 0.585000 0.520900 0.120500
C236 C 0.657000 0.635800 0.125300
C237 C 0.747400 0.380800 0.713200
C238 C 0.707200 0.250000 0.805800
C239 C 0.206000 0.373700 0.468000
C240 C 0.198200 0.260400 0.413700
C241 C 0.284000 0.020400 0.474000
C242 C 0.275700 0.136600 0.420900
C243 C 0.224300 0.136600 0.579100
C244 C 0.216000 0.020400 0.526000
C245 C 0.157000 0.364200 1.125300
C246 C 0.085000 0.479100 1.120500
C247 C 0.078600 0.593400 1.068800
C248 C 0.143200 0.594200 1.021600
C249 C 0.382600 0.231100 1.146900
C250 C 0.453500 0.113200 1.153000
C251 C 0.445600 0.004700 1.098100
C252 C 0.366600 0.010800 1.037600
C253 C 0.224300 0.363400 1.079100
C254 C 0.216000 0.479600 1.026000
C255 C 0.301800 0.239600 1.086300
C256 C 0.294000 0.126300 1.032000
C257 C 0.133400 0.489200 0.462400
C258 C 0.054400 0.495300 0.401900
C259 C 0.046500 0.386800 0.347000
C260 C 0.117400 0.268900 0.353100
C261 C 0.356800 -0.094200 0.478400
C262 C 0.421400 -0.093400 0.431200
C263 C 0.415000 0.020900 0.379500
C264 C 0.343000 0.135800 0.374700
C265 C 0.752600 0.119200 0.786800
C266 C 0.292800 0.750000 0.194200
C267 C 0.252600 0.619200 0.286800
C268 C 0.792800 0.250000 0.694200
C269 C 0.301800 0.260400 0.586300
C270 C 0.294000 0.373700 0.532000
C271 C 0.207200 0.750000 0.305800
C272 C 0.247400 0.880800 0.213200
N273 N 0.203800 0.883000 0.269800
N274 N 0.203800 0.617000 0.769800
N275 N 0.796200 0.117000 0.730200
N276 N 0.796200 0.383000 0.230200
N277 N 0.296200 0.617000 0.230200
N278 N 0.296200 0.883000 0.730200
N279 N 0.703800 0.117000 0.269800
N280 N 0.703800 0.383000 0.769800
O281 O 0.667340 0.756250 0.173860
O282 O 0.897620 0.663150 0.202700
O283 O 0.102380 0.336850 0.797300
O284 O 0.332660 0.243750 0.826140
O285 O 0.167340 0.243750 1.173860
O286 O 0.397620 0.336850 0.202700
O287 O 0.397620 0.336850 1.202700
O288 O 0.832660 0.756250 -0.173860
O289 O 0.602380 0.663150 -0.202700
O290 O 0.102380 0.163150 0.297300
O291 O 0.102380 0.336850 -0.202700
O292 O 0.332660 0.243750 -0.173860
O293 O 0.897620 0.836850 0.702700
O294 O 0.667340 0.743750 0.673860
O295 O 0.332660 0.256250 0.326140
O296 O 0.667340 0.756250 1.173860
O297 O 0.897620 0.663150 1.202700
O298 O 0.602380 0.836850 0.297300
O299 O 0.832660 0.743750 0.326140
O300 O 0.167340 0.243750 0.173860
O301 O 0.832660 0.756250 0.826140
O302 O 0.602380 0.663150 0.797300
O303 O 0.397620 0.163150 0.702700
O304 O 0.167340 0.256250 0.673860

#END
