
#######################################################################
#
#                 Cambridge Crystallographic Data Centre
#                                CCDC 
#
#######################################################################
#
# If this CIF has been generated from an entry in the Cambridge 
# Structural Database, then it will include bibliographic, chemical, 
# crystal, experimental, refinement or atomic coordinate data resulting 
# from the CCDC's data processing and validation procedures.
#
#######################################################################

data_MARHOE
_symmetry_cell_setting           monoclinic
_symmetry_space_group_name_H-M   'P 21/c'
_symmetry_Int_Tables_number      14
_space_group_name_Hall           '-P 2ybc'
loop_
_symmetry_equiv_pos_site_id
_symmetry_equiv_pos_as_xyz
1 x,y,z
2 -x,1/2+y,1/2-z
3 -x,-y,-z
4 x,1/2-y,1/2+z
_cell_length_a                   6.4897(14)
_cell_length_b                   19.302(5)
_cell_length_c                   12.454(2)
_cell_angle_alpha                90
_cell_angle_beta                 99.848(19)
_cell_angle_gamma                90
_cell_volume                     1537.05
loop_
_atom_site_label
_atom_site_type_symbol
_atom_site_fract_x
_atom_site_fract_y
_atom_site_fract_z
C1 C 0.0216(4) 0.43258(14) 0.1125(2)
H1 H 0.1579 0.4410 0.1472
C2 C -0.0611(4) 0.47224(11) 0.0214(2)
C3 C -0.2960(4) 0.36706(12) 0.1053(2)
C4 C -0.5297(5) 0.22186(16) 0.2599(2)
C5 C -0.4261(4) 0.31343(14) 0.1451(3)
H2 H -0.5602 0.3089 0.1051
C6 C -0.5315(5) 0.15270(17) 0.2233(2)
C7 C -0.6863(5) 0.10544(17) 0.2472(3)
C8 C -0.2642(4) 0.45686(14) -0.0258(2)
H3 H -0.3258 0.4816 -0.0870
C9 C -0.0923(4) 0.38140(14) 0.1525(2)
H4 H -0.0304 0.3559 0.2128
C10 C -0.6701(5) 0.24248(16) 0.3280(3)
C11 C -0.8253(5) 0.19416(18) 0.3520(3)
C12 C -0.3785(4) 0.40611(15) 0.0146(3)
H5 H -0.5150 0.3977 -0.0198
C13 C -0.3834(5) 0.27273(18) 0.2249(3)
H6 H -0.2490 0.2748 0.2653
C14 C -0.8312(5) 0.12809(18) 0.3090(3)
H7 H -0.9359 0.0979 0.3220
C15 C -0.6644(6) 0.3090(2) 0.3761(3)
H8 H -0.5667 0.3411 0.3607
C16 C -0.3803(8) 0.0597(3) 0.1321(3)
H9 H -0.2762 0.0438 0.0954
C17 C -0.9629(6) 0.2158(2) 0.4223(3)
H10 H -1.0640 0.1851 0.4381
C18 C -0.6845(7) 0.03604(19) 0.2096(3)
H11 H -0.7874 0.0054 0.2237
C19 C -0.9517(7) 0.2793(3) 0.4667(3)
H12 H -1.0446 0.2922 0.5122
C20 C -0.7972(8) 0.3271(2) 0.4440(4)
H13 H -0.7878 0.3708 0.4759
C21 C -0.3795(6) 0.1264(2) 0.1638(3)
H14 H -0.2771 0.1561 0.1464
C22 C -0.5366(9) 0.0136(2) 0.1538(4)
H15 H -0.5377 -0.0320 0.1298
C1B C -0.0216(4) 0.56742(14) -0.1125(2)
H1B H -0.1579 0.5590 -0.1472
C2B C 0.0611(4) 0.52776(11) -0.0214(2)
C3B C 0.2960(4) 0.63294(12) -0.1053(2)
C4B C 0.5297(5) 0.77814(16) -0.2599(2)
C5B C 0.4261(4) 0.68657(14) -0.1451(3)
H2B H 0.5602 0.6911 -0.1051
C6B C 0.5315(5) 0.84730(17) -0.2233(2)
C7B C 0.6863(5) 0.89456(17) -0.2472(3)
C8B C 0.2642(4) 0.54314(14) 0.0258(2)
H3B H 0.3258 0.5184 0.0870
C9B C 0.0923(4) 0.61860(14) -0.1525(2)
H4B H 0.0304 0.6441 -0.2128
C10B C 0.6701(5) 0.75752(16) -0.3280(3)
C11B C 0.8253(5) 0.80584(18) -0.3520(3)
C12B C 0.3785(4) 0.59389(15) -0.0146(3)
H5B H 0.5150 0.6023 0.0198
C13B C 0.3834(5) 0.72727(18) -0.2249(3)
H6B H 0.2490 0.7252 -0.2653
C14B C 0.8312(5) 0.87191(18) -0.3090(3)
H7B H 0.9359 0.9021 -0.3220
C15B C 0.6644(6) 0.6910(2) -0.3761(3)
H8B H 0.5667 0.6589 -0.3607
C16B C 0.3803(8) 0.9403(3) -0.1321(3)
H9B H 0.2762 0.9562 -0.0954
C17B C 0.9629(6) 0.7842(2) -0.4223(3)
H10B H 1.0640 0.8149 -0.4381
C18B C 0.6845(7) 0.96396(19) -0.2096(3)
H11B H 0.7874 0.9946 -0.2237
C19B C 0.9517(7) 0.7207(3) -0.4667(3)
H12B H 1.0446 0.7078 -0.5122
C20B C 0.7972(8) 0.6729(2) -0.4440(4)
H13B H 0.7878 0.6292 -0.4759
C21B C 0.3795(6) 0.8736(2) -0.1638(3)
H14B H 0.2771 0.8439 -0.1464
C22B C 0.5366(9) 0.9864(2) -0.1538(4)
H15B H 0.5377 1.0320 -0.1298
C1 C 0.0216(4) 0.43258(14) 1.1125(2)
H1 H 0.1579 0.4410 1.1472
C2 C -0.0611(4) 0.47224(11) 1.0214(2)
C3 C -0.2960(4) 0.36706(12) 1.1053(2)
C4 C -0.5297(5) 0.22186(16) 1.2599(2)
C5 C -0.4261(4) 0.31343(14) 1.1451(3)
H2 H -0.5602 0.3089 1.1051
C6 C -0.5315(5) 0.15270(17) 1.2233(2)
C7 C -0.6863(5) 0.10544(17) 1.2472(3)
C8 C -0.2642(4) 0.45686(14) 0.9742(2)
H3 H -0.3258 0.4816 0.9130
C9 C -0.0923(4) 0.38140(14) 1.1525(2)
H4 H -0.0304 0.3559 1.2128
C10 C -0.6701(5) 0.24248(16) 1.3280(3)
C11 C -0.8253(5) 0.19416(18) 1.3520(3)
C12 C -0.3785(4) 0.40611(15) 1.0146(3)
H5 H -0.5150 0.3977 0.9802
C13 C -0.3834(5) 0.27273(18) 1.2249(3)
H6 H -0.2490 0.2748 1.2653
C14 C -0.8312(5) 0.12809(18) 1.3090(3)
H7 H -0.9359 0.0979 1.3220
C15 C -0.6644(6) 0.3090(2) 1.3761(3)
H8 H -0.5667 0.3411 1.3607
C16 C -0.3803(8) 0.0597(3) 1.1321(3)
H9 H -0.2762 0.0438 1.0954
C17 C -0.9629(6) 0.2158(2) 1.4223(3)
H10 H -1.0640 0.1851 1.4381
C18 C -0.6845(7) 0.03604(19) 1.2096(3)
H11 H -0.7874 0.0054 1.2237
C19 C -0.9517(7) 0.2793(3) 1.4667(3)
H12 H -1.0446 0.2922 1.5122
C20 C -0.7972(8) 0.3271(2) 1.4440(4)
H13 H -0.7878 0.3708 1.4759
C21 C -0.3795(6) 0.1264(2) 1.1638(3)
H14 H -0.2771 0.1561 1.1464
C22 C -0.5366(9) 0.0136(2) 1.1538(4)
H15 H -0.5377 -0.0320 1.1298
C1B C -0.0216(4) 0.56742(14) 0.8875(2)
H1B H -0.1579 0.5590 0.8528
C2B C 0.0611(4) 0.52776(11) 0.9786(2)
C3B C 0.2960(4) 0.63294(12) 0.8947(2)
C4B C 0.5297(5) 0.77814(16) 0.7401(2)
C5B C 0.4261(4) 0.68657(14) 0.8549(3)
H2B H 0.5602 0.6911 0.8949
C6B C 0.5315(5) 0.84730(17) 0.7767(2)
C7B C 0.6863(5) 0.89456(17) 0.7528(3)
C8B C 0.2642(4) 0.54314(14) 1.0258(2)
H3B H 0.3258 0.5184 1.0870
C9B C 0.0923(4) 0.61860(14) 0.8475(2)
H4B H 0.0304 0.6441 0.7872
C10B C 0.6701(5) 0.75752(16) 0.6720(3)
C11B C 0.8253(5) 0.80584(18) 0.6480(3)
C12B C 0.3785(4) 0.59389(15) 0.9854(3)
H5B H 0.5150 0.6023 1.0198
C13B C 0.3834(5) 0.72727(18) 0.7751(3)
H6B H 0.2490 0.7252 0.7347
C14B C 0.8312(5) 0.87191(18) 0.6910(3)
H7B H 0.9359 0.9021 0.6780
C15B C 0.6644(6) 0.6910(2) 0.6239(3)
H8B H 0.5667 0.6589 0.6393
C16B C 0.3803(8) 0.9403(3) 0.8679(3)
H9B H 0.2762 0.9562 0.9046
C17B C 0.9629(6) 0.7842(2) 0.5777(3)
H10B H 1.0640 0.8149 0.5619
C18B C 0.6845(7) 0.96396(19) 0.7904(3)
H11B H 0.7874 0.9946 0.7763
C19B C 0.9517(7) 0.7207(3) 0.5333(3)
H12B H 1.0446 0.7078 0.4878
C20B C 0.7972(8) 0.6729(2) 0.5560(4)
H13B H 0.7878 0.6292 0.5241
C21B C 0.3795(6) 0.8736(2) 0.8362(3)
H14B H 0.2771 0.8439 0.8536
C22B C 0.5366(9) 0.9864(2) 0.8462(4)
H15B H 0.5377 1.0320 0.8702
C1 C 1.0216(4) 0.43258(14) 0.1125(2)
H1 H 1.1579 0.4410 0.1472
C2 C 0.9389(4) 0.47224(11) 0.0214(2)
C3 C 0.7040(4) 0.36706(12) 0.1053(2)
C4 C 0.4703(5) 0.22186(16) 0.2599(2)
C5 C 0.5739(4) 0.31343(14) 0.1451(3)
H2 H 0.4398 0.3089 0.1051
C6 C 0.4685(5) 0.15270(17) 0.2233(2)
C7 C 0.3137(5) 0.10544(17) 0.2472(3)
C8 C 0.7358(4) 0.45686(14) -0.0258(2)
H3 H 0.6742 0.4816 -0.0870
C9 C 0.9077(4) 0.38140(14) 0.1525(2)
H4 H 0.9696 0.3559 0.2128
C10 C 0.3299(5) 0.24248(16) 0.3280(3)
C11 C 0.1747(5) 0.19416(18) 0.3520(3)
C12 C 0.6215(4) 0.40611(15) 0.0146(3)
H5 H 0.4850 0.3977 -0.0198
C13 C 0.6166(5) 0.27273(18) 0.2249(3)
H6 H 0.7510 0.2748 0.2653
C14 C 0.1688(5) 0.12809(18) 0.3090(3)
H7 H 0.0641 0.0979 0.3220
C15 C 0.3356(6) 0.3090(2) 0.3761(3)
H8 H 0.4333 0.3411 0.3607
C16 C 0.6197(8) 0.0597(3) 0.1321(3)
H9 H 0.7238 0.0438 0.0954
C17 C 0.0371(6) 0.2158(2) 0.4223(3)
H10 H -0.0640 0.1851 0.4381
C18 C 0.3155(7) 0.03604(19) 0.2096(3)
H11 H 0.2126 0.0054 0.2237
C19 C 0.0483(7) 0.2793(3) 0.4667(3)
H12 H -0.0446 0.2922 0.5122
C20 C 0.2028(8) 0.3271(2) 0.4440(4)
H13 H 0.2122 0.3708 0.4759
C21 C 0.6205(6) 0.1264(2) 0.1638(3)
H14 H 0.7229 0.1561 0.1464
C22 C 0.4634(9) 0.0136(2) 0.1538(4)
H15 H 0.4623 -0.0320 0.1298
C1B C 0.9784(4) 0.56742(14) -0.1125(2)
H1B H 0.8421 0.5590 -0.1472
C2B C 1.0611(4) 0.52776(11) -0.0214(2)
C3B C 1.2960(4) 0.63294(12) -0.1053(2)
C4B C 1.5297(5) 0.77814(16) -0.2599(2)
C5B C 1.4261(4) 0.68657(14) -0.1451(3)
H2B H 1.5602 0.6911 -0.1051
C6B C 1.5315(5) 0.84730(17) -0.2233(2)
C7B C 1.6863(5) 0.89456(17) -0.2472(3)
C8B C 1.2642(4) 0.54314(14) 0.0258(2)
H3B H 1.3258 0.5184 0.0870
C9B C 1.0923(4) 0.61860(14) -0.1525(2)
H4B H 1.0304 0.6441 -0.2128
C10B C 1.6701(5) 0.75752(16) -0.3280(3)
C11B C 1.8253(5) 0.80584(18) -0.3520(3)
C12B C 1.3785(4) 0.59389(15) -0.0146(3)
H5B H 1.5150 0.6023 0.0198
C13B C 1.3834(5) 0.72727(18) -0.2249(3)
H6B H 1.2490 0.7252 -0.2653
C14B C 1.8312(5) 0.87191(18) -0.3090(3)
H7B H 1.9359 0.9021 -0.3220
C15B C 1.6644(6) 0.6910(2) -0.3761(3)
H8B H 1.5667 0.6589 -0.3607
C16B C 1.3803(8) 0.9403(3) -0.1321(3)
H9B H 1.2762 0.9562 -0.0954
C17B C 1.9629(6) 0.7842(2) -0.4223(3)
H10B H 2.0640 0.8149 -0.4381
C18B C 1.6845(7) 0.96396(19) -0.2096(3)
H11B H 1.7874 0.9946 -0.2237
C19B C 1.9517(7) 0.7207(3) -0.4667(3)
H12B H 2.0446 0.7078 -0.5122
C20B C 1.7972(8) 0.6729(2) -0.4440(4)
H13B H 1.7878 0.6292 -0.4759
C21B C 1.3795(6) 0.8736(2) -0.1638(3)
H14B H 1.2771 0.8439 -0.1464
C22B C 1.5366(9) 0.9864(2) -0.1538(4)
H15B H 1.5377 1.0320 -0.1298
C1 C 1.0216(4) 0.43258(14) 1.1125(2)
H1 H 1.1579 0.4410 1.1472
C2 C 0.9389(4) 0.47224(11) 1.0214(2)
C3 C 0.7040(4) 0.36706(12) 1.1053(2)
C4 C 0.4703(5) 0.22186(16) 1.2599(2)
C5 C 0.5739(4) 0.31343(14) 1.1451(3)
H2 H 0.4398 0.3089 1.1051
C6 C 0.4685(5) 0.15270(17) 1.2233(2)
C7 C 0.3137(5) 0.10544(17) 1.2472(3)
C8 C 0.7358(4) 0.45686(14) 0.9742(2)
H3 H 0.6742 0.4816 0.9130
C9 C 0.9077(4) 0.38140(14) 1.1525(2)
H4 H 0.9696 0.3559 1.2128
C10 C 0.3299(5) 0.24248(16) 1.3280(3)
C11 C 0.1747(5) 0.19416(18) 1.3520(3)
C12 C 0.6215(4) 0.40611(15) 1.0146(3)
H5 H 0.4850 0.3977 0.9802
C13 C 0.6166(5) 0.27273(18) 1.2249(3)
H6 H 0.7510 0.2748 1.2653
C14 C 0.1688(5) 0.12809(18) 1.3090(3)
H7 H 0.0641 0.0979 1.3220
C15 C 0.3356(6) 0.3090(2) 1.3761(3)
H8 H 0.4333 0.3411 1.3607
C16 C 0.6197(8) 0.0597(3) 1.1321(3)
H9 H 0.7238 0.0438 1.0954
C17 C 0.0371(6) 0.2158(2) 1.4223(3)
H10 H -0.0640 0.1851 1.4381
C18 C 0.3155(7) 0.03604(19) 1.2096(3)
H11 H 0.2126 0.0054 1.2237
C19 C 0.0483(7) 0.2793(3) 1.4667(3)
H12 H -0.0446 0.2922 1.5122
C20 C 0.2028(8) 0.3271(2) 1.4440(4)
H13 H 0.2122 0.3708 1.4759
C21 C 0.6205(6) 0.1264(2) 1.1638(3)
H14 H 0.7229 0.1561 1.1464
C22 C 0.4634(9) 0.0136(2) 1.1538(4)
H15 H 0.4623 -0.0320 1.1298
C1B C 0.9784(4) 0.56742(14) 0.8875(2)
H1B H 0.8421 0.5590 0.8528
C2B C 1.0611(4) 0.52776(11) 0.9786(2)
C3B C 1.2960(4) 0.63294(12) 0.8947(2)
C4B C 1.5297(5) 0.77814(16) 0.7401(2)
C5B C 1.4261(4) 0.68657(14) 0.8549(3)
H2B H 1.5602 0.6911 0.8949
C6B C 1.5315(5) 0.84730(17) 0.7767(2)
C7B C 1.6863(5) 0.89456(17) 0.7528(3)
C8B C 1.2642(4) 0.54314(14) 1.0258(2)
H3B H 1.3258 0.5184 1.0870
C9B C 1.0923(4) 0.61860(14) 0.8475(2)
H4B H 1.0304 0.6441 0.7872
C10B C 1.6701(5) 0.75752(16) 0.6720(3)
C11B C 1.8253(5) 0.80584(18) 0.6480(3)
C12B C 1.3785(4) 0.59389(15) 0.9854(3)
H5B H 1.5150 0.6023 1.0198
C13B C 1.3834(5) 0.72727(18) 0.7751(3)
H6B H 1.2490 0.7252 0.7347
C14B C 1.8312(5) 0.87191(18) 0.6910(3)
H7B H 1.9359 0.9021 0.6780
C15B C 1.6644(6) 0.6910(2) 0.6239(3)
H8B H 1.5667 0.6589 0.6393
C16B C 1.3803(8) 0.9403(3) 0.8679(3)
H9B H 1.2762 0.9562 0.9046
C17B C 1.9629(6) 0.7842(2) 0.5777(3)
H10B H 2.0640 0.8149 0.5619
C18B C 1.6845(7) 0.96396(19) 0.7904(3)
H11B H 1.7874 0.9946 0.7763
C19B C 1.9517(7) 0.7207(3) 0.5333(3)
H12B H 2.0446 0.7078 0.4878
C20B C 1.7972(8) 0.6729(2) 0.5560(4)
H13B H 1.7878 0.6292 0.5241
C21B C 1.3795(6) 0.8736(2) 0.8362(3)
H14B H 1.2771 0.8439 0.8536
C22B C 1.5366(9) 0.9864(2) 0.8462(4)
H15B H 1.5377 1.0320 0.8702
C1 C -0.0216(4) -0.06742(14) 0.3875(2)
H1 H -0.1579 -0.0590 0.3528
C2 C 0.0611(4) -0.02776(11) 0.4786(2)
C3 C 0.2960(4) -0.13294(12) 0.3947(2)
C4 C 0.5297(5) -0.27814(16) 0.2401(2)
C5 C 0.4261(4) -0.18657(14) 0.3549(3)
H2 H 0.5602 -0.1911 0.3949
C6 C 0.5315(5) -0.34730(17) 0.2767(2)
C7 C 0.6863(5) -0.39456(17) 0.2528(3)
C8 C 0.2642(4) -0.04314(14) 0.5258(2)
H3 H 0.3258 -0.0184 0.5870
C9 C 0.0923(4) -0.11860(14) 0.3475(2)
H4 H 0.0304 -0.1441 0.2872
C10 C 0.6701(5) -0.25752(16) 0.1720(3)
C11 C 0.8253(5) -0.30584(18) 0.1480(3)
C12 C 0.3785(4) -0.09389(15) 0.4854(3)
H5 H 0.5150 -0.1023 0.5198
C13 C 0.3834(5) -0.22727(18) 0.2751(3)
H6 H 0.2490 -0.2252 0.2347
C14 C 0.8312(5) -0.37191(18) 0.1910(3)
H7 H 0.9359 -0.4021 0.1780
C15 C 0.6644(6) -0.1910(2) 0.1239(3)
H8 H 0.5667 -0.1589 0.1393
C16 C 0.3803(8) -0.4403(3) 0.3679(3)
H9 H 0.2762 -0.4562 0.4046
C17 C 0.9629(6) -0.2842(2) 0.0777(3)
H10 H 1.0640 -0.3149 0.0619
C18 C 0.6845(7) -0.46396(19) 0.2904(3)
H11 H 0.7874 -0.4946 0.2763
C19 C 0.9517(7) -0.2207(3) 0.0333(3)
H12 H 1.0446 -0.2078 -0.0122
C20 C 0.7972(8) -0.1729(2) 0.0560(4)
H13 H 0.7878 -0.1292 0.0241
C21 C 0.3795(6) -0.3736(2) 0.3362(3)
H14 H 0.2771 -0.3439 0.3536
C22 C 0.5366(9) -0.4864(2) 0.3462(4)
H15 H 0.5377 -0.5320 0.3702
C1B C 0.0216(4) 0.06742(14) 0.6125(2)
H1B H 0.1579 0.0590 0.6472
C2B C -0.0611(4) 0.02776(11) 0.5214(2)
C3B C -0.2960(4) 0.13294(12) 0.6053(2)
C4B C -0.5297(5) 0.27814(16) 0.7599(2)
C5B C -0.4261(4) 0.18657(14) 0.6451(3)
H2B H -0.5602 0.1911 0.6051
C6B C -0.5315(5) 0.34730(17) 0.7233(2)
C7B C -0.6863(5) 0.39456(17) 0.7472(3)
C8B C -0.2642(4) 0.04314(14) 0.4742(2)
H3B H -0.3258 0.0184 0.4130
C9B C -0.0923(4) 0.11860(14) 0.6525(2)
H4B H -0.0304 0.1441 0.7128
C10B C -0.6701(5) 0.25752(16) 0.8280(3)
C11B C -0.8253(5) 0.30584(18) 0.8520(3)
C12B C -0.3785(4) 0.09389(15) 0.5146(3)
H5B H -0.5150 0.1023 0.4802
C13B C -0.3834(5) 0.22727(18) 0.7249(3)
H6B H -0.2490 0.2252 0.7653
C14B C -0.8312(5) 0.37191(18) 0.8090(3)
H7B H -0.9359 0.4021 0.8220
C15B C -0.6644(6) 0.1910(2) 0.8761(3)
H8B H -0.5667 0.1589 0.8607
C16B C -0.3803(8) 0.4403(3) 0.6321(3)
H9B H -0.2762 0.4562 0.5954
C17B C -0.9629(6) 0.2842(2) 0.9223(3)
H10B H -1.0640 0.3149 0.9381
C18B C -0.6845(7) 0.46396(19) 0.7096(3)
H11B H -0.7874 0.4946 0.7237
C19B C -0.9517(7) 0.2207(3) 0.9667(3)
H12B H -1.0446 0.2078 1.0122
C20B C -0.7972(8) 0.1729(2) 0.9440(4)
H13B H -0.7878 0.1292 0.9759
C21B C -0.3795(6) 0.3736(2) 0.6638(3)
H14B H -0.2771 0.3439 0.6464
C22B C -0.5366(9) 0.4864(2) 0.6538(4)
H15B H -0.5377 0.5320 0.6298
C1 C -0.0216(4) 0.93258(14) 0.3875(2)
H1 H -0.1579 0.9410 0.3528
C2 C 0.0611(4) 0.97224(11) 0.4786(2)
C3 C 0.2960(4) 0.86706(12) 0.3947(2)
C4 C 0.5297(5) 0.72186(16) 0.2401(2)
C5 C 0.4261(4) 0.81343(14) 0.3549(3)
H2 H 0.5602 0.8089 0.3949
C6 C 0.5315(5) 0.65270(17) 0.2767(2)
C7 C 0.6863(5) 0.60544(17) 0.2528(3)
C8 C 0.2642(4) 0.95686(14) 0.5258(2)
H3 H 0.3258 0.9816 0.5870
C9 C 0.0923(4) 0.88140(14) 0.3475(2)
H4 H 0.0304 0.8559 0.2872
C10 C 0.6701(5) 0.74248(16) 0.1720(3)
C11 C 0.8253(5) 0.69416(18) 0.1480(3)
C12 C 0.3785(4) 0.90611(15) 0.4854(3)
H5 H 0.5150 0.8977 0.5198
C13 C 0.3834(5) 0.77273(18) 0.2751(3)
H6 H 0.2490 0.7748 0.2347
C14 C 0.8312(5) 0.62809(18) 0.1910(3)
H7 H 0.9359 0.5979 0.1780
C15 C 0.6644(6) 0.8090(2) 0.1239(3)
H8 H 0.5667 0.8411 0.1393
C16 C 0.3803(8) 0.5597(3) 0.3679(3)
H9 H 0.2762 0.5438 0.4046
C17 C 0.9629(6) 0.7158(2) 0.0777(3)
H10 H 1.0640 0.6851 0.0619
C18 C 0.6845(7) 0.53604(19) 0.2904(3)
H11 H 0.7874 0.5054 0.2763
C19 C 0.9517(7) 0.7793(3) 0.0333(3)
H12 H 1.0446 0.7922 -0.0122
C20 C 0.7972(8) 0.8271(2) 0.0560(4)
H13 H 0.7878 0.8708 0.0241
C21 C 0.3795(6) 0.6264(2) 0.3362(3)
H14 H 0.2771 0.6561 0.3536
C22 C 0.5366(9) 0.5136(2) 0.3462(4)
H15 H 0.5377 0.4680 0.3702
C1B C 0.0216(4) 1.06742(14) 0.6125(2)
H1B H 0.1579 1.0590 0.6472
C2B C -0.0611(4) 1.02776(11) 0.5214(2)
C3B C -0.2960(4) 1.13294(12) 0.6053(2)
C4B C -0.5297(5) 1.27814(16) 0.7599(2)
C5B C -0.4261(4) 1.18657(14) 0.6451(3)
H2B H -0.5602 1.1911 0.6051
C6B C -0.5315(5) 1.34730(17) 0.7233(2)
C7B C -0.6863(5) 1.39456(17) 0.7472(3)
C8B C -0.2642(4) 1.04314(14) 0.4742(2)
H3B H -0.3258 1.0184 0.4130
C9B C -0.0923(4) 1.11860(14) 0.6525(2)
H4B H -0.0304 1.1441 0.7128
C10B C -0.6701(5) 1.25752(16) 0.8280(3)
C11B C -0.8253(5) 1.30584(18) 0.8520(3)
C12B C -0.3785(4) 1.09389(15) 0.5146(3)
H5B H -0.5150 1.1023 0.4802
C13B C -0.3834(5) 1.22727(18) 0.7249(3)
H6B H -0.2490 1.2252 0.7653
C14B C -0.8312(5) 1.37191(18) 0.8090(3)
H7B H -0.9359 1.4021 0.8220
C15B C -0.6644(6) 1.1910(2) 0.8761(3)
H8B H -0.5667 1.1589 0.8607
C16B C -0.3803(8) 1.4403(3) 0.6321(3)
H9B H -0.2762 1.4562 0.5954
C17B C -0.9629(6) 1.2842(2) 0.9223(3)
H10B H -1.0640 1.3149 0.9381
C18B C -0.6845(7) 1.46396(19) 0.7096(3)
H11B H -0.7874 1.4946 0.7237
C19B C -0.9517(7) 1.2207(3) 0.9667(3)
H12B H -1.0446 1.2078 1.0122
C20B C -0.7972(8) 1.1729(2) 0.9440(4)
H13B H -0.7878 1.1292 0.9759
C21B C -0.3795(6) 1.3736(2) 0.6638(3)
H14B H -0.2771 1.3439 0.6464
C22B C -0.5366(9) 1.4864(2) 0.6538(4)
H15B H -0.5377 1.5320 0.6298
C1 C 0.9784(4) -0.06742(14) 0.3875(2)
H1 H 0.8421 -0.0590 0.3528
C2 C 1.0611(4) -0.02776(11) 0.4786(2)
C3 C 1.2960(4) -0.13294(12) 0.3947(2)
C4 C 1.5297(5) -0.27814(16) 0.2401(2)
C5 C 1.4261(4) -0.18657(14) 0.3549(3)
H2 H 1.5602 -0.1911 0.3949
C6 C 1.5315(5) -0.34730(17) 0.2767(2)
C7 C 1.6863(5) -0.39456(17) 0.2528(3)
C8 C 1.2642(4) -0.04314(14) 0.5258(2)
H3 H 1.3258 -0.0184 0.5870
C9 C 1.0923(4) -0.11860(14) 0.3475(2)
H4 H 1.0304 -0.1441 0.2872
C10 C 1.6701(5) -0.25752(16) 0.1720(3)
C11 C 1.8253(5) -0.30584(18) 0.1480(3)
C12 C 1.3785(4) -0.09389(15) 0.4854(3)
H5 H 1.5150 -0.1023 0.5198
C13 C 1.3834(5) -0.22727(18) 0.2751(3)
H6 H 1.2490 -0.2252 0.2347
C14 C 1.8312(5) -0.37191(18) 0.1910(3)
H7 H 1.9359 -0.4021 0.1780
C15 C 1.6644(6) -0.1910(2) 0.1239(3)
H8 H 1.5667 -0.1589 0.1393
C16 C 1.3803(8) -0.4403(3) 0.3679(3)
H9 H 1.2762 -0.4562 0.4046
C17 C 1.9629(6) -0.2842(2) 0.0777(3)
H10 H 2.0640 -0.3149 0.0619
C18 C 1.6845(7) -0.46396(19) 0.2904(3)
H11 H 1.7874 -0.4946 0.2763
C19 C 1.9517(7) -0.2207(3) 0.0333(3)
H12 H 2.0446 -0.2078 -0.0122
C20 C 1.7972(8) -0.1729(2) 0.0560(4)
H13 H 1.7878 -0.1292 0.0241
C21 C 1.3795(6) -0.3736(2) 0.3362(3)
H14 H 1.2771 -0.3439 0.3536
C22 C 1.5366(9) -0.4864(2) 0.3462(4)
H15 H 1.5377 -0.5320 0.3702
C1B C 1.0216(4) 0.06742(14) 0.6125(2)
H1B H 1.1579 0.0590 0.6472
C2B C 0.9389(4) 0.02776(11) 0.5214(2)
C3B C 0.7040(4) 0.13294(12) 0.6053(2)
C4B C 0.4703(5) 0.27814(16) 0.7599(2)
C5B C 0.5739(4) 0.18657(14) 0.6451(3)
H2B H 0.4398 0.1911 0.6051
C6B C 0.4685(5) 0.34730(17) 0.7233(2)
C7B C 0.3137(5) 0.39456(17) 0.7472(3)
C8B C 0.7358(4) 0.04314(14) 0.4742(2)
H3B H 0.6742 0.0184 0.4130
C9B C 0.9077(4) 0.11860(14) 0.6525(2)
H4B H 0.9696 0.1441 0.7128
C10B C 0.3299(5) 0.25752(16) 0.8280(3)
C11B C 0.1747(5) 0.30584(18) 0.8520(3)
C12B C 0.6215(4) 0.09389(15) 0.5146(3)
H5B H 0.4850 0.1023 0.4802
C13B C 0.6166(5) 0.22727(18) 0.7249(3)
H6B H 0.7510 0.2252 0.7653
C14B C 0.1688(5) 0.37191(18) 0.8090(3)
H7B H 0.0641 0.4021 0.8220
C15B C 0.3356(6) 0.1910(2) 0.8761(3)
H8B H 0.4333 0.1589 0.8607
C16B C 0.6197(8) 0.4403(3) 0.6321(3)
H9B H 0.7238 0.4562 0.5954
C17B C 0.0371(6) 0.2842(2) 0.9223(3)
H10B H -0.0640 0.3149 0.9381
C18B C 0.3155(7) 0.46396(19) 0.7096(3)
H11B H 0.2126 0.4946 0.7237
C19B C 0.0483(7) 0.2207(3) 0.9667(3)
H12B H -0.0446 0.2078 1.0122
C20B C 0.2028(8) 0.1729(2) 0.9440(4)
H13B H 0.2122 0.1292 0.9759
C21B C 0.6205(6) 0.3736(2) 0.6638(3)
H14B H 0.7229 0.3439 0.6464
C22B C 0.4634(9) 0.4864(2) 0.6538(4)
H15B H 0.4623 0.5320 0.6298
C1 C 0.9784(4) 0.93258(14) 0.3875(2)
H1 H 0.8421 0.9410 0.3528
C2 C 1.0611(4) 0.97224(11) 0.4786(2)
C3 C 1.2960(4) 0.86706(12) 0.3947(2)
C4 C 1.5297(5) 0.72186(16) 0.2401(2)
C5 C 1.4261(4) 0.81343(14) 0.3549(3)
H2 H 1.5602 0.8089 0.3949
C6 C 1.5315(5) 0.65270(17) 0.2767(2)
C7 C 1.6863(5) 0.60544(17) 0.2528(3)
C8 C 1.2642(4) 0.95686(14) 0.5258(2)
H3 H 1.3258 0.9816 0.5870
C9 C 1.0923(4) 0.88140(14) 0.3475(2)
H4 H 1.0304 0.8559 0.2872
C10 C 1.6701(5) 0.74248(16) 0.1720(3)
C11 C 1.8253(5) 0.69416(18) 0.1480(3)
C12 C 1.3785(4) 0.90611(15) 0.4854(3)
H5 H 1.5150 0.8977 0.5198
C13 C 1.3834(5) 0.77273(18) 0.2751(3)
H6 H 1.2490 0.7748 0.2347
C14 C 1.8312(5) 0.62809(18) 0.1910(3)
H7 H 1.9359 0.5979 0.1780
C15 C 1.6644(6) 0.8090(2) 0.1239(3)
H8 H 1.5667 0.8411 0.1393
C16 C 1.3803(8) 0.5597(3) 0.3679(3)
H9 H 1.2762 0.5438 0.4046
C17 C 1.9629(6) 0.7158(2) 0.0777(3)
H10 H 2.0640 0.6851 0.0619
C18 C 1.6845(7) 0.53604(19) 0.2904(3)
H11 H 1.7874 0.5054 0.2763
C19 C 1.9517(7) 0.7793(3) 0.0333(3)
H12 H 2.0446 0.7922 -0.0122
C20 C 1.7972(8) 0.8271(2) 0.0560(4)
H13 H 1.7878 0.8708 0.0241
C21 C 1.3795(6) 0.6264(2) 0.3362(3)
H14 H 1.2771 0.6561 0.3536
C22 C 1.5366(9) 0.5136(2) 0.3462(4)
H15 H 1.5377 0.4680 0.3702
C1B C 1.0216(4) 1.06742(14) 0.6125(2)
H1B H 1.1579 1.0590 0.6472
C2B C 0.9389(4) 1.02776(11) 0.5214(2)
C3B C 0.7040(4) 1.13294(12) 0.6053(2)
C4B C 0.4703(5) 1.27814(16) 0.7599(2)
C5B C 0.5739(4) 1.18657(14) 0.6451(3)
H2B H 0.4398 1.1911 0.6051
C6B C 0.4685(5) 1.34730(17) 0.7233(2)
C7B C 0.3137(5) 1.39456(17) 0.7472(3)
C8B C 0.7358(4) 1.04314(14) 0.4742(2)
H3B H 0.6742 1.0184 0.4130
C9B C 0.9077(4) 1.11860(14) 0.6525(2)
H4B H 0.9696 1.1441 0.7128
C10B C 0.3299(5) 1.25752(16) 0.8280(3)
C11B C 0.1747(5) 1.30584(18) 0.8520(3)
C12B C 0.6215(4) 1.09389(15) 0.5146(3)
H5B H 0.4850 1.1023 0.4802
C13B C 0.6166(5) 1.22727(18) 0.7249(3)
H6B H 0.7510 1.2252 0.7653
C14B C 0.1688(5) 1.37191(18) 0.8090(3)
H7B H 0.0641 1.4021 0.8220
C15B C 0.3356(6) 1.1910(2) 0.8761(3)
H8B H 0.4333 1.1589 0.8607
C16B C 0.6197(8) 1.4403(3) 0.6321(3)
H9B H 0.7238 1.4562 0.5954
C17B C 0.0371(6) 1.2842(2) 0.9223(3)
H10B H -0.0640 1.3149 0.9381
C18B C 0.3155(7) 1.46396(19) 0.7096(3)
H11B H 0.2126 1.4946 0.7237
C19B C 0.0483(7) 1.2207(3) 0.9667(3)
H12B H -0.0446 1.2078 1.0122
C20B C 0.2028(8) 1.1729(2) 0.9440(4)
H13B H 0.2122 1.1292 0.9759
C21B C 0.6205(6) 1.3736(2) 0.6638(3)
H14B H 0.7229 1.3439 0.6464
C22B C 0.4634(9) 1.4864(2) 0.6538(4)
H15B H 0.4623 1.5320 0.6298

#END
