./MARHUK_from_POSCAR.cif_generated_by_CrystalShift
_symmetry_cell_setting triclinic
_symmetry_space_group_name_H-M 'P 1'
loop_
_symmetry_equiv_pos_site_id
_symmetry_equiv_pos_as_xyz
1 x,y,z
_cell_length_a 7.332400
_cell_length_b 7.338300
_cell_length_c 37.984000
_cell_angle_alpha 89.627000
_cell_angle_beta 89.836000
_cell_angle_gamma 85.628000
_cell_volume 2037.822240
loop_
_atom_site_label
_atom_site_type_symbol
_atom_site_fract_x
_atom_site_fract_y
_atom_site_fract_z
H1 H 0.634700 1.281400 0.743300
H2 H 0.477000 1.857000 0.617300
H3 H 0.554500 1.573100 0.723700
H4 H 0.332900 1.278500 0.494200
H5 H 0.495700 1.790600 0.675700
H6 H 0.757700 0.644200 -0.014500
H7 H 0.519600 1.626100 0.576700
H8 H 0.851900 0.658000 0.046300
H9 H 0.675600 1.171600 0.588600
H10 H 1.114900 0.588300 0.076300
H11 H 0.666300 0.931900 0.550600
H12 H 0.614700 0.486100 0.147800
H13 H 0.675400 1.108200 0.643600
H14 H 0.687100 0.437400 0.093100
H15 H 0.412000 1.373000 0.550200
H16 H 1.268500 0.704000 0.173900
H17 H 0.365300 0.718600 0.256700
H18 H 1.330700 0.684100 0.114700
H19 H 0.296600 0.950200 0.297200
H20 H 0.445900 0.422700 0.057700
H21 H 0.523000 0.143000 0.382700
H22 H 0.556400 0.510200 0.206600
H23 H 0.445500 0.426900 0.276300
H24 H 1.045800 0.679600 0.223900
H25 H 0.667100 0.721500 0.505800
H26 H 0.772900 0.607900 0.244400
H27 H 0.504300 0.209400 0.324300
H28 H 0.480400 0.373900 0.423300
H29 H 0.324400 0.828400 0.411400
H30 H 0.333700 1.068100 0.449400
H31 H 0.324600 0.891800 0.356400
H32 H 0.242300 0.355800 0.014500
H33 H 0.588000 0.627000 0.449800
H34 H 0.148100 0.342000 -0.046300
H35 H 0.634700 0.281400 0.743300
H36 H -0.114900 0.411700 -0.076300
H37 H 0.703400 0.049800 0.702800
H38 H 0.385300 0.513900 -0.147800
H39 H 0.477000 0.857000 0.617300
H40 H 0.312900 0.562600 -0.093100
H41 H 0.554500 0.573100 0.723700
H42 H -0.268500 0.296000 -0.173900
H43 H 0.332900 0.278500 0.494200
H44 H -0.330700 0.315900 -0.114700
H45 H 0.495700 0.790600 0.675700
H46 H 0.554100 0.577300 -0.057700
H47 H 0.519600 0.626100 0.576700
H48 H 0.443600 0.489800 -0.206600
H49 H 0.675600 0.171600 0.588600
H50 H -0.045800 0.320400 -0.223900
H51 H 0.666300 -0.068100 0.550600
H52 H 0.227100 0.392100 -0.244400
H53 H 0.675400 0.108200 0.643600
H54 H 0.412000 0.373000 0.550200
H55 H 0.365300 -0.281400 0.256700
H56 H 0.296600 -0.049800 0.297200
H57 H 0.523000 -0.857000 0.382700
H58 H 0.757700 0.644200 0.985500
H59 H 0.445500 -0.573100 0.276300
H60 H 0.851900 0.658000 1.046300
H61 H 0.667100 -0.278500 0.505800
H62 H 1.114900 0.588300 1.076300
H63 H 0.504300 -0.790600 0.324300
H64 H 0.614700 0.486100 1.147800
H65 H 0.480400 -0.626100 0.423300
H66 H 0.687100 0.437400 1.093100
H67 H 0.324400 -0.171600 0.411400
H68 H 1.268500 0.704000 1.173900
H69 H 0.333700 0.068100 0.449400
H70 H 1.330700 0.684100 1.114700
H71 H 0.324600 -0.108200 0.356400
H72 H 0.445900 0.422700 1.057700
H73 H 0.588000 -0.373000 0.449800
H74 H 0.556400 0.510200 1.206600
H75 H 1.118400 0.793700 0.743400
H76 H 1.045800 0.679600 1.223900
H77 H 1.182500 1.065500 0.721800
H78 H 0.772900 0.607900 1.244400
H79 H 1.086900 1.117600 0.574900
H80 H 0.910800 0.448300 0.556900
H81 H 1.193000 1.280600 0.671600
H82 H 1.143000 0.754600 0.485100
H83 H 1.007300 0.572600 0.706400
H84 H 0.242300 0.355800 1.014500
H85 H 1.176900 1.343600 0.613000
H86 H 0.148100 0.342000 0.953700
H87 H 0.986800 0.627600 0.647500
H88 H -0.114900 0.411700 0.923700
H89 H 0.938200 0.693300 0.593600
H90 H 0.385300 0.513900 0.852200
H91 H 1.155200 0.850900 0.545100
H92 H 0.312900 0.562600 0.906900
H93 H 0.881600 0.206300 0.256600
H94 H -0.268500 0.296000 0.826100
H95 H 0.817500 -0.065500 0.278200
H96 H -0.330700 0.315900 0.885300
H97 H 0.913100 -0.117600 0.425100
H98 H 0.554100 0.577300 0.942300
H99 H 1.089200 0.551700 0.443100
H100 H 0.443600 0.489800 0.793400
H101 H 0.807000 -0.280600 0.328400
H102 H -0.045800 0.320400 0.776100
H103 H 0.857000 0.245400 0.514900
H104 H 0.227100 0.392100 0.755600
H105 H 0.992700 0.427400 0.293600
H106 H 0.823100 -0.343600 0.387000
H107 H 0.379400 -0.086600 0.050200
H108 H 1.013200 0.372400 0.352500
H109 H 0.172600 0.174600 0.087000
H110 H 1.061800 0.306700 0.406400
H111 H 0.106000 0.179300 0.143300
H112 H 0.844800 0.149100 0.454900
H113 H 0.118400 0.793700 0.743400
H114 H 0.182500 1.065500 0.721800
H115 H 0.277600 -0.166400 -0.006300
H116 H 0.086900 1.117600 0.574900
H117 H -0.061700 0.165400 0.050300
H118 H -0.089200 0.448300 0.556900
H119 H 0.193000 1.280600 0.671600
H120 H 0.627300 0.020600 0.075800
H121 H 0.143000 0.754600 0.485100
H122 H 0.794800 -0.000500 0.175900
H123 H 0.007300 0.572600 0.706400
H124 H 0.048200 0.209300 0.201600
H125 H 0.176900 1.343600 0.613000
H126 H 0.861000 -0.024700 0.117500
H127 H -0.013200 0.627600 0.647500
H128 H 0.281300 0.157900 0.242100
H129 H -0.061800 0.693300 0.593600
H130 H 0.569700 0.063000 0.224300
H131 H 0.155200 0.850900 0.545100
H132 H -0.118400 0.206300 0.256600
H133 H -0.379400 0.086600 -0.050200
H134 H -0.182500 -0.065500 0.278200
H135 H -0.172600 -0.174600 -0.087000
H136 H -0.086900 -0.117600 0.425100
H137 H -0.106000 -0.179300 -0.143300
H138 H 0.089200 0.551700 0.443100
H139 H -0.193000 -0.280600 0.328400
H140 H -0.143000 0.245400 0.514900
H141 H -0.277600 0.166400 0.006300
H142 H -0.007300 0.427400 0.293600
H143 H 0.061700 -0.165400 -0.050300
H144 H -0.176900 -0.343600 0.387000
H145 H 0.013200 0.372400 0.352500
H146 H -0.627300 -0.020600 -0.075800
H147 H 0.061800 0.306700 0.406400
H148 H -0.794800 0.000500 -0.175900
H149 H -0.155200 0.149100 0.454900
H150 H -0.048200 -0.209300 -0.201600
H151 H 0.430300 0.937000 0.775700
H152 H -0.861000 0.024700 -0.117500
H153 H 0.718700 0.842100 0.757900
H154 H -0.281300 -0.157900 -0.242100
H155 H 0.139000 1.024700 0.882500
H156 H -0.569700 -0.063000 -0.224300
H157 H 0.951800 0.790700 0.798400
H158 H 0.205200 1.000500 0.824100
H159 H 0.379400 -0.086600 1.050200
H160 H 0.372700 0.979400 0.924200
H161 H 0.172600 0.174600 1.087000
H162 H 1.061700 0.834600 0.949700
H163 H 0.106000 0.179300 1.143300
H164 H 0.722400 1.166400 1.006300
H165 H 0.894000 0.820700 0.856700
H166 H 0.827400 0.825400 0.913000
H167 H 0.277600 -0.166400 0.993700
H168 H 0.620600 1.086600 0.949800
H169 H -0.061700 0.165400 1.050300
H170 H 1.569700 1.063000 1.224300
H171 H 1.281300 1.157900 1.242100
H172 H 0.627300 0.020600 1.075800
H173 H 1.861000 0.975300 1.117500
H174 H 0.794800 -0.000500 1.175900
H175 H 1.048200 1.209300 1.201600
H176 H 0.048200 0.209300 1.201600
H177 H 1.794800 0.999500 1.175900
H178 H 0.861000 -0.024700 1.117500
H179 H 1.627300 1.020600 1.075800
H180 H 0.281300 0.157900 1.242100
H181 H 0.938300 1.165400 1.050300
H182 H 0.569700 0.063000 1.224300
H183 H 1.277600 0.833600 0.993700
H184 H 1.106000 1.179300 1.143300
H185 H -0.379400 0.086600 0.949800
H186 H 1.172600 1.174600 1.087000
H187 H -0.172600 -0.174600 0.913000
H188 H 1.379400 0.913400 1.050200
H189 H -0.106000 -0.179300 0.856700
H190 H 0.430300 0.937000 -0.224300
H191 H 0.718700 0.842100 -0.242100
H192 H 0.139000 1.024700 -0.117500
H193 H -0.277600 0.166400 1.006300
H194 H 0.951800 0.790700 -0.201600
H195 H 0.061700 -0.165400 0.949700
H196 H 0.205200 1.000500 -0.175900
H197 H 0.372700 0.979400 -0.075800
H198 H -0.627300 -0.020600 0.924200
H199 H 1.061700 0.834600 -0.050300
H200 H -0.794800 0.000500 0.824100
H201 H 0.722400 1.166400 0.006300
H202 H -0.048200 -0.209300 0.798400
H203 H 0.894000 0.820700 -0.143300
H204 H -0.861000 0.024700 0.882500
H205 H 0.827400 0.825400 -0.087000
H206 H -0.281300 -0.157900 0.757900
H207 H 0.620600 1.086600 -0.050200
H208 H -0.569700 -0.063000 0.775700
H209 H 1.569700 1.063000 0.224300
H210 H 1.281300 1.157900 0.242100
H211 H 0.379400 0.913400 0.050200
H212 H 1.861000 0.975300 0.117500
H213 H 0.172600 1.174600 0.087000
H214 H 1.048200 1.209300 0.201600
H215 H 0.106000 1.179300 0.143300
H216 H 1.794800 0.999500 0.175900
H217 H 1.627300 1.020600 0.075800
H218 H 0.938300 1.165400 0.050300
H219 H 0.277600 0.833600 -0.006300
H220 H 1.277600 0.833600 -0.006300
H221 H -0.061700 1.165400 0.050300
H222 H 1.106000 1.179300 0.143300
H223 H 1.172600 1.174600 0.087000
H224 H 0.627300 1.020600 0.075800
H225 H 1.379400 0.913400 0.050200
H226 H 0.794800 0.999500 0.175900
H227 H 0.430300 -0.063000 0.775700
H228 H 0.048200 1.209300 0.201600
H229 H 0.718700 -0.157900 0.757900
H230 H 0.861000 0.975300 0.117500
H231 H 0.139000 0.024700 0.882500
H232 H 0.281300 1.157900 0.242100
H233 H 0.951800 -0.209300 0.798400
H234 H 0.569700 1.063000 0.224300
H235 H 0.205200 0.000500 0.824100
H236 H 0.372700 -0.020600 0.924200
H237 H -0.379400 1.086600 -0.050200
H238 H 1.061700 -0.165400 0.949700
H239 H -0.172600 0.825400 -0.087000
H240 H 0.722400 0.166400 1.006300
H241 H -0.106000 0.820700 -0.143300
H242 H 0.894000 -0.179300 0.856700
H243 H 0.827400 -0.174600 0.913000
H244 H 0.620600 0.086600 0.949800
H245 H -0.277600 1.166400 0.006300
H246 H 1.569700 0.063000 1.224300
H247 H 0.061700 0.834600 -0.050300
H248 H 1.281300 0.157900 1.242100
H249 H 1.861000 -0.024700 1.117500
H250 H -0.627300 0.979400 -0.075800
H251 H 1.048200 0.209300 1.201600
H252 H -0.794800 1.000500 -0.175900
H253 H 1.794800 -0.000500 1.175900
H254 H -0.048200 0.790700 -0.201600
H255 H 1.627300 0.020600 1.075800
H256 H -0.861000 1.024700 -0.117500
H257 H 0.938300 0.165400 1.050300
H258 H -0.281300 0.842100 -0.242100
H259 H 1.277600 -0.166400 0.993700
H260 H -0.569700 0.937000 -0.224300
H261 H 1.106000 0.179300 1.143300
H262 H 1.172600 0.174600 1.087000
H263 H 0.379400 0.913400 1.050200
H264 H 1.379400 -0.086600 1.050200
H265 H 0.172600 1.174600 1.087000
H266 H 0.430300 -0.063000 -0.224300
H267 H 0.106000 1.179300 1.143300
H268 H 0.718700 -0.157900 -0.242100
H269 H 0.139000 0.024700 -0.117500
H270 H 0.951800 -0.209300 -0.201600
H271 H 0.277600 0.833600 0.993700
H272 H 0.205200 0.000500 -0.175900
H273 H -0.061700 1.165400 1.050300
H274 H 0.372700 -0.020600 -0.075800
H275 H 1.061700 -0.165400 -0.050300
H276 H 0.627300 1.020600 1.075800
H277 H 0.722400 0.166400 0.006300
H278 H 0.794800 0.999500 1.175900
H279 H 0.894000 -0.179300 -0.143300
H280 H 0.048200 1.209300 1.201600
H281 H 0.827400 -0.174600 -0.087000
H282 H 0.861000 0.975300 1.117500
H283 H 0.620600 0.086600 -0.050200
H284 H 0.281300 1.157900 1.242100
H285 H 1.569700 0.063000 0.224300
H286 H 0.569700 1.063000 1.224300
H287 H 1.281300 0.157900 0.242100
H288 H 1.861000 -0.024700 0.117500
H289 H -0.379400 1.086600 0.949800
H290 H 1.048200 0.209300 0.201600
H291 H -0.172600 0.825400 0.913000
H292 H 1.794800 -0.000500 0.175900
H293 H -0.106000 0.820700 0.856700
H294 H 1.627300 0.020600 0.075800
H295 H 0.938300 0.165400 0.050300
H296 H 1.277600 -0.166400 -0.006300
H297 H -0.277600 1.166400 1.006300
H298 H 1.106000 0.179300 0.143300
H299 H 0.061700 0.834600 0.949700
H300 H 1.172600 0.174600 0.087000
H301 H 1.379400 -0.086600 0.050200
H302 H -0.627300 0.979400 0.924200
H303 H -0.569700 0.937000 0.775700
H304 H -0.794800 1.000500 0.824100
H305 H -0.281300 0.842100 0.757900
H306 H -0.048200 0.790700 0.798400
H307 H -0.861000 1.024700 0.882500
H308 H 0.703400 1.049800 0.702800
C309 C -0.306300 0.857300 0.781800
C310 C -0.166300 0.825100 0.806090
C311 C -0.478500 0.910700 0.792300
C312 C -0.702200 0.978100 0.840600
C313 C 1.379200 0.102900 0.146190
C314 C 1.276700 -0.006700 0.054040
C315 C -0.599200 0.967200 0.900380
C316 C 1.273100 0.092000 0.083070
C317 C -0.520300 0.926400 0.828940
C318 C 1.201200 0.156400 0.159180
C319 C 0.035700 0.902200 0.969990
C320 C 1.130600 -0.000500 0.027030
C321 C 1.421100 0.077400 0.109560
C322 C 1.165900 -0.099000 -0.003530
C323 C -0.165900 1.099000 1.003530
C324 C 0.964300 0.097800 0.030010
C325 C -0.421100 0.922600 0.890440
C326 C 1.520300 0.073600 0.171060
C327 C 1.599200 0.032800 0.099620
C328 C -0.130600 1.000500 0.972970
C329 C 1.702200 0.021900 0.159400
C330 C -0.201200 0.843600 0.840820
C331 C 1.166300 0.174900 0.193910
C332 C -0.273100 0.908000 0.916930
C333 C 1.741300 0.005000 0.124900
C334 C -0.276700 1.006700 0.945960
C335 C 1.306300 0.142700 0.218200
C336 C -0.379200 0.897100 0.853810
C337 C 1.478500 0.089300 0.207700
C338 C 0.478500 1.089300 1.207700
C339 C 0.620800 -0.102900 -0.146190
C340 C 0.723300 0.006700 -0.054040
C341 C 0.306300 1.142700 1.218200
C342 C 0.726900 -0.092000 -0.083070
C343 C 0.741300 1.005000 1.124900
C344 C 0.798800 -0.156400 -0.159180
C345 C 0.166300 1.174900 1.193910
C346 C 0.869400 0.000500 -0.027030
C347 C 0.578900 -0.077400 -0.109560
C348 C 0.834100 0.099000 0.003530
C349 C 0.702200 1.021900 1.159400
C350 C 1.035700 -0.097800 -0.030010
C351 C 0.599200 1.032800 1.099620
C352 C 0.479700 -0.073600 -0.171060
C353 C 0.400800 -0.032800 -0.099620
C354 C 0.520300 1.073600 1.171060
C355 C 0.297800 -0.021900 -0.159400
C356 C -0.035700 1.097800 1.030010
C357 C 0.833700 -0.174900 -0.193910
C358 C 0.165900 0.901000 0.996470
C359 C 0.258700 -0.005000 -0.124900
C360 C 0.421100 1.077400 1.109560
C361 C 0.693700 -0.142700 -0.218200
C362 C 0.130600 0.999500 1.027030
C363 C 0.521500 -0.089300 -0.207700
C364 C 0.201200 1.156400 1.159180
C365 C 1.379200 0.102900 1.146190
C366 C 1.276700 -0.006700 1.054040
C367 C 0.273100 1.092000 1.083070
C368 C 1.273100 0.092000 1.083070
C369 C 0.276700 0.993300 1.054040
C370 C 1.201200 0.156400 1.159180
C371 C 0.379200 1.102900 1.146190
C372 C 1.130600 -0.000500 1.027030
C373 C 1.421100 0.077400 1.109560
C374 C 1.165900 -0.099000 0.996470
C375 C -0.478500 0.910700 -0.207700
C376 C 0.964300 0.097800 1.030010
C377 C -0.306300 0.857300 -0.218200
C378 C 1.520300 0.073600 1.171060
C379 C 1.599200 0.032800 1.099620
C380 C -0.741300 0.995000 -0.124900
C381 C 1.702200 0.021900 1.159400
C382 C -0.166300 0.825100 -0.193910
C383 C 1.166300 0.174900 1.193910
C384 C -0.702200 0.978100 -0.159400
C385 C 1.741300 0.005000 1.124900
C386 C -0.599200 0.967200 -0.099620
C387 C 1.306300 0.142700 1.218200
C388 C -0.520300 0.926400 -0.171060
C389 C 1.478500 0.089300 1.207700
C390 C 0.035700 0.902200 -0.030010
C391 C 0.620800 -0.102900 0.853810
C392 C 0.723300 0.006700 0.945960
C393 C -0.165900 1.099000 0.003530
C394 C 0.726900 -0.092000 0.916930
C395 C -0.421100 0.922600 -0.109560
C396 C 0.798800 -0.156400 0.840820
C397 C -0.130600 1.000500 -0.027030
C398 C 0.869400 0.000500 0.972970
C399 C 0.578900 -0.077400 0.890440
C400 C 0.834100 0.099000 1.003530
C401 C -0.201200 0.843600 -0.159180
C402 C 1.035700 -0.097800 0.969990
C403 C -0.273100 0.908000 -0.083070
C404 C 0.479700 -0.073600 0.828940
C405 C 0.400800 -0.032800 0.900380
C406 C -0.276700 1.006700 -0.054040
C407 C 0.297800 -0.021900 0.840600
C408 C -0.379200 0.897100 -0.146190
C409 C 0.833700 -0.174900 0.806090
C410 C 0.478500 1.089300 0.207700
C411 C 0.258700 -0.005000 0.875100
C412 C 0.306300 1.142700 0.218200
C413 C 0.693700 -0.142700 0.781800
C414 C 0.741300 1.005000 0.124900
C415 C 0.521500 -0.089300 0.792300
C416 C 0.166300 1.174900 0.193910
C417 C 1.379200 1.102900 0.146190
C418 C 1.276700 0.993300 0.054040
C419 C 0.702200 1.021900 0.159400
C420 C 1.273100 1.092000 0.083070
C421 C 0.599200 1.032800 0.099620
C422 C 1.201200 1.156400 0.159180
C423 C 0.520300 1.073600 0.171060
C424 C 1.130600 0.999500 0.027030
C425 C 1.421100 1.077400 0.109560
C426 C 1.165900 0.901000 -0.003530
C427 C -0.035700 1.097800 0.030010
C428 C 0.964300 1.097800 0.030010
C429 C 0.165900 0.901000 -0.003530
C430 C 1.520300 1.073600 0.171060
C431 C 1.599200 1.032800 0.099620
C432 C 0.421100 1.077400 0.109560
C433 C 1.702200 1.021900 0.159400
C434 C 0.130600 0.999500 0.027030
C435 C 1.166300 1.174900 0.193910
C436 C 0.201200 1.156400 0.159180
C437 C 1.741300 1.005000 0.124900
C438 C 0.273100 1.092000 0.083070
C439 C 1.306300 1.142700 0.218200
C440 C 0.276700 0.993300 0.054040
C441 C 1.478500 1.089300 0.207700
C442 C 0.379200 1.102900 0.146190
C443 C 0.620800 0.897100 -0.146190
C444 C 0.723300 1.006700 -0.054040
C445 C -0.478500 -0.089300 0.792300
C446 C 0.726900 0.908000 -0.083070
C447 C -0.306300 -0.142700 0.781800
C448 C 0.798800 0.843600 -0.159180
C449 C -0.741300 -0.005000 0.875100
C450 C 0.869400 1.000500 -0.027030
C451 C 0.578900 0.922600 -0.109560
C452 C 0.834100 1.099000 0.003530
C453 C -0.166300 -0.174900 0.806090
C454 C 1.035700 0.902200 -0.030010
C455 C -0.702200 -0.021900 0.840600
C456 C 0.479700 0.926400 -0.171060
C457 C 0.400800 0.967200 -0.099620
C458 C -0.599200 -0.032800 0.900380
C459 C 0.297800 0.978100 -0.159400
C460 C -0.520300 -0.073600 0.828940
C461 C 0.833700 0.825100 -0.193910
C462 C 0.035700 -0.097800 0.969990
C463 C 0.258700 0.995000 -0.124900
C464 C -0.165900 0.099000 1.003530
C465 C 0.693700 0.857300 -0.218200
C466 C -0.421100 -0.077400 0.890440
C467 C 0.521500 0.910700 -0.207700
C468 C -0.130600 0.000500 0.972970
C469 C 1.379200 1.102900 1.146190
C470 C 1.276700 0.993300 1.054040
C471 C -0.201200 -0.156400 0.840820
C472 C 1.273100 1.092000 1.083070
C473 C -0.273100 -0.092000 0.916930
C474 C 1.201200 1.156400 1.159180
C475 C -0.276700 0.006700 0.945960
C476 C 1.130600 0.999500 1.027030
C477 C 1.421100 1.077400 1.109560
C478 C 1.165900 0.901000 0.996470
C479 C -0.379200 -0.102900 0.853810
C480 C 0.964300 1.097800 1.030010
C481 C 0.478500 0.089300 1.207700
C482 C 1.520300 1.073600 1.171060
C483 C 1.599200 1.032800 1.099620
C484 C 0.306300 0.142700 1.218200
C485 C 1.702200 1.021900 1.159400
C486 C 0.741300 0.005000 1.124900
C487 C 1.166300 1.174900 1.193910
C488 C 0.166300 0.174900 1.193910
C489 C 1.741300 1.005000 1.124900
C490 C 0.702200 0.021900 1.159400
C491 C 1.306300 1.142700 1.218200
C492 C 0.599200 0.032800 1.099620
C493 C 1.478500 1.089300 1.207700
C494 C 0.520300 0.073600 1.171060
C495 C 0.620800 0.897100 0.853810
C496 C 0.723300 1.006700 0.945960
C497 C -0.035700 0.097800 1.030010
C498 C 0.726900 0.908000 0.916930
C499 C 0.165900 -0.099000 0.996470
C500 C 0.798800 0.843600 0.840820
C501 C 0.421100 0.077400 1.109560
C502 C 0.869400 1.000500 0.972970
C503 C 0.578900 0.922600 0.890440
C504 C 0.834100 1.099000 1.003530
C505 C 0.130600 -0.000500 1.027030
C506 C 1.035700 0.902200 0.969990
C507 C 0.201200 0.156400 1.159180
C508 C 0.479700 0.926400 0.828940
C509 C 0.400800 0.967200 0.900380
C510 C 0.273100 0.092000 1.083070
C511 C 0.297800 0.978100 0.840600
C512 C 0.276700 -0.006700 1.054040
C513 C 0.833700 0.825100 0.806090
C514 C 0.379200 0.102900 1.146190
C515 C 0.258700 0.995000 0.875100
C516 C -0.478500 -0.089300 -0.207700
C517 C 0.693700 0.857300 0.781800
C518 C -0.306300 -0.142700 -0.218200
C519 C 0.521500 0.910700 0.792300
C520 C -0.741300 -0.005000 -0.124900
C521 C -0.040900 0.373100 0.473130
C522 C -0.057700 0.076800 0.389480
C523 C -0.078000 0.236700 0.447490
C524 C -0.166300 -0.174900 -0.193910
C525 C -0.122700 -0.024100 0.330010
C526 C -0.064000 0.114600 0.352740
C527 C -0.015300 0.220000 0.414340
C528 C -0.702200 -0.021900 -0.159400
C529 C -0.024500 0.281500 0.337800
C530 C -0.599200 -0.032800 -0.099620
C531 C -0.149600 -0.230000 0.378300
C532 C -0.520300 -0.073600 -0.171060
C533 C -0.039100 0.316400 0.302800
C534 C 0.035700 -0.097800 -0.030010
C535 C -0.085900 0.349600 0.508470
C536 C -0.165900 0.099000 0.003530
C537 C -0.159600 -0.190700 0.343690
C538 C -0.421100 -0.077400 -0.109560
C539 C 0.051000 0.529800 0.465960
C540 C -0.130600 0.000500 -0.027030
C541 C -0.096200 -0.092000 0.401100
C542 C -0.201200 -0.156400 -0.159180
C543 C -0.141600 0.021200 0.293490
C544 C -0.273100 -0.092000 -0.083070
C545 C -0.103100 0.181900 0.280540
C546 C -0.276700 0.006700 -0.054040
C547 C 0.040900 0.626900 0.526870
C548 C 0.057700 0.923200 0.610520
C549 C 0.078000 0.763300 0.552510
C550 C -0.379200 -0.102900 -0.146190
C551 C 0.122700 1.024100 0.669990
C552 C 0.064000 0.885400 0.647260
C553 C 0.015300 0.780000 0.585660
C554 C 0.478500 0.089300 0.207700
C555 C 0.024500 0.718500 0.662200
C556 C 0.306300 0.142700 0.218200
C557 C 0.149600 1.230000 0.621700
C558 C 0.741300 0.005000 0.124900
C559 C 0.039100 0.683600 0.697200
C560 C 0.166300 0.174900 0.193910
C561 C 0.085900 0.650400 0.491530
C562 C 0.702200 0.021900 0.159400
C563 C 0.159600 1.190700 0.656310
C564 C 0.599200 0.032800 0.099620
C565 C -0.051000 0.470200 0.534040
C566 C 0.520300 0.073600 0.171060
C567 C 0.096200 1.092000 0.598900
C568 C -0.035700 0.097800 0.030010
C569 C 0.141600 0.978800 0.706510
C570 C 0.165900 -0.099000 -0.003530
C571 C 0.103100 0.818100 0.719460
C572 C 0.421100 0.077400 0.109560
C573 C 0.959100 0.373100 0.473130
C574 C 0.942300 0.076800 0.389480
C575 C 0.922000 0.236700 0.447490
C576 C 0.130600 -0.000500 0.027030
C577 C 0.877300 -0.024100 0.330010
C578 C 0.936000 0.114600 0.352740
C579 C 0.984700 0.220000 0.414340
C580 C 0.201200 0.156400 0.159180
C581 C 0.975500 0.281500 0.337800
C582 C 0.273100 0.092000 0.083070
C583 C 0.850400 -0.230000 0.378300
C584 C 0.276700 -0.006700 0.054040
C585 C 0.960900 0.316400 0.302800
C586 C 0.379200 0.102900 0.146190
C587 C 0.914100 0.349600 0.508470
C588 C 0.201300 0.402300 0.779560
C589 C 0.840400 -0.190700 0.343690
C590 C 0.039600 0.360500 0.791750
C591 C 1.051000 0.529800 0.465960
C592 C 0.330800 0.460700 0.802190
C593 C 0.903800 -0.092000 0.401100
C594 C 0.530600 0.545900 0.965570
C595 C 0.858400 0.021200 0.293490
C596 C -0.217300 0.344700 0.876790
C597 C 0.896900 0.181900 0.280540
C598 C -0.180000 0.332600 0.841500
C599 C 1.040900 0.626900 0.526870
C600 C 1.057700 0.923200 0.610520
C601 C 1.078000 0.763300 0.552510
C602 C 0.226300 0.484300 0.914330
C603 C 1.122700 1.024100 0.669990
C604 C 1.064000 0.885400 0.647260
C605 C 1.015300 0.780000 0.585660
C606 C 0.294800 0.476100 0.837410
C607 C 1.024500 0.718500 0.662200
C608 C -0.085700 0.400100 0.899900
C609 C 1.149600 1.230000 0.621700
C610 C 0.236000 0.420100 0.946850
C611 C 1.039100 0.683600 0.697200
C612 C 0.346000 0.414600 1.008410
C613 C 1.085900 0.650400 0.491530
C614 C 0.083700 0.437700 0.888970
C615 C 1.159600 1.190700 0.656310
C616 C -0.007100 0.375500 0.828260
C617 C 0.949000 0.470200 0.534040
C618 C 0.127700 0.437200 0.851880
C619 C 1.096200 1.092000 0.598900
C620 C 0.374200 0.461000 0.973480
C621 C 1.141600 0.978800 0.706510
C622 C 0.798700 0.597700 1.220440
C623 C 1.103100 0.818100 0.719460
C624 C 0.960400 0.639500 1.208250
C625 C 0.500600 -0.127900 0.472680
C626 C 0.420700 -0.418700 0.389460
C627 C 0.429000 -0.519800 0.328300
C628 C 0.399500 -0.378400 0.353330
C629 C 0.506900 -0.271300 0.445770
C630 C 0.669200 0.539300 1.197810
C631 C 0.348600 -0.203100 0.340530
C632 C 0.469400 0.454100 1.034430
C633 C 0.400800 0.040100 0.469690
C634 C 1.217300 0.655300 1.123210
C635 C 0.407200 -0.271600 0.415720
C636 C 1.180000 0.667400 1.158500
C637 C 0.467200 -0.598300 0.399400
C638 C 0.773700 0.515700 1.085670
C639 C 0.480000 -0.697600 0.340600
C640 C 0.705200 0.523900 1.162590
C641 C 0.599700 -0.166600 0.503360
C642 C 1.085700 0.599900 1.100100
C643 C 0.419300 -0.480300 0.292500
C644 C 0.764000 0.579900 1.053150
C645 C 0.494700 -0.737300 0.375200
C646 C 0.654000 0.585400 0.991590
C647 C 0.333100 -0.167300 0.305020
C648 C 0.916300 0.562300 1.111030
C649 C 0.371800 -0.306400 0.280700
C650 C 1.007100 0.624500 1.171740
C651 C 0.499400 0.127900 0.527320
C652 C 0.579300 0.418700 0.610540
C653 C 0.571000 0.519800 0.671700
C654 C 0.600500 0.378400 0.646670
C655 C 0.493100 0.271300 0.554230
C656 C 0.872300 0.562800 1.148120
C657 C 0.651400 0.203100 0.659470
C658 C 0.625800 0.539000 1.026520
C659 C 0.599200 -0.040100 0.530310
C660 C 0.201300 0.402300 -0.220440
C661 C 0.592800 0.271600 0.584280
C662 C 0.039600 0.360500 -0.208250
C663 C 0.532800 0.598300 0.600600
C664 C 0.330800 0.460700 -0.197810
C665 C 0.520000 0.697600 0.659400
C666 C 0.530600 0.545900 -0.034430
C667 C 0.400300 0.166600 0.496640
C668 C -0.217300 0.344700 -0.123210
C669 C 0.580700 0.480300 0.707500
C670 C -0.180000 0.332600 -0.158500
C671 C 0.505300 0.737300 0.624800
C672 C 0.226300 0.484300 -0.085670
C673 C 0.666900 0.167300 0.694980
C674 C 0.294800 0.476100 -0.162590
C675 C 0.628200 0.306400 0.719300
C676 C -0.085700 0.400100 -0.100100
C677 C 0.500600 0.872100 0.472680
C678 C 0.420700 0.581300 0.389460
C679 C 0.429000 0.480200 0.328300
C680 C 0.399500 0.621600 0.353330
C681 C 0.506900 0.728700 0.445770
C682 C 0.236000 0.420100 -0.053150
C683 C 0.348600 0.796900 0.340530
C684 C 0.346000 0.414600 0.008410
C685 C 0.400800 1.040100 0.469690
C686 C 0.083700 0.437700 -0.111030
C687 C 0.407200 0.728400 0.415720
C688 C -0.007100 0.375500 -0.171740
C689 C 0.467200 0.401700 0.399400
C690 C 0.127700 0.437200 -0.148120
C691 C 0.480000 0.302400 0.340600
C692 C 0.374200 0.461000 -0.026520
C693 C 0.599700 0.833400 0.503360
C694 C 0.798700 0.597700 0.220440
C695 C 0.419300 0.519700 0.292500
C696 C 0.960400 0.639500 0.208250
C697 C 0.494700 0.262700 0.375200
C698 C 0.669200 0.539300 0.197810
C699 C 0.333100 0.832700 0.305020
C700 C 0.469400 0.454100 0.034430
C701 C 0.371800 0.693600 0.280700
C702 C 1.217300 0.655300 0.123210
C703 C 0.499400 1.127900 0.527320
C704 C 0.579300 1.418700 0.610540
C705 C 0.571000 1.519800 0.671700
C706 C 0.600500 1.378400 0.646670
C707 C 0.493100 1.271300 0.554230
C708 C 1.180000 0.667400 0.158500
C709 C 0.651400 1.203100 0.659470
C710 C 0.773700 0.515700 0.085670
C711 C 0.599200 0.959900 0.530310
C712 C 0.705200 0.523900 0.162590
C713 C 0.592800 1.271600 0.584280
C714 C 1.085700 0.599900 0.100100
C715 C 0.532800 1.598300 0.600600
C716 C 0.764000 0.579900 0.053150
C717 C 0.520000 1.697600 0.659400
C718 C 0.654000 0.585400 -0.008410
C719 C 0.400300 1.166600 0.496640
C720 C 0.916300 0.562300 0.111030
C721 C 0.580700 1.480300 0.707500
C722 C 1.007100 0.624500 0.171740
C723 C 0.505300 1.737300 0.624800
C724 C 0.872300 0.562800 0.148120
C725 C 0.666900 1.167300 0.694980
C726 C -0.741300 0.995000 0.875100
C727 C 0.628200 1.306400 0.719300
C728 C 0.625800 0.539000 0.026520

#END
