
#######################################################################
#
#                 Cambridge Crystallographic Data Centre
#                                CCDC 
#
#######################################################################
#
# If this CIF has been generated from an entry in the Cambridge 
# Structural Database, then it will include bibliographic, chemical, 
# crystal, experimental, refinement or atomic coordinate data resulting 
# from the CCDC's data processing and validation procedures.
#
#######################################################################

data_ACICAR
_symmetry_cell_setting           monoclinic
_symmetry_space_group_name_H-M   'P 21'
_symmetry_Int_Tables_number      4
_space_group_name_Hall           'P 2yb'
loop_
_symmetry_equiv_pos_site_id
_symmetry_equiv_pos_as_xyz
1 x,y,z
2 -x,1/2+y,-z
_cell_length_a                   11.6043(11)
_cell_length_b                   4.7732(9)
_cell_length_c                   12.8607(13)
_cell_angle_alpha                90
_cell_angle_beta                 92.330(9)
_cell_angle_gamma                90
_cell_volume                     711.761
loop_
_atom_site_label
_atom_site_type_symbol
_atom_site_fract_x
_atom_site_fract_y
_atom_site_fract_z
N1 N 0.1807(3) -0.194(2) 0.4588(3)
N2 N 0.3697(3) 0.3931(12) 0.6399(3)
N3 N 0.6307(3) 1.1979(12) 0.8606(3)
N4 N 0.8197(3) 1.786(2) 1.0410(3)
C1 C 0.2402(4) -0.008(2) 0.5166(4)
H1 H 0.2917 0.1027 0.4814
C2 C 0.1124(4) -0.3333(19) 0.5186(4)
H2 H 0.0656 -0.4682 0.4861
C3 C 0.1012(4) -0.299(2) 0.6352(4)
H3 H 0.0499 -0.4140 0.6690
C4 C 0.1632(4) -0.1074(17) 0.6919(4)
H4 H 0.1573 -0.0834 0.7632
C5 C 0.2347(3) 0.0450(14) 0.6333(4)
C6 C 0.3031(3) 0.2495(16) 0.6912(3)
H5 H 0.2976 0.2723 0.7626
C7 C 0.4336(3) 0.5919(15) 0.6990(3)
C8 C 0.4281(3) 0.6617(16) 0.8160(3)
H6 H 0.3765 0.5613 0.8551
C9 C 0.4934(3) 0.8593(15) 0.8650(3)
H7 H 0.4893 0.8989 0.9355
C10 C 0.5673(3) 0.9979(15) 0.8001(3)
C11 C 0.5717(3) 0.9331(14) 0.6833(3)
H8 H 0.6218 1.0358 0.6435
C12 C 0.5052(3) 0.7317(15) 0.6352(3)
H9 H 0.5084 0.6927 0.5645
C13 C 0.6970(3) 1.3377(16) 0.8088(3)
H10 H 0.7040 1.3108 0.7377
C14 C 0.7638(3) 1.5485(13) 0.8675(3)
C15 C 0.7593(4) 1.6004(19) 0.9835(4)
H11 H 0.7082 1.4891 1.0191
C16 C 0.8992(3) 1.889(2) 0.8650(4)
H12 H 0.9510 2.0024 0.8311
C17 C 0.8881(4) 1.9280(19) 0.9808(4)
H13 H 0.9341 2.0653 1.0127
C18 C 0.8365(3) 1.6952(18) 0.8071(4)
H14 H 0.8430 1.6678 0.7360
N1 N 0.8193(3) -0.694(2) 0.5412(3)
N2 N 0.6303(3) -0.1069(12) 0.3601(3)
N3 N 0.3693(3) 0.6979(12) 0.1394(3)
N4 N 0.1803(3) 1.286(2) -0.0410(3)
C1 C 0.7598(4) -0.508(2) 0.4834(4)
H1 H 0.7083 -0.3973 0.5186
C2 C 0.8876(4) -0.8333(19) 0.4814(4)
H2 H 0.9344 -0.9682 0.5139
C3 C 0.8988(4) -0.799(2) 0.3648(4)
H3 H 0.9501 -0.9140 0.3310
C4 C 0.8368(4) -0.6074(17) 0.3081(4)
H4 H 0.8427 -0.5834 0.2368
C5 C 0.7653(3) -0.4550(14) 0.3667(4)
C6 C 0.6969(3) -0.2505(16) 0.3088(3)
H5 H 0.7024 -0.2277 0.2374
C7 C 0.5664(3) 0.0919(15) 0.3010(3)
C8 C 0.5719(3) 0.1617(16) 0.1840(3)
H6 H 0.6235 0.0613 0.1449
C9 C 0.5066(3) 0.3593(15) 0.1350(3)
H7 H 0.5107 0.3989 0.0645
C10 C 0.4327(3) 0.4979(15) 0.1999(3)
C11 C 0.4283(3) 0.4331(14) 0.3167(3)
H8 H 0.3782 0.5358 0.3565
C12 C 0.4948(3) 0.2317(15) 0.3648(3)
H9 H 0.4916 0.1927 0.4355
C13 C 0.3030(3) 0.8377(16) 0.1912(3)
H10 H 0.2960 0.8108 0.2623
C14 C 0.2362(3) 1.0485(13) 0.1325(3)
C15 C 0.2407(4) 1.1004(19) 0.0165(4)
H11 H 0.2918 0.9891 -0.0191
C16 C 0.1008(3) 1.389(2) 0.1350(4)
H12 H 0.0490 1.5024 0.1689
C17 C 0.1119(4) 1.4280(19) 0.0192(4)
H13 H 0.0659 1.5653 -0.0127
C18 C 0.1635(3) 1.1952(18) 0.1929(4)
H14 H 0.1570 1.1678 0.2640

#END
