./ACOLUB_from_xyz.cif_generated_by_CrystalShift
_symmetry_cell_setting triclinic
_symmetry_space_group_name_H-M 'P 1'
loop_
_symmetry_equiv_pos_site_id
_symmetry_equiv_pos_as_xyz
1 x,y,z
_cell_length_a 29.766000
_cell_length_b 20.293000
_cell_length_c 16.483000
_cell_angle_alpha 90.000000
_cell_angle_beta 111.107000
_cell_angle_gamma 90.000000
_cell_volume 9288.434590
loop_
_atom_site_label
_atom_site_type_symbol
_atom_site_fract_x
_atom_site_fract_y
_atom_site_fract_z
Cd1 Cd 0.750000 0.250000 0.500000
Cd2 Cd 0.772160 0.415630 0.549230
N3 N 0.766500 0.518800 0.586500
N4 N 0.758400 0.625300 0.573600
O5 O 0.500000 0.324300 0.750000
O6 O 0.622300 0.329700 0.874500
O7 O 0.595200 0.308600 1.048500
O8 O 0.481500 0.292600 0.938400
O9 O 0.748200 0.378800 0.649600
O10 O 0.728100 0.273900 0.611900
O11 O 0.723300 0.449400 1.396500
O12 O 0.719400 0.349700 1.443600
O13 O 0.318900 0.188000 1.061300
O14 O 0.339700 0.094000 1.017700
C15 C 0.549300 0.314600 0.898500
C16 C 0.521600 0.362100 0.826300
H17 H 0.497100 0.385000 0.841500
H18 H 0.543300 0.394600 0.817300
C19 C 0.588700 0.279700 0.875800
H20 H 0.604400 0.246500 0.919000
H21 H 0.575300 0.258600 0.819400
C22 C 0.571900 0.351900 0.981200
H23 H 0.594900 0.383400 0.974600
H24 H 0.547400 0.376100 0.994700
C25 C 0.515400 0.259700 0.909200
H26 H 0.499000 0.237700 0.854300
H27 H 0.533600 0.227300 0.951600
C28 C 0.648600 0.323000 0.821700
C29 C 0.649900 0.267400 0.776000
H30 H 0.632700 0.230100 0.780200
C31 C 0.677400 0.267100 0.723100
H32 H 0.678700 0.229500 0.691800
C33 C 0.702600 0.323100 0.717400
C34 C 0.701900 0.376300 0.765800
H35 H 0.719500 0.413600 0.763100
C36 C 0.675800 0.376000 0.818600
H37 H 0.676600 0.412600 0.853000
C38 C 0.728200 0.324900 0.654500
C39 C 0.621200 0.332300 1.128400
C40 C 0.629200 0.397000 1.149300
H41 H 0.615600 0.428500 1.106400
C42 C 0.656800 0.417600 1.232300
H43 H 0.661100 0.462200 1.245500
C44 C 0.677800 0.371100 1.294400
C45 C 0.668600 0.306500 1.272900
H46 H 0.681000 0.274900 1.316100
C47 C 0.642100 0.285900 1.191300
H48 H 0.638200 0.241200 1.178300
C49 C 0.709000 0.391600 1.382600
C50 C 0.450900 0.255700 0.960900
C51 C 0.423300 0.286900 0.996400
H52 H 0.427100 0.332100 1.005400
C53 C 0.389400 0.255000 1.020400
H54 H 0.370800 0.278600 1.045200
C55 C 0.382800 0.188900 1.008200
C56 C 0.410700 0.156200 0.973100
H57 H 0.407700 0.110800 0.965800
C58 C 0.444600 0.190700 0.947200
H59 H 0.462700 0.168100 0.920500
C60 C 0.344700 0.154100 1.030300
C61 C 0.764600 0.568100 0.536300
H62 H 0.767100 0.565000 0.481900
C63 C 0.755600 0.608300 0.652000
H64 H 0.751000 0.637000 0.692200
C65 C 0.760800 0.542700 0.660200
H66 H 0.760600 0.517800 0.707500
C67 C 0.754900 0.689900 0.537200
C68 C 0.780500 0.704900 0.487700
H69 H 0.801300 0.673700 0.479200
C70 C 0.723500 0.734000 0.550700
H71 H 0.705500 0.723100 0.584600
Cd72 Cd 0.750000 0.250000 1.500000
Cd73 Cd 0.250000 0.250000 1.000000
Cd74 Cd 0.250000 0.250000 0.000000
Cd75 Cd 0.227840 0.415630 0.950770
Cd76 Cd 0.772160 0.415630 1.549230
Cd77 Cd 0.272160 0.084370 1.049230
Cd78 Cd 0.727840 1.084370 0.450770
Cd79 Cd 0.227840 0.415630 -0.049230
Cd80 Cd 0.727840 0.084370 0.450770
N81 N 0.733500 0.981200 0.413500
N82 N 0.233500 0.518800 0.913500
N83 N 0.741600 0.874700 0.426400
O84 O 0.377700 0.329700 0.625500
O85 O 0.404800 0.308600 0.451500
O86 O 0.518500 0.292600 0.561600
O87 O 0.251800 0.378800 0.850400
O88 O 0.271900 0.273900 0.888100
O89 O 0.771900 0.226100 0.388100
O90 O 0.276700 0.449400 0.103500
O91 O 0.723300 0.449400 0.396500
O92 O 0.276700 0.449400 1.103500
O93 O 0.280600 0.349700 0.056400
O94 O 0.719400 0.349700 0.443600
O95 O 0.780600 0.150300 0.556400
O96 O 0.280600 0.349700 1.056400
O97 O 0.681100 0.188000 0.438700
O98 O 0.818900 0.312000 0.561300
O99 O 0.181100 0.312000 0.938700
O100 O 0.660300 0.094000 0.482300
O101 O 0.839700 0.406000 0.517700
O102 O 0.160300 0.406000 0.982300
C103 C 0.450700 0.314600 0.601500
C104 C 0.478400 0.362100 0.673700
H105 H 0.502900 0.385000 0.658500
H106 H 0.456700 0.394600 0.682700
C107 C 0.411300 0.279700 0.624200
H108 H 0.395600 0.246500 0.581000
H109 H 0.424700 0.258600 0.680600
C110 C 0.428100 0.351900 0.518800
H111 H 0.405100 0.383400 0.525400
H112 H 0.452600 0.376100 0.505300
C113 C 0.484600 0.259700 0.590800
H114 H 0.501000 0.237700 0.645700
H115 H 0.466400 0.227300 0.548400
C116 C 0.351400 0.323000 0.678300
C117 C 0.350100 0.267400 0.724000
H118 H 0.367300 0.230100 0.719800
C119 C 0.322600 0.267100 0.776900
H120 H 0.321300 0.229500 0.808200
C121 C 0.297400 0.323100 0.782600
C122 C 0.298100 0.376300 0.734200
H123 H 0.280500 0.413600 0.736900
C124 C 0.324200 0.376000 0.681400
H125 H 0.323400 0.412600 0.647000
C126 C 0.271800 0.324900 0.845500
C127 C 0.378800 0.332300 0.371600
C128 C 0.370800 0.397000 0.350700
H129 H 0.384400 0.428500 0.393600
C130 C 0.343200 0.417600 0.267700
H131 H 0.338900 0.462200 0.254500
C132 C 0.322200 0.371100 0.205600
C133 C 0.331400 0.306500 0.227100
H134 H 0.319000 0.274900 0.183900
C135 C 0.357900 0.285900 0.308700
H136 H 0.361800 0.241200 0.321700
C137 C 0.291000 0.391600 0.117400
C138 C 0.549100 0.255700 0.539100
C139 C 0.576700 0.286900 0.503600
H140 H 0.572900 0.332100 0.494600
C141 C 0.610600 0.255000 0.479600
H142 H 0.629200 0.278600 0.454800
C143 C 0.617200 0.188900 0.491800
C144 C 0.589300 0.156200 0.526900
H145 H 0.592300 0.110800 0.534200
C146 C 0.555400 0.190700 0.552800
H147 H 0.537300 0.168100 0.579500
C148 C 0.655300 0.154100 0.469700
C149 C 0.735400 0.931900 0.463700
H150 H 0.732900 0.935000 0.518100
C151 C 0.744400 0.891700 0.348000
H152 H 0.749000 0.863000 0.307800
C153 C 0.739200 0.957300 0.339800
H154 H 0.739400 0.982200 0.292500
C155 C 0.745100 0.810100 0.462800
C156 C 0.719500 0.795100 0.512300
H157 H 0.698700 0.826300 0.520800
C158 C 0.776500 0.766000 0.449300
H159 H 0.794500 0.776900 0.415400
N160 N 0.241600 0.625300 0.926400
C161 C 0.235400 0.568100 0.963700
H162 H 0.232900 0.565000 1.018100
C163 C 0.244400 0.608300 0.848000
H164 H 0.249000 0.637000 0.807800
C165 C 0.239200 0.542700 0.839800
H166 H 0.239400 0.517800 0.792500
C167 C 0.245100 0.689900 0.962800
C168 C 0.219500 0.704900 1.012300
H169 H 0.198700 0.673700 1.020800
C170 C 0.276500 0.734000 0.949300
H171 H 0.294500 0.723100 0.915400
Cd172 Cd 0.272160 1.084370 1.049230
N173 N 0.266500 0.981200 1.086500
N174 N 0.258400 0.874700 1.073600
O175 O 0.228100 0.226100 1.111900
O176 O 0.219400 0.150300 0.943600
C177 C 0.264600 0.931900 1.036300
H178 H 0.267100 0.935000 0.981900
C179 C 0.255600 0.891700 1.152000
H180 H 0.251000 0.863000 1.192200
C181 C 0.260800 0.957300 1.160200
H182 H 0.260600 0.982200 1.207500
C183 C 0.254900 0.810100 1.037200
C184 C 0.280500 0.795100 0.987700
H185 H 0.301300 0.826300 0.979200
C186 C 0.223500 0.766000 1.050700
H187 H 0.205500 0.776900 1.084600
N188 N 0.733500 -0.018800 0.413500
N189 N 0.741600 -0.125300 0.426400
O190 O 1.000000 0.175700 0.250000
O191 O 0.877700 0.170300 0.125500
O192 O 0.904800 0.191400 -0.048500
O193 O 1.018500 0.207400 0.061600
O194 O 0.751800 0.121200 0.350400
O195 O 0.776700 0.050600 -0.396500
O196 O 0.780600 0.150300 -0.443600
O197 O 1.181100 0.312000 -0.061300
O198 O 1.160300 0.406000 -0.017700
C199 C 0.950700 0.185400 0.101500
C200 C 0.978400 0.137900 0.173700
H201 H 1.002900 0.115000 0.158500
H202 H 0.956700 0.105400 0.182700
C203 C 0.911300 0.220300 0.124200
H204 H 0.895600 0.253500 0.081000
H205 H 0.924700 0.241400 0.180600
C206 C 0.928100 0.148100 0.018800
H207 H 0.905100 0.116600 0.025400
H208 H 0.952600 0.123900 0.005300
C209 C 0.984600 0.240300 0.090800
H210 H 1.001000 0.262300 0.145700
H211 H 0.966400 0.272700 0.048400
C212 C 0.851400 0.177000 0.178300
C213 C 0.850100 0.232600 0.224000
H214 H 0.867300 0.269900 0.219800
C215 C 0.822600 0.232900 0.276900
H216 H 0.821300 0.270500 0.308200
C217 C 0.797400 0.176900 0.282600
C218 C 0.798100 0.123700 0.234200
H219 H 0.780500 0.086400 0.236900
C220 C 0.824200 0.124000 0.181400
H221 H 0.823400 0.087400 0.147000
C222 C 0.771800 0.175100 0.345500
C223 C 0.878800 0.167700 -0.128400
C224 C 0.870800 0.103000 -0.149300
H225 H 0.884400 0.071500 -0.106400
C226 C 0.843200 0.082400 -0.232300
H227 H 0.838900 0.037800 -0.245500
C228 C 0.822200 0.128900 -0.294400
C229 C 0.831400 0.193500 -0.272900
H230 H 0.819000 0.225100 -0.316100
C231 C 0.857900 0.214100 -0.191300
H232 H 0.861800 0.258800 -0.178300
C233 C 0.791000 0.108400 -0.382600
C234 C 1.049100 0.244300 0.039100
C235 C 1.076700 0.213100 0.003600
H236 H 1.072900 0.167900 -0.005400
C237 C 1.110600 0.245000 -0.020400
H238 H 1.129200 0.221400 -0.045200
C239 C 1.117200 0.311100 -0.008200
C240 C 1.089300 0.343800 0.026900
H241 H 1.092300 0.389200 0.034200
C242 C 1.055400 0.309300 0.052800
H243 H 1.037300 0.331900 0.079500
C244 C 1.155300 0.345900 -0.030300
C245 C 0.735400 -0.068100 0.463700
H246 H 0.732900 -0.065000 0.518100
C247 C 0.744400 -0.108300 0.348000
H248 H 0.749000 -0.137000 0.307800
C249 C 0.739200 -0.042700 0.339800
H250 H 0.739400 -0.017800 0.292500
C251 C 0.745100 -0.189900 0.462800
C252 C 0.719500 -0.204900 0.512300
H253 H 0.698700 -0.173700 0.520800
C254 C 0.776500 -0.234000 0.449300
H255 H 0.794500 -0.223100 0.415400
Cd256 Cd 0.750000 0.250000 -0.500000
Cd257 Cd 1.250000 0.250000 0.000000
Cd258 Cd 1.250000 0.250000 1.000000
Cd259 Cd 1.272160 0.084370 0.049230
Cd260 Cd 0.727840 0.084370 -0.549230
Cd261 Cd 1.227840 0.415630 -0.049230
Cd262 Cd 0.772160 -0.584370 0.549230
Cd263 Cd 1.272160 0.084370 1.049230
N264 N 0.766500 -0.481200 0.586500
N265 N 1.266500 -0.018800 0.086500
N266 N 0.758400 -0.374700 0.573600
O267 O 1.122300 0.170300 0.374500
O268 O 1.095200 0.191400 0.548500
O269 O 0.981500 0.207400 0.438400
O270 O 1.248200 0.121200 0.149600
O271 O 1.228100 0.226100 0.111900
O272 O 1.223300 0.050600 0.896500
O273 O 0.776700 0.050600 0.603500
O274 O 1.223300 0.050600 -0.103500
O275 O 1.219400 0.150300 0.943600
O276 O 1.219400 0.150300 -0.056400
O277 O 1.318900 0.188000 0.061300
O278 O 1.339700 0.094000 0.017700
C279 C 1.049300 0.185400 0.398500
C280 C 1.021600 0.137900 0.326300
H281 H 0.997100 0.115000 0.341500
H282 H 1.043300 0.105400 0.317300
C283 C 1.088700 0.220300 0.375800
H284 H 1.104400 0.253500 0.419000
H285 H 1.075300 0.241400 0.319400
C286 C 1.071900 0.148100 0.481200
H287 H 1.094900 0.116600 0.474600
H288 H 1.047400 0.123900 0.494700
C289 C 1.015400 0.240300 0.409200
H290 H 0.999000 0.262300 0.354300
H291 H 1.033600 0.272700 0.451600
C292 C 1.148600 0.177000 0.321700
C293 C 1.149900 0.232600 0.276000
H294 H 1.132700 0.269900 0.280200
C295 C 1.177400 0.232900 0.223100
H296 H 1.178700 0.270500 0.191800
C297 C 1.202600 0.176900 0.217400
C298 C 1.201900 0.123700 0.265800
H299 H 1.219500 0.086400 0.263100
C300 C 1.175800 0.124000 0.318600
H301 H 1.176600 0.087400 0.353000
C302 C 1.228200 0.175100 0.154500
C303 C 1.121200 0.167700 0.628400
C304 C 1.129200 0.103000 0.649300
H305 H 1.115600 0.071500 0.606400
C306 C 1.156800 0.082400 0.732300
H307 H 1.161100 0.037800 0.745500
C308 C 1.177800 0.128900 0.794400
C309 C 1.168600 0.193500 0.772900
H310 H 1.181000 0.225100 0.816100
C311 C 1.142100 0.214100 0.691300
H312 H 1.138200 0.258800 0.678300
C313 C 1.209000 0.108400 0.882600
C314 C 0.950900 0.244300 0.460900
C315 C 0.923300 0.213100 0.496400
H316 H 0.927100 0.167900 0.505400
C317 C 0.889400 0.245000 0.520400
H318 H 0.870800 0.221400 0.545200
C319 C 0.882800 0.311100 0.508200
C320 C 0.910700 0.343800 0.473100
H321 H 0.907700 0.389200 0.465800
C322 C 0.944600 0.309300 0.447200
H323 H 0.962700 0.331900 0.420500
C324 C 0.844700 0.345900 0.530300
C325 C 0.764600 -0.431900 0.536300
H326 H 0.767100 -0.435000 0.481900
C327 C 0.755600 -0.391700 0.652000
H328 H 0.751000 -0.363000 0.692200
C329 C 0.760800 -0.457300 0.660200
H330 H 0.760600 -0.482200 0.707500
C331 C 0.754900 -0.310100 0.537200
C332 C 0.780500 -0.295100 0.487700
H333 H 0.801300 -0.326300 0.479200
C334 C 0.723500 -0.266000 0.550700
H335 H 0.705500 -0.276900 0.584600
Cd336 Cd 0.272160 0.084370 0.049230
N337 N 0.266500 -0.018800 0.086500
N338 N 0.258400 -0.125300 0.073600
O339 O -0.000000 0.175700 0.250000
O340 O 0.122300 0.170300 0.374500
O341 O 0.095200 0.191400 0.548500
O342 O -0.018500 0.207400 0.438400
O343 O 0.248200 0.121200 0.149600
O344 O 0.228100 0.226100 0.111900
O345 O 0.223300 0.050600 0.896500
O346 O -0.181100 0.312000 0.561300
O347 O -0.160300 0.406000 0.517700
C348 C 0.049300 0.185400 0.398500
C349 C 0.021600 0.137900 0.326300
H350 H -0.002900 0.115000 0.341500
H351 H 0.043300 0.105400 0.317300
C352 C 0.088700 0.220300 0.375800
H353 H 0.104400 0.253500 0.419000
H354 H 0.075300 0.241400 0.319400
C355 C 0.071900 0.148100 0.481200
H356 H 0.094900 0.116600 0.474600
H357 H 0.047400 0.123900 0.494700
C358 C 0.015400 0.240300 0.409200
H359 H -0.001000 0.262300 0.354300
H360 H 0.033600 0.272700 0.451600
C361 C 0.148600 0.177000 0.321700
C362 C 0.149900 0.232600 0.276000
H363 H 0.132700 0.269900 0.280200
C364 C 0.177400 0.232900 0.223100
H365 H 0.178700 0.270500 0.191800
C366 C 0.202600 0.176900 0.217400
C367 C 0.201900 0.123700 0.265800
H368 H 0.219500 0.086400 0.263100
C369 C 0.175800 0.124000 0.318600
H370 H 0.176600 0.087400 0.353000
C371 C 0.228200 0.175100 0.154500
C372 C 0.121200 0.167700 0.628400
C373 C 0.129200 0.103000 0.649300
H374 H 0.115600 0.071500 0.606400
C375 C 0.156800 0.082400 0.732300
H376 H 0.161100 0.037800 0.745500
C377 C 0.177800 0.128900 0.794400
C378 C 0.168600 0.193500 0.772900
H379 H 0.181000 0.225100 0.816100
C380 C 0.142100 0.214100 0.691300
H381 H 0.138200 0.258800 0.678300
C382 C 0.209000 0.108400 0.882600
C383 C -0.049100 0.244300 0.460900
C384 C -0.076700 0.213100 0.496400
H385 H -0.072900 0.167900 0.505400
C386 C -0.110600 0.245000 0.520400
H387 H -0.129200 0.221400 0.545200
C388 C -0.117200 0.311100 0.508200
C389 C -0.089300 0.343800 0.473100
H390 H -0.092300 0.389200 0.465800
C391 C -0.055400 0.309300 0.447200
H392 H -0.037300 0.331900 0.420500
C393 C -0.155300 0.345900 0.530300
C394 C 0.264600 -0.068100 0.036300
H395 H 0.267100 -0.065000 -0.018100
C396 C 0.255600 -0.108300 0.152000
H397 H 0.251000 -0.137000 0.192200
C398 C 0.260800 -0.042700 0.160200
H399 H 0.260600 -0.017800 0.207500
C400 C 0.254900 -0.189900 0.037200
C401 C 0.280500 -0.204900 -0.012300
H402 H 0.301300 -0.173700 -0.020800
C403 C 0.223500 -0.234000 0.050700
H404 H 0.205500 -0.223100 0.084600
Cd405 Cd -0.250000 0.250000 0.500000
Cd406 Cd -0.250000 0.250000 -0.500000
Cd407 Cd -0.272160 0.084370 0.450770
Cd408 Cd -0.227840 0.415630 0.549230
Cd409 Cd 0.227840 -0.584370 -0.049230
Cd410 Cd -0.272160 0.084370 -0.549230
N411 N 0.233500 -0.481200 -0.086500
N412 N -0.266500 -0.018800 0.413500
N413 N 0.241600 -0.374700 -0.073600
O414 O -0.122300 0.170300 0.125500
O415 O -0.095200 0.191400 -0.048500
O416 O 0.018500 0.207400 0.061600
O417 O -0.248200 0.121200 0.350400
O418 O -0.228100 0.226100 0.388100
O419 O 0.271900 0.273900 -0.111900
O420 O -0.223300 0.050600 -0.396500
O421 O 0.223300 0.050600 -0.103500
O422 O -0.223300 0.050600 0.603500
O423 O -0.219400 0.150300 -0.443600
O424 O 0.219400 0.150300 -0.056400
O425 O -0.219400 0.150300 0.556400
O426 O 0.181100 0.312000 -0.061300
O427 O 0.318900 0.188000 0.061300
O428 O -0.318900 0.188000 0.438700
O429 O 0.160300 0.406000 -0.017700
O430 O 0.339700 0.094000 0.017700
O431 O -0.339700 0.094000 0.482300
C432 C -0.049300 0.185400 0.101500
C433 C -0.021600 0.137900 0.173700
H434 H 0.002900 0.115000 0.158500
H435 H -0.043300 0.105400 0.182700
C436 C -0.088700 0.220300 0.124200
H437 H -0.104400 0.253500 0.081000
H438 H -0.075300 0.241400 0.180600
C439 C -0.071900 0.148100 0.018800
H440 H -0.094900 0.116600 0.025400
H441 H -0.047400 0.123900 0.005300
C442 C -0.015400 0.240300 0.090800
H443 H 0.001000 0.262300 0.145700
H444 H -0.033600 0.272700 0.048400
C445 C -0.148600 0.177000 0.178300
C446 C -0.149900 0.232600 0.224000
H447 H -0.132700 0.269900 0.219800
C448 C -0.177400 0.232900 0.276900
H449 H -0.178700 0.270500 0.308200
C450 C -0.202600 0.176900 0.282600
C451 C -0.201900 0.123700 0.234200
H452 H -0.219500 0.086400 0.236900
C453 C -0.175800 0.124000 0.181400
H454 H -0.176600 0.087400 0.147000
C455 C -0.228200 0.175100 0.345500
C456 C -0.121200 0.167700 -0.128400
C457 C -0.129200 0.103000 -0.149300
H458 H -0.115600 0.071500 -0.106400
C459 C -0.156800 0.082400 -0.232300
H460 H -0.161100 0.037800 -0.245500
C461 C -0.177800 0.128900 -0.294400
C462 C -0.168600 0.193500 -0.272900
H463 H -0.181000 0.225100 -0.316100
C464 C -0.142100 0.214100 -0.191300
H465 H -0.138200 0.258800 -0.178300
C466 C -0.209000 0.108400 -0.382600
C467 C 0.049100 0.244300 0.039100
C468 C 0.076700 0.213100 0.003600
H469 H 0.072900 0.167900 -0.005400
C470 C 0.110600 0.245000 -0.020400
H471 H 0.129200 0.221400 -0.045200
C472 C 0.117200 0.311100 -0.008200
C473 C 0.089300 0.343800 0.026900
H474 H 0.092300 0.389200 0.034200
C475 C 0.055400 0.309300 0.052800
H476 H 0.037300 0.331900 0.079500
C477 C 0.155300 0.345900 -0.030300
C478 C 0.235400 -0.431900 -0.036300
H479 H 0.232900 -0.435000 0.018100
C480 C 0.244400 -0.391700 -0.152000
H481 H 0.249000 -0.363000 -0.192200
C482 C 0.239200 -0.457300 -0.160200
H483 H 0.239400 -0.482200 -0.207500
C484 C 0.245100 -0.310100 -0.037200
C485 C 0.219500 -0.295100 0.012300
H486 H 0.198700 -0.326300 0.020800
C487 C 0.276500 -0.266000 -0.050700
H488 H 0.294500 -0.276900 -0.084600
Cd489 Cd 0.250000 0.750000 0.500000
Cd490 Cd 0.272160 0.915630 0.549230
N491 N 0.266500 1.018800 0.586500
N492 N 0.258400 1.125300 0.573600
O493 O -0.000000 0.824300 0.750000
O494 O 0.122300 0.829700 0.874500
O495 O 0.095200 0.808600 1.048500
O496 O -0.018500 0.792600 0.938400
O497 O 0.248200 0.878800 0.649600
O498 O 0.228100 0.773900 0.611900
O499 O 0.223300 0.949400 1.396500
O500 O 0.219400 0.849700 1.443600
O501 O -0.181100 0.688000 1.061300
O502 O -0.160300 0.594000 1.017700
C503 C 0.049300 0.814600 0.898500
C504 C 0.021600 0.862100 0.826300
H505 H -0.002900 0.885000 0.841500
H506 H 0.043300 0.894600 0.817300
C507 C 0.088700 0.779700 0.875800
H508 H 0.104400 0.746500 0.919000
H509 H 0.075300 0.758600 0.819400
C510 C 0.071900 0.851900 0.981200
H511 H 0.094900 0.883400 0.974600
H512 H 0.047400 0.876100 0.994700
C513 C 0.015400 0.759700 0.909200
H514 H -0.001000 0.737700 0.854300
H515 H 0.033600 0.727300 0.951600
C516 C 0.148600 0.823000 0.821700
C517 C 0.149900 0.767400 0.776000
H518 H 0.132700 0.730100 0.780200
C519 C 0.177400 0.767100 0.723100
H520 H 0.178700 0.729500 0.691800
C521 C 0.202600 0.823100 0.717400
C522 C 0.201900 0.876300 0.765800
H523 H 0.219500 0.913600 0.763100
C524 C 0.175800 0.876000 0.818600
H525 H 0.176600 0.912600 0.853000
C526 C 0.228200 0.824900 0.654500
C527 C 0.121200 0.832300 1.128400
C528 C 0.129200 0.897000 1.149300
H529 H 0.115600 0.928500 1.106400
C530 C 0.156800 0.917600 1.232300
H531 H 0.161100 0.962200 1.245500
C532 C 0.177800 0.871100 1.294400
C533 C 0.168600 0.806500 1.272900
H534 H 0.181000 0.774900 1.316100
C535 C 0.142100 0.785900 1.191300
H536 H 0.138200 0.741200 1.178300
C537 C 0.209000 0.891600 1.382600
C538 C -0.049100 0.755700 0.960900
C539 C -0.076700 0.786900 0.996400
H540 H -0.072900 0.832100 1.005400
C541 C -0.110600 0.755000 1.020400
H542 H -0.129200 0.778600 1.045200
C543 C -0.117200 0.688900 1.008200
C544 C -0.089300 0.656200 0.973100
H545 H -0.092300 0.610800 0.965800
C546 C -0.055400 0.690700 0.947200
H547 H -0.037300 0.668100 0.920500
C548 C -0.155300 0.654100 1.030300
C549 C 0.264600 1.068100 0.536300
H550 H 0.267100 1.065000 0.481900
C551 C 0.255600 1.108300 0.652000
H552 H 0.251000 1.137000 0.692200
C553 C 0.260800 1.042700 0.660200
H554 H 0.260600 1.017800 0.707500
C555 C 0.254900 1.189900 0.537200
C556 C 0.280500 1.204900 0.487700
H557 H 0.301300 1.173700 0.479200
C558 C 0.223500 1.234000 0.550700
H559 H 0.205500 1.223100 0.584600
Cd560 Cd 0.250000 0.750000 1.500000
Cd561 Cd -0.250000 0.750000 1.000000
Cd562 Cd -0.250000 0.750000 0.000000
Cd563 Cd -0.272160 0.915630 0.950770
Cd564 Cd 0.272160 0.915630 1.549230
Cd565 Cd -0.227840 0.584370 1.049230
Cd566 Cd 0.227840 1.584370 0.450770
Cd567 Cd -0.272160 0.915630 -0.049230
Cd568 Cd 0.227840 0.584370 0.450770
N569 N 0.233500 1.481200 0.413500
N570 N -0.266500 1.018800 0.913500
N571 N 0.241600 1.374700 0.426400
O572 O -0.122300 0.829700 0.625500
O573 O -0.095200 0.808600 0.451500
O574 O 0.018500 0.792600 0.561600
O575 O -0.248200 0.878800 0.850400
O576 O -0.228100 0.773900 0.888100
O577 O 0.271900 0.726100 0.388100
O578 O -0.223300 0.949400 0.103500
O579 O 0.223300 0.949400 0.396500
O580 O -0.223300 0.949400 1.103500
O581 O -0.219400 0.849700 0.056400
O582 O 0.219400 0.849700 0.443600
O583 O 0.280600 0.650300 0.556400
O584 O -0.219400 0.849700 1.056400
O585 O 0.181100 0.688000 0.438700
O586 O 0.318900 0.812000 0.561300
O587 O -0.318900 0.812000 0.938700
O588 O 0.160300 0.594000 0.482300
O589 O 0.339700 0.906000 0.517700
O590 O -0.339700 0.906000 0.982300
C591 C -0.049300 0.814600 0.601500
C592 C -0.021600 0.862100 0.673700
H593 H 0.002900 0.885000 0.658500
H594 H -0.043300 0.894600 0.682700
C595 C -0.088700 0.779700 0.624200
H596 H -0.104400 0.746500 0.581000
H597 H -0.075300 0.758600 0.680600
C598 C -0.071900 0.851900 0.518800
H599 H -0.094900 0.883400 0.525400
H600 H -0.047400 0.876100 0.505300
C601 C -0.015400 0.759700 0.590800
H602 H 0.001000 0.737700 0.645700
H603 H -0.033600 0.727300 0.548400
C604 C -0.148600 0.823000 0.678300
C605 C -0.149900 0.767400 0.724000
H606 H -0.132700 0.730100 0.719800
C607 C -0.177400 0.767100 0.776900
H608 H -0.178700 0.729500 0.808200
C609 C -0.202600 0.823100 0.782600
C610 C -0.201900 0.876300 0.734200
H611 H -0.219500 0.913600 0.736900
C612 C -0.175800 0.876000 0.681400
H613 H -0.176600 0.912600 0.647000
C614 C -0.228200 0.824900 0.845500
C615 C -0.121200 0.832300 0.371600
C616 C -0.129200 0.897000 0.350700
H617 H -0.115600 0.928500 0.393600
C618 C -0.156800 0.917600 0.267700
H619 H -0.161100 0.962200 0.254500
C620 C -0.177800 0.871100 0.205600
C621 C -0.168600 0.806500 0.227100
H622 H -0.181000 0.774900 0.183900
C623 C -0.142100 0.785900 0.308700
H624 H -0.138200 0.741200 0.321700
C625 C -0.209000 0.891600 0.117400
C626 C 0.049100 0.755700 0.539100
C627 C 0.076700 0.786900 0.503600
H628 H 0.072900 0.832100 0.494600
C629 C 0.110600 0.755000 0.479600
H630 H 0.129200 0.778600 0.454800
C631 C 0.117200 0.688900 0.491800
C632 C 0.089300 0.656200 0.526900
H633 H 0.092300 0.610800 0.534200
C634 C 0.055400 0.690700 0.552800
H635 H 0.037300 0.668100 0.579500
C636 C 0.155300 0.654100 0.469700
C637 C 0.235400 1.431900 0.463700
H638 H 0.232900 1.435000 0.518100
C639 C 0.244400 1.391700 0.348000
H640 H 0.249000 1.363000 0.307800
C641 C 0.239200 1.457300 0.339800
H642 H 0.239400 1.482200 0.292500
C643 C 0.245100 1.310100 0.462800
C644 C 0.219500 1.295100 0.512300
H645 H 0.198700 1.326300 0.520800
C646 C 0.276500 1.266000 0.449300
H647 H 0.294500 1.276900 0.415400
Cd648 Cd 0.750000 0.750000 1.000000
Cd649 Cd 0.727840 0.915630 0.950770
N650 N 0.733500 1.018800 0.913500
N651 N 0.741600 1.125300 0.926400
O652 O 1.000000 0.824300 0.750000
O653 O 0.877700 0.829700 0.625500
O654 O 0.904800 0.808600 0.451500
O655 O 1.018500 0.792600 0.561600
O656 O 0.751800 0.878800 0.850400
O657 O 0.771900 0.773900 0.888100
O658 O 0.776700 0.949400 0.103500
O659 O 0.780600 0.849700 0.056400
O660 O 1.181100 0.688000 0.438700
O661 O 1.160300 0.594000 0.482300
C662 C 0.950700 0.814600 0.601500
C663 C 0.978400 0.862100 0.673700
H664 H 1.002900 0.885000 0.658500
H665 H 0.956700 0.894600 0.682700
C666 C 0.911300 0.779700 0.624200
H667 H 0.895600 0.746500 0.581000
H668 H 0.924700 0.758600 0.680600
C669 C 0.928100 0.851900 0.518800
H670 H 0.905100 0.883400 0.525400
H671 H 0.952600 0.876100 0.505300
C672 C 0.984600 0.759700 0.590800
H673 H 1.001000 0.737700 0.645700
H674 H 0.966400 0.727300 0.548400
C675 C 0.851400 0.823000 0.678300
C676 C 0.850100 0.767400 0.724000
H677 H 0.867300 0.730100 0.719800
C678 C 0.822600 0.767100 0.776900
H679 H 0.821300 0.729500 0.808200
C680 C 0.797400 0.823100 0.782600
C681 C 0.798100 0.876300 0.734200
H682 H 0.780500 0.913600 0.736900
C683 C 0.824200 0.876000 0.681400
H684 H 0.823400 0.912600 0.647000
C685 C 0.771800 0.824900 0.845500
C686 C 0.878800 0.832300 0.371600
C687 C 0.870800 0.897000 0.350700
H688 H 0.884400 0.928500 0.393600
C689 C 0.843200 0.917600 0.267700
H690 H 0.838900 0.962200 0.254500
C691 C 0.822200 0.871100 0.205600
C692 C 0.831400 0.806500 0.227100
H693 H 0.819000 0.774900 0.183900
C694 C 0.857900 0.785900 0.308700
H695 H 0.861800 0.741200 0.321700
C696 C 0.791000 0.891600 0.117400
C697 C 1.049100 0.755700 0.539100
C698 C 1.076700 0.786900 0.503600
H699 H 1.072900 0.832100 0.494600
C700 C 1.110600 0.755000 0.479600
H701 H 1.129200 0.778600 0.454800
C702 C 1.117200 0.688900 0.491800
C703 C 1.089300 0.656200 0.526900
H704 H 1.092300 0.610800 0.534200
C705 C 1.055400 0.690700 0.552800
H706 H 1.037300 0.668100 0.579500
C707 C 1.155300 0.654100 0.469700
C708 C 0.735400 1.068100 0.963700
H709 H 0.732900 1.065000 1.018100
C710 C 0.744400 1.108300 0.848000
H711 H 0.749000 1.137000 0.807800
C712 C 0.739200 1.042700 0.839800
H713 H 0.739400 1.017800 0.792500
C714 C 0.745100 1.189900 0.962800
C715 C 0.719500 1.204900 1.012300
H716 H 0.698700 1.173700 1.020800
C717 C 0.776500 1.234000 0.949300
H718 H 0.794500 1.223100 0.915400
Cd719 Cd 0.750000 0.750000 0.000000
Cd720 Cd 1.250000 0.750000 0.500000
Cd721 Cd 1.250000 0.750000 1.500000
Cd722 Cd 1.272160 0.915630 0.549230
Cd723 Cd 0.727840 0.915630 -0.049230
Cd724 Cd 1.227840 0.584370 0.450770
Cd725 Cd 0.772160 1.584370 1.049230
Cd726 Cd 1.272160 0.915630 1.549230
Cd727 Cd 0.772160 0.584370 1.049230
N728 N 0.766500 1.481200 1.086500
N729 N 1.266500 1.018800 0.586500
N730 N 0.758400 1.374700 1.073600
O731 O 1.122300 0.829700 0.874500
O732 O 1.095200 0.808600 1.048500
O733 O 0.981500 0.792600 0.938400
O734 O 1.248200 0.878800 0.649600
O735 O 1.228100 0.773900 0.611900
O736 O 0.728100 0.726100 1.111900
O737 O 1.223300 0.949400 1.396500
O738 O 0.776700 0.949400 1.103500
O739 O 1.223300 0.949400 0.396500
O740 O 1.219400 0.849700 1.443600
O741 O 0.780600 0.849700 1.056400
O742 O 0.719400 0.650300 0.943600
O743 O 1.219400 0.849700 0.443600
O744 O 0.818900 0.688000 1.061300
O745 O 0.681100 0.812000 0.938700
O746 O 1.318900 0.812000 0.561300
O747 O 0.839700 0.594000 1.017700
O748 O 0.660300 0.906000 0.982300
O749 O 1.339700 0.906000 0.517700
C750 C 1.049300 0.814600 0.898500
C751 C 1.021600 0.862100 0.826300
H752 H 0.997100 0.885000 0.841500
H753 H 1.043300 0.894600 0.817300
C754 C 1.088700 0.779700 0.875800
H755 H 1.104400 0.746500 0.919000
H756 H 1.075300 0.758600 0.819400
C757 C 1.071900 0.851900 0.981200
H758 H 1.094900 0.883400 0.974600
H759 H 1.047400 0.876100 0.994700
C760 C 1.015400 0.759700 0.909200
H761 H 0.999000 0.737700 0.854300
H762 H 1.033600 0.727300 0.951600
C763 C 1.148600 0.823000 0.821700
C764 C 1.149900 0.767400 0.776000
H765 H 1.132700 0.730100 0.780200
C766 C 1.177400 0.767100 0.723100
H767 H 1.178700 0.729500 0.691800
C768 C 1.202600 0.823100 0.717400
C769 C 1.201900 0.876300 0.765800
H770 H 1.219500 0.913600 0.763100
C771 C 1.175800 0.876000 0.818600
H772 H 1.176600 0.912600 0.853000
C773 C 1.228200 0.824900 0.654500
C774 C 1.121200 0.832300 1.128400
C775 C 1.129200 0.897000 1.149300
H776 H 1.115600 0.928500 1.106400
C777 C 1.156800 0.917600 1.232300
H778 H 1.161100 0.962200 1.245500
C779 C 1.177800 0.871100 1.294400
C780 C 1.168600 0.806500 1.272900
H781 H 1.181000 0.774900 1.316100
C782 C 1.142100 0.785900 1.191300
H783 H 1.138200 0.741200 1.178300
C784 C 1.209000 0.891600 1.382600
C785 C 0.950900 0.755700 0.960900
C786 C 0.923300 0.786900 0.996400
H787 H 0.927100 0.832100 1.005400
C788 C 0.889400 0.755000 1.020400
H789 H 0.870800 0.778600 1.045200
C790 C 0.882800 0.688900 1.008200
C791 C 0.910700 0.656200 0.973100
H792 H 0.907700 0.610800 0.965800
C793 C 0.944600 0.690700 0.947200
H794 H 0.962700 0.668100 0.920500
C795 C 0.844700 0.654100 1.030300
C796 C 0.764600 1.431900 1.036300
H797 H 0.767100 1.435000 0.981900
C798 C 0.755600 1.391700 1.152000
H799 H 0.751000 1.363000 1.192200
C800 C 0.760800 1.457300 1.160200
H801 H 0.760600 1.482200 1.207500
C802 C 0.754900 1.310100 1.037200
C803 C 0.780500 1.295100 0.987700
H804 H 0.801300 1.326300 0.979200
C805 C 0.723500 1.266000 1.050700
H806 H 0.705500 1.276900 1.084600
N807 N 0.233500 0.481200 0.413500
N808 N 0.241600 0.374700 0.426400
O809 O 0.500000 0.675700 0.250000
O810 O 0.377700 0.670300 0.125500
O811 O 0.404800 0.691400 -0.048500
O812 O 0.518500 0.707400 0.061600
O813 O 0.251800 0.621200 0.350400
O814 O 0.276700 0.550600 -0.396500
O815 O 0.280600 0.650300 -0.443600
O816 O 0.681100 0.812000 -0.061300
O817 O 0.660300 0.906000 -0.017700
C818 C 0.450700 0.685400 0.101500
C819 C 0.478400 0.637900 0.173700
H820 H 0.502900 0.615000 0.158500
H821 H 0.456700 0.605400 0.182700
C822 C 0.411300 0.720300 0.124200
H823 H 0.395600 0.753500 0.081000
H824 H 0.424700 0.741400 0.180600
C825 C 0.428100 0.648100 0.018800
H826 H 0.405100 0.616600 0.025400
H827 H 0.452600 0.623900 0.005300
C828 C 0.484600 0.740300 0.090800
H829 H 0.501000 0.762300 0.145700
H830 H 0.466400 0.772700 0.048400
C831 C 0.351400 0.677000 0.178300
C832 C 0.350100 0.732600 0.224000
H833 H 0.367300 0.769900 0.219800
C834 C 0.322600 0.732900 0.276900
H835 H 0.321300 0.770500 0.308200
C836 C 0.297400 0.676900 0.282600
C837 C 0.298100 0.623700 0.234200
H838 H 0.280500 0.586400 0.236900
C839 C 0.324200 0.624000 0.181400
H840 H 0.323400 0.587400 0.147000
C841 C 0.271800 0.675100 0.345500
C842 C 0.378800 0.667700 -0.128400
C843 C 0.370800 0.603000 -0.149300
H844 H 0.384400 0.571500 -0.106400
C845 C 0.343200 0.582400 -0.232300
H846 H 0.338900 0.537800 -0.245500
C847 C 0.322200 0.628900 -0.294400
C848 C 0.331400 0.693500 -0.272900
H849 H 0.319000 0.725100 -0.316100
C850 C 0.357900 0.714100 -0.191300
H851 H 0.361800 0.758800 -0.178300
C852 C 0.291000 0.608400 -0.382600
C853 C 0.549100 0.744300 0.039100
C854 C 0.576700 0.713100 0.003600
H855 H 0.572900 0.667900 -0.005400
C856 C 0.610600 0.745000 -0.020400
H857 H 0.629200 0.721400 -0.045200
C858 C 0.617200 0.811100 -0.008200
C859 C 0.589300 0.843800 0.026900
H860 H 0.592300 0.889200 0.034200
C861 C 0.555400 0.809300 0.052800
H862 H 0.537300 0.831900 0.079500
C863 C 0.655300 0.845900 -0.030300
C864 C 0.235400 0.431900 0.463700
H865 H 0.232900 0.435000 0.518100
C866 C 0.244400 0.391700 0.348000
H867 H 0.249000 0.363000 0.307800
C868 C 0.239200 0.457300 0.339800
H869 H 0.239400 0.482200 0.292500
C870 C 0.245100 0.310100 0.462800
C871 C 0.219500 0.295100 0.512300
H872 H 0.198700 0.326300 0.520800
C873 C 0.276500 0.266000 0.449300
H874 H 0.294500 0.276900 0.415400
Cd875 Cd 0.250000 0.750000 -0.500000
Cd876 Cd 0.772160 0.584370 0.049230
Cd877 Cd 0.227840 0.584370 -0.549230
Cd878 Cd 0.272160 -0.084370 0.549230
N879 N 0.266500 0.018800 0.586500
N880 N 0.766500 0.481200 0.086500
N881 N 0.258400 0.125300 0.573600
O882 O 0.622300 0.670300 0.374500
O883 O 0.595200 0.691400 0.548500
O884 O 0.481500 0.707400 0.438400
O885 O 0.748200 0.621200 0.149600
O886 O 0.728100 0.726100 0.111900
O887 O 0.723300 0.550600 0.896500
O888 O 0.276700 0.550600 0.603500
O889 O 0.723300 0.550600 -0.103500
O890 O 0.719400 0.650300 -0.056400
O891 O 0.818900 0.688000 0.061300
O892 O 0.839700 0.594000 0.017700
C893 C 0.549300 0.685400 0.398500
C894 C 0.521600 0.637900 0.326300
H895 H 0.497100 0.615000 0.341500
H896 H 0.543300 0.605400 0.317300
C897 C 0.588700 0.720300 0.375800
H898 H 0.604400 0.753500 0.419000
H899 H 0.575300 0.741400 0.319400
C900 C 0.571900 0.648100 0.481200
H901 H 0.594900 0.616600 0.474600
H902 H 0.547400 0.623900 0.494700
C903 C 0.515400 0.740300 0.409200
H904 H 0.499000 0.762300 0.354300
H905 H 0.533600 0.772700 0.451600
C906 C 0.648600 0.677000 0.321700
C907 C 0.649900 0.732600 0.276000
H908 H 0.632700 0.769900 0.280200
C909 C 0.677400 0.732900 0.223100
H910 H 0.678700 0.770500 0.191800
C911 C 0.702600 0.676900 0.217400
C912 C 0.701900 0.623700 0.265800
H913 H 0.719500 0.586400 0.263100
C914 C 0.675800 0.624000 0.318600
H915 H 0.676600 0.587400 0.353000
C916 C 0.728200 0.675100 0.154500
C917 C 0.621200 0.667700 0.628400
C918 C 0.629200 0.603000 0.649300
H919 H 0.615600 0.571500 0.606400
C920 C 0.656800 0.582400 0.732300
H921 H 0.661100 0.537800 0.745500
C922 C 0.677800 0.628900 0.794400
C923 C 0.668600 0.693500 0.772900
H924 H 0.681000 0.725100 0.816100
C925 C 0.642100 0.714100 0.691300
H926 H 0.638200 0.758800 0.678300
C927 C 0.709000 0.608400 0.882600
C928 C 0.450900 0.744300 0.460900
C929 C 0.423300 0.713100 0.496400
H930 H 0.427100 0.667900 0.505400
C931 C 0.389400 0.745000 0.520400
H932 H 0.370800 0.721400 0.545200
C933 C 0.382800 0.811100 0.508200
C934 C 0.410700 0.843800 0.473100
H935 H 0.407700 0.889200 0.465800
C936 C 0.444600 0.809300 0.447200
H937 H 0.462700 0.831900 0.420500
C938 C 0.344700 0.845900 0.530300
C939 C 0.264600 0.068100 0.536300
H940 H 0.267100 0.065000 0.481900
C941 C 0.255600 0.108300 0.652000
H942 H 0.251000 0.137000 0.692200
C943 C 0.260800 0.042700 0.660200
H944 H 0.260600 0.017800 0.707500
C945 C 0.254900 0.189900 0.537200
C946 C 0.280500 0.204900 0.487700
H947 H 0.301300 0.173700 0.479200
C948 C 0.223500 0.234000 0.550700
H949 H 0.205500 0.223100 0.584600
N950 N 0.758400 0.374700 0.073600
C951 C 0.764600 0.431900 0.036300
H952 H 0.767100 0.435000 -0.018100
C953 C 0.755600 0.391700 0.152000
H954 H 0.751000 0.363000 0.192200
C955 C 0.760800 0.457300 0.160200
H956 H 0.760600 0.482200 0.207500
C957 C 0.754900 0.310100 0.037200
C958 C 0.780500 0.295100 -0.012300
H959 H 0.801300 0.326300 -0.020800
C960 C 0.723500 0.266000 0.050700
H961 H 0.705500 0.276900 0.084600
Cd962 Cd 0.727840 -0.084370 -0.049230
N963 N 0.733500 0.018800 -0.086500
N964 N 0.741600 0.125300 -0.073600
O965 O 0.771900 0.773900 -0.111900
C966 C 0.735400 0.068100 -0.036300
H967 H 0.732900 0.065000 0.018100
C968 C 0.744400 0.108300 -0.152000
H969 H 0.749000 0.137000 -0.192200
C970 C 0.739200 0.042700 -0.160200
H971 H 0.739400 0.017800 -0.207500
C972 C 0.745100 0.189900 -0.037200
C973 C 0.719500 0.204900 0.012300
H974 H 0.698700 0.173700 0.020800
C975 C 0.776500 0.234000 -0.050700
H976 H 0.794500 0.223100 -0.084600

#END
