
#######################################################################
#
#                 Cambridge Crystallographic Data Centre
#                                CCDC 
#
#######################################################################
#
# If this CIF has been generated from an entry in the Cambridge 
# Structural Database, then it will include bibliographic, chemical, 
# crystal, experimental, refinement or atomic coordinate data resulting 
# from the CCDC's data processing and validation procedures.
#
#######################################################################

data_ACOMOW
_symmetry_cell_setting           triclinic
_symmetry_space_group_name_H-M   'P -1'
_symmetry_Int_Tables_number      2
_space_group_name_Hall           '-P 1'
loop_
_symmetry_equiv_pos_site_id
_symmetry_equiv_pos_as_xyz
1 x,y,z
2 -x,-y,-z
_cell_length_a                   8.7790(2)
_cell_length_b                   24.3199(6)
_cell_length_c                   30.6605(8)
_cell_angle_alpha                71.677(2)
_cell_angle_beta                 84.871(2)
_cell_angle_gamma                83.430(2)
_cell_volume                     6163.53
loop_
_atom_site_label
_atom_site_type_symbol
_atom_site_fract_x
_atom_site_fract_y
_atom_site_fract_z
C1 C 0.2202(3) 0.99654(9) 0.42021(8)
C2 C 0.2447(3) 0.96170(12) 0.46457(9)
H1 H 0.3435 0.9566 0.4764
C3 C 0.1245(3) 0.93440(12) 0.49156(10)
H2 H 0.1434 0.91 0.5219
C4 C -0.0411(3) 0.97491(12) 0.43447(9)
H3 H -0.1416 0.98 0.4238
C5 C 0.0738(3) 1.00346(11) 0.40510(9)
H4 H 0.0522 1.0275 0.3749
C6 C 0.3446(3) 1.02813(9) 0.38802(8)
N1 N 0.4877(2) 1.01337(8) 0.40122(7)
H5 H 0.5641 1.0307 0.3837
H6 H 0.5061 0.9863 0.4275
N2 N -0.0165(3) 0.94055(9) 0.47718(7)
O1 O 0.3106(2) 1.06570(7) 0.35166(6)
C1 C 0.7798(3) 0.00346(9) 0.57979(8)
C2 C 0.7553(3) 0.03830(12) 0.53543(9)
H1 H 0.6565 0.0434 0.5236
C3 C 0.8755(3) 0.06560(12) 0.50844(10)
H2 H 0.8566 0.09 0.4781
C4 C 1.0411(3) 0.02509(12) 0.56553(9)
H3 H 1.1416 0.02 0.5762
C5 C 0.9262(3) -0.00346(11) 0.59490(9)
H4 H 0.9478 -0.0275 0.6251
C6 C 0.6554(3) -0.02813(9) 0.61198(8)
N1 N 0.5123(2) -0.01337(8) 0.59878(7)
H5 H 0.4359 -0.0307 0.6163
H6 H 0.4939 0.0137 0.5725
N2 N 1.0165(3) 0.05945(9) 0.52282(7)
O1 O 0.6894(2) -0.06570(7) 0.64834(6)
C7 C 0.8253(3) 0.14845(9) 0.27531(7)
C8 C 0.7926(3) 0.19931(10) 0.24019(8)
H7 H 0.6893 0.2136 0.2334
C9 C 0.9130(3) 0.22892(11) 0.21521(9)
H8 H 0.8898 0.2643 0.1916
C10 C 1.0909(3) 0.16120(11) 0.25634(9)
H9 H 1.1953 0.1477 0.262
C11 C 0.9772(3) 0.12891(11) 0.28361(9)
H10 H 1.0034 0.0941 0.3075
C12 C 0.7018(3) 0.11378(10) 0.30573(8)
N3 N 0.5608(2) 0.12504(9) 0.29081(7)
H11 H 0.4852 0.1063 0.3077
H12 H 0.5428 0.1513 0.2641
N4 N 1.0597(2) 0.21041(9) 0.22251(7)
O2 O 0.7350(2) 0.07772(7) 0.34272(6)
C7 C 0.1747(3) 0.85155(9) 0.72469(7)
C8 C 0.2074(3) 0.80069(10) 0.75981(8)
H7 H 0.3107 0.7864 0.7666
C9 C 0.0870(3) 0.77108(11) 0.78479(9)
H8 H 0.1102 0.7357 0.8084
C10 C -0.0909(3) 0.83880(11) 0.74366(9)
H9 H -0.1953 0.8523 0.738
C11 C 0.0228(3) 0.87109(11) 0.71639(9)
H10 H -0.0034 0.9059 0.6925
C12 C 0.2982(3) 0.88622(10) 0.69427(8)
N3 N 0.4392(2) 0.87496(9) 0.70919(7)
H11 H 0.5148 0.8937 0.6923
H12 H 0.4572 0.8487 0.7359
N4 N -0.0597(2) 0.78959(9) 0.77749(7)
O2 O 0.2650(2) 0.92228(7) 0.65728(6)
C13 C 0.2791(3) 0.36018(10) 0.22731(7)
C14 C 0.2604(3) 0.30723(10) 0.26109(8)
H13 H 0.1645 0.291 0.2666
C15 C 0.3848(3) 0.27874(11) 0.28646(8)
H14 H 0.372 0.2424 0.3092
C16 C 0.5385(3) 0.35063(11) 0.24797(9)
H15 H 0.6354 0.366 0.2434
C17 C 0.4215(3) 0.38152(11) 0.22078(9)
H16 H 0.4385 0.4172 0.1977
C18 C 0.1525(3) 0.39361(10) 0.19668(8)
N5 N 0.0099(2) 0.38025(9) 0.21108(7)
H17 H -0.0673 0.3981 0.194
H18 H -0.0071 0.3536 0.2376
N6 N 0.5208(2) 0.29961(9) 0.28062(7)
O3 O 0.1851(2) 0.43046(7) 0.15990(6)
C13 C 0.7209(3) 0.63982(10) 0.77269(7)
C14 C 0.7396(3) 0.69277(10) 0.73891(8)
H13 H 0.8355 0.709 0.7334
C15 C 0.6152(3) 0.72126(11) 0.71354(8)
H14 H 0.628 0.7576 0.6908
C16 C 0.4615(3) 0.64937(11) 0.75203(9)
H15 H 0.3646 0.634 0.7566
C17 C 0.5785(3) 0.61848(11) 0.77922(9)
H16 H 0.5615 0.5828 0.8023
C18 C 0.8475(3) 0.60639(10) 0.80332(8)
N5 N 0.9901(2) 0.61975(9) 0.78892(7)
H17 H 1.0673 0.6019 0.806
H18 H 1.0071 0.6464 0.7624
N6 N 0.4792(2) 0.70039(9) 0.71938(7)
O3 O 0.8149(2) 0.56954(7) 0.84010(6)
C19 C 0.6712(3) 0.50350(9) 0.07865(8)
C20 C 0.7026(3) 0.53740(11) 0.03387(9)
H19 H 0.8057 0.5421 0.022
C21 C 0.5820(3) 0.56431(12) 0.00666(9)
H20 H 0.6047 0.5869 -0.0242
C22 C 0.4050(3) 0.52667(11) 0.06437(9)
H21 H 0.3007 0.5227 0.0752
C23 C 0.5193(3) 0.49738(10) 0.09390(9)
H22 H 0.4934 0.4735 0.1241
C24 C 0.7941(3) 0.47315(10) 0.11170(8)
N7 N 0.9357(2) 0.48910(9) 0.09928(7)
H23 H 1.0112 0.4728 0.1175
H24 H 0.9538 0.5159 0.0729
N8 N 0.4355(3) 0.56012(9) 0.02160(8)
O4 O 0.7609(2) 0.43594(7) 0.14816(6)
C19 C 0.3288(3) 0.49650(9) 0.92135(8)
C20 C 0.2974(3) 0.46260(11) 0.96613(9)
H19 H 0.1943 0.4579 0.978
C21 C 0.4180(3) 0.43569(12) 0.99334(9)
H20 H 0.3953 0.4131 1.0242
C22 C 0.5950(3) 0.47333(11) 0.93563(9)
H21 H 0.6993 0.4773 0.9248
C23 C 0.4807(3) 0.50262(10) 0.90610(9)
H22 H 0.5066 0.5265 0.8759
C24 C 0.2059(3) 0.52685(10) 0.88830(8)
N7 N 0.0643(2) 0.51090(9) 0.90072(7)
H23 H -0.0112 0.5272 0.8825
H24 H 0.0462 0.4841 0.9271
N8 N 0.5645(3) 0.43988(9) 0.97840(8)
O4 O 0.2391(2) 0.56406(7) 0.85184(6)
C25 C 0.9103(3) 0.70778(10) 0.04154(8)
C26 C 0.9256(3) 0.76282(10) 0.01094(8)
H25 H 1.0204 0.7797 0.0068
C27 C 0.8014(3) 0.79281(11) -0.01339(9)
H26 H 0.8129 0.8307 -0.034
C28 C 0.6507(3) 0.71852(12) 0.02023(9)
H27 H 0.5545 0.7028 0.0237
C29 C 0.7699(3) 0.68572(11) 0.04621(9)
H28 H 0.7549 0.6483 0.0671
C30 C 1.0376(3) 0.67275(10) 0.07092(8)
N9 N 0.6665(2) 0.77145(9) -0.00957(7)
N10 N 1.1797(2) 0.68609(9) 0.05663(7)
H29 H 1.2573 0.6672 0.0731
H30 H 1.1964 0.7139 0.0307
O5 O 1.0058(2) 0.63422(8) 0.10700(6)
C25 C 0.0897(3) 0.29222(10) 0.95846(8)
C26 C 0.0744(3) 0.23718(10) 0.98906(8)
H25 H -0.0204 0.2203 0.9932
C27 C 0.1986(3) 0.20719(11) 1.01339(9)
H26 H 0.1871 0.1693 1.034
C28 C 0.3493(3) 0.28148(12) 0.97977(9)
H27 H 0.4455 0.2972 0.9763
C29 C 0.2301(3) 0.31428(11) 0.95379(9)
H28 H 0.2451 0.3517 0.9329
C30 C -0.0376(3) 0.32725(10) 0.92908(8)
N9 N 0.3335(2) 0.22855(9) 1.00957(7)
N10 N -0.1797(2) 0.31391(9) 0.94337(7)
H29 H -0.2573 0.3328 0.9269
H30 H -0.1964 0.2861 0.9693
O5 O -0.0058(2) 0.36578(8) 0.89300(6)
C31 C 0.5224(3) 0.55901(9) 0.18619(8)
C32 C 0.4917(3) 0.52452(11) 0.23125(9)
H31 H 0.3889 0.5201 0.2435
C33 C 0.6135(3) 0.49701(12) 0.25774(10)
H32 H 0.592 0.4734 0.2884
C34 C 0.7882(3) 0.53576(11) 0.19994(9)
H33 H 0.8921 0.5399 0.1888
C35 C 0.6735(3) 0.56529(10) 0.17093(8)
H34 H 0.6988 0.5896 0.1408
C36 C 0.3980(3) 0.58939(10) 0.15388(8)
N11 N 0.2568(2) 0.57368(9) 0.16638(7)
H35 H 0.181 0.5904 0.1485
H36 H 0.2391 0.5465 0.1926
N12 N 0.7596(2) 0.50185(9) 0.24264(7)
O6 O 0.4308(2) 0.62706(7) 0.11771(6)
C31 C 0.4776(3) 0.44099(9) 0.81381(8)
C32 C 0.5083(3) 0.47548(11) 0.76875(9)
H31 H 0.6111 0.4799 0.7565
C33 C 0.3865(3) 0.50299(12) 0.74226(10)
H32 H 0.408 0.5266 0.7116
C34 C 0.2118(3) 0.46424(11) 0.80006(9)
H33 H 0.1079 0.4601 0.8112
C35 C 0.3265(3) 0.43471(10) 0.82907(8)
H34 H 0.3012 0.4104 0.8592
C36 C 0.6020(3) 0.41061(10) 0.84612(8)
N11 N 0.7432(2) 0.42632(9) 0.83362(7)
H35 H 0.819 0.4096 0.8515
H36 H 0.7609 0.4535 0.8074
N12 N 0.2404(2) 0.49815(9) 0.75736(7)
O6 O 0.5692(2) 0.37294(7) 0.88229(6)
C37 C 0.3545(3) 0.92311(10) -0.00342(7)
C38 C 0.3843(3) 0.87556(11) 0.03469(9)
H37 H 0.4866 0.8625 0.0434
C39 C 0.2614(3) 0.84723(12) 0.05996(9)
H38 H 0.2826 0.8141 0.0858
C40 C 0.0888(3) 0.90919(11) 0.01338(9)
H39 H -0.0147 0.9215 0.0057
C41 C 0.2040(3) 0.93939(11) -0.01425(8)
H40 H 0.1793 0.9713 -0.0407
C42 C 0.4800(3) 0.95642(9) -0.03381(7)
N13 N 0.6200(2) 0.94521(8) -0.01870(7)
H41 H 0.6961 0.9635 -0.0356
H42 H 0.6372 0.9194 0.0083
N14 N 0.1168(2) 0.86369(9) 0.05016(7)
O7 O 0.4487(2) 0.99204(7) -0.07129(5)
C37 C 0.6455(3) 0.07689(10) 1.00342(7)
C38 C 0.6157(3) 0.12444(11) 0.96531(9)
H37 H 0.5134 0.1375 0.9566
C39 C 0.7386(3) 0.15277(12) 0.94004(9)
H38 H 0.7174 0.1859 0.9142
C40 C 0.9112(3) 0.09081(11) 0.98662(9)
H39 H 1.0147 0.0785 0.9943
C41 C 0.7960(3) 0.06061(11) 1.01425(8)
H40 H 0.8207 0.0287 1.0407
C42 C 0.5200(3) 0.04358(9) 1.03381(7)
N13 N 0.3800(2) 0.05479(8) 1.01870(7)
H41 H 0.3039 0.0365 1.0356
H42 H 0.3628 0.0806 0.9917
N14 N 0.8832(2) 0.13631(9) 0.94984(7)
O7 O 0.5513(2) 0.00796(7) 1.07129(5)
C43 C 0.9627(3) 0.06756(9) 0.84936(8)
C44 C 0.9431(3) 0.09034(10) 0.80226(8)
H43 H 0.8481 0.0898 0.7899
C45 C 1.0658(3) 0.11371(11) 0.77419(9)
H44 H 1.0518 0.13 0.7422
C46 C 1.2215(3) 0.09215(11) 0.83427(9)
H45 H 1.3189 0.0922 0.8455
C47 C 1.1041(3) 0.06831(11) 0.86536(9)
H46 H 1.1208 0.0527 0.8973
C48 C 0.8350(3) 0.04088(10) 0.88332(8)
N15 N 0.6932(2) 0.05566(9) 0.87018(7)
H47 H 0.6158 0.041 0.8889
H48 H 0.6759 0.0802 0.8427
N16 N 1.2030(2) 0.11505(9) 0.78904(7)
O8 O 0.8685(2) 0.00677(7) 0.92128(5)
C43 C 0.0373(3) 0.93244(9) 0.15064(8)
C44 C 0.0569(3) 0.90966(10) 0.19774(8)
H43 H 0.1519 0.9102 0.2101
C45 C -0.0658(3) 0.88629(11) 0.22581(9)
H44 H -0.0518 0.87 0.2578
C46 C -0.2215(3) 0.90785(11) 0.16573(9)
H45 H -0.3189 0.9078 0.1545
C47 C -0.1041(3) 0.93169(11) 0.13464(9)
H46 H -0.1208 0.9473 0.1027
C48 C 0.1650(3) 0.95912(10) 0.11668(8)
N15 N 0.3068(2) 0.94434(9) 0.12982(7)
H47 H 0.3842 0.959 0.1111
H48 H 0.3241 0.9198 0.1573
N16 N -0.2030(2) 0.88495(9) 0.21096(7)
O8 O 0.1315(2) 0.99323(7) 0.07872(5)
C49 C 0.5324(3) 0.57745(9) 0.50108(7)
C50 C 0.5577(3) 0.62436(10) 0.46238(8)
H49 H 0.6578 0.6369 0.4538
C51 C 0.4351(3) 0.65251(12) 0.43657(9)
H50 H 0.4534 0.6846 0.41
C52 C 0.2681(3) 0.59257(10) 0.48456(9)
H51 H 0.1666 0.5813 0.4926
C53 C 0.3844(3) 0.56198(10) 0.51252(8)
H52 H 0.3625 0.5307 0.5393
C54 C 0.6596(3) 0.54367(9) 0.53164(7)
N17 N 0.8033(2) 0.55311(9) 0.51608(7)
H53 H 0.88 0.534 0.5329
H54 H 0.8219 0.5785 0.489
N18 N 0.2920(2) 0.63710(9) 0.44692(7)
O9 O 0.62570(19) 0.50863(7) 0.56935(5)
C49 C 0.4676(3) 0.42255(9) 0.49892(7)
C50 C 0.4423(3) 0.37564(10) 0.53762(8)
H49 H 0.3422 0.3631 0.5462
C51 C 0.5649(3) 0.34749(12) 0.56343(9)
H50 H 0.5466 0.3154 0.59
C52 C 0.7319(3) 0.40743(10) 0.51544(9)
H51 H 0.8334 0.4187 0.5074
C53 C 0.6156(3) 0.43802(10) 0.48748(8)
H52 H 0.6375 0.4693 0.4607
C54 C 0.3404(3) 0.45633(9) 0.46836(7)
N17 N 0.1967(2) 0.44689(9) 0.48392(7)
H53 H 0.12 0.466 0.4671
H54 H 0.1781 0.4215 0.511
N18 N 0.7080(2) 0.36290(9) 0.55308(7)
O9 O 0.37430(19) 0.49137(7) 0.43065(5)
C55 C 0.1404(3) 0.43123(9) 0.64886(8)
C56 C 0.1062(3) 0.40562(10) 0.69565(8)
H55 H 0.0029 0.4049 0.7079
C57 C 0.2266(3) 0.38132(11) 0.72385(8)
H56 H 0.2029 0.3634 0.7557
C58 C 0.4056(3) 0.40676(11) 0.66406(9)
H57 H 0.5101 0.4076 0.6529
C59 C 0.2925(3) 0.43167(10) 0.63325(9)
H58 H 0.3196 0.4489 0.6016
C60 C 0.0181(3) 0.45906(9) 0.61516(8)
N19 N -0.1246(2) 0.44575(9) 0.62860(7)
H59 H -0.1996 0.4613 0.6101
H60 H -0.1443 0.4213 0.6561
N20 N 0.3730(2) 0.38154(9) 0.70904(7)
O10 O 0.0542(2) 0.49302(7) 0.57709(6)
C55 C 0.8596(3) 0.56877(9) 0.35114(8)
C56 C 0.8938(3) 0.59438(10) 0.30435(8)
H55 H 0.9971 0.5951 0.2921
C57 C 0.7734(3) 0.61868(11) 0.27615(8)
H56 H 0.7971 0.6366 0.2443
C58 C 0.5944(3) 0.59324(11) 0.33594(9)
H57 H 0.4899 0.5924 0.3471
C59 C 0.7075(3) 0.56833(10) 0.36675(9)
H58 H 0.6804 0.5511 0.3984
C60 C 0.9819(3) 0.54094(9) 0.38484(8)
N19 N 1.1246(2) 0.55425(9) 0.37140(7)
H59 H 1.1996 0.5387 0.3899
H60 H 1.1443 0.5787 0.3439
N20 N 0.6270(2) 0.61846(9) 0.29096(7)
O10 O 0.9458(2) 0.50698(7) 0.42291(6)
C61 C 0.5868(3) 0.94550(9) 0.31674(8)
C62 C 0.5646(3) 0.97869(11) 0.27193(9)
H61 H 0.4671 0.9829 0.2595
C63 C 0.6866(3) 1.00582(12) 0.24521(10)
H62 H 0.6699 1.0287 0.2143
C64 C 0.8469(3) 0.96849(11) 0.30348(9)
H63 H 0.9461 0.9644 0.3149
C65 C 0.7318(3) 0.93993(10) 0.33226(9)
H64 H 0.7524 0.9165 0.3627
C66 C 0.4617(3) 0.91396(9) 0.34853(8)
N21 N 0.3191(2) 0.92829(8) 0.33534(7)
H65 H 0.2429 0.9111 0.353
H66 H 0.3007 0.9551 0.3089
N22 N 0.8252(2) 1.00154(9) 0.26039(7)
O11 O 0.4950(2) 0.87686(7) 0.38510(6)
C61 C 0.4132(3) 0.05450(9) 0.68326(8)
C62 C 0.4354(3) 0.02131(11) 0.72807(9)
H61 H 0.5329 0.0171 0.7405
C63 C 0.3134(3) -0.00582(12) 0.75479(10)
H62 H 0.3301 -0.0287 0.7857
C64 C 0.1531(3) 0.03151(11) 0.69652(9)
H63 H 0.0539 0.0356 0.6851
C65 C 0.2682(3) 0.06007(10) 0.66774(9)
H64 H 0.2476 0.0835 0.6373
C66 C 0.5383(3) 0.08604(9) 0.65147(8)
N21 N 0.6809(2) 0.07171(8) 0.66466(7)
H65 H 0.7571 0.0889 0.647
H66 H 0.6993 0.0449 0.6911
N22 N 0.1748(2) -0.00154(9) 0.73961(7)
O11 O 0.5050(2) 0.12314(7) 0.61490(6)
C67 C 0.9832(3) 0.78747(10) 0.45769(7)
C68 C 1.0181(3) 0.73400(10) 0.49049(8)
H67 H 1.1216 0.7195 0.4967
C69 C 0.8982(3) 0.70263(11) 0.51368(9)
H68 H 0.9222 0.6661 0.536
C70 C 0.7188(3) 0.77172(11) 0.47506(9)
H69 H 0.6142 0.7851 0.4696
C71 C 0.8311(3) 0.80612(11) 0.44997(9)
H70 H 0.8036 0.8423 0.4276
C72 C 1.1060(3) 0.82471(10) 0.42943(8)
N23 N 1.2469(2) 0.81309(9) 0.44473(7)
H71 H 1.3214 0.8337 0.4292
H72 H 1.2655 0.7848 0.4703
N24 N 0.7512(2) 0.72064(9) 0.50663(7)
O12 O 1.0723(2) 0.86370(7) 0.39382(6)
C67 C 0.0168(3) 0.21253(10) 0.54231(7)
C68 C -0.0181(3) 0.26600(10) 0.50951(8)
H67 H -0.1216 0.2805 0.5033
C69 C 0.1018(3) 0.29737(11) 0.48632(9)
H68 H 0.0778 0.3339 0.464
C70 C 0.2812(3) 0.22828(11) 0.52494(9)
H69 H 0.3858 0.2149 0.5304
C71 C 0.1689(3) 0.19388(11) 0.55003(9)
H70 H 0.1964 0.1577 0.5724
C72 C -0.1060(3) 0.17529(10) 0.57057(8)
N23 N -0.2469(2) 0.18691(9) 0.55527(7)
H71 H -0.3214 0.1663 0.5708
H72 H -0.2655 0.2152 0.5297
N24 N 0.2488(2) 0.27936(9) 0.49337(7)
O12 O -0.0723(2) 0.13630(7) 0.60618(6)
C73 C 0.5307(3) 0.85391(11) 0.55108(10)
H73 H 0.4249 0.858 0.54
C74 C 0.5850(3) 0.79459(11) 0.58229(9)
H74 H 0.5152 0.7634 0.589
H75 H 0.6956 0.7815 0.5801
C75 C 0.5408(4) 0.84211(11) 0.60204(9)
H76 H 0.6237 0.8588 0.6122
H77 H 0.4434 0.8407 0.6211
C76 C 0.6428(3) 0.89043(11) 0.51923(9)
O13 O 0.7783(2) 0.88265(8) 0.53464(6)
H78 H 0.8365 0.9046 0.5153
O14 O 0.6100(2) 0.92388(9) 0.48189(7)
C73 C 0.4693(3) 0.14609(11) 0.44892(10)
H73 H 0.5751 0.142 0.46
C74 C 0.4150(3) 0.20541(11) 0.41771(9)
H74 H 0.4848 0.2366 0.411
H75 H 0.3044 0.2185 0.4199
C75 C 0.4592(4) 0.15789(11) 0.39796(9)
H76 H 0.3763 0.1412 0.3878
H77 H 0.5566 0.1593 0.3789
C76 C 0.3572(3) 0.10957(11) 0.48077(9)
O13 O 0.2217(2) 0.11735(8) 0.46536(6)
H78 H 0.1635 0.0954 0.4847
O14 O 0.3900(2) 0.07612(9) 0.51811(7)
C77 C 0.5218(3) 0.27982(10) 0.13938(8)
H79 H 0.6321 0.266 0.145
C78 C 0.4820(3) 0.30287(11) 0.08945(8)
H80 H 0.5655 0.3016 0.0657
H81 H 0.3798 0.2963 0.0818
C79 C 0.4879(3) 0.34416(10) 0.11568(9)
H82 H 0.3894 0.3633 0.1244
H83 H 0.5751 0.3687 0.1083
C80 C 0.4085(3) 0.24797(10) 0.17374(8)
O15 O 0.26606(19) 0.26866(7) 0.16557(6)
H84 H 0.207 0.2488 0.1861
O16 O 0.4446(2) 0.20642(8) 0.20684(6)
C77 C 0.4782(3) 0.72018(10) 0.86062(8)
H79 H 0.3679 0.734 0.855
C78 C 0.5180(3) 0.69713(11) 0.91055(8)
H80 H 0.4345 0.6984 0.9343
H81 H 0.6202 0.7037 0.9182
C79 C 0.5121(3) 0.65584(10) 0.88432(9)
H82 H 0.6106 0.6367 0.8756
H83 H 0.4249 0.6313 0.8917
C80 C 0.5915(3) 0.75203(10) 0.82626(8)
O15 O 0.73394(19) 0.73134(7) 0.83443(6)
H84 H 0.793 0.7512 0.8139
O16 O 0.5554(2) 0.79358(8) 0.79316(6)
C81 C 0.9766(3) 0.22248(10) 0.36364(8)
H85 H 1.0847 0.2333 0.3568
C82 C 0.9580(3) 0.15952(10) 0.38896(9)
H86 H 0.8706 0.1423 0.3816
H87 H 1.0524 0.1327 0.3963
C83 C 0.9230(3) 0.20270(11) 0.41397(8)
H88 H 0.9958 0.2029 0.4368
H89 H 0.8139 0.2125 0.4221
C84 C 0.8652(3) 0.25594(10) 0.32931(8)
O17 O 0.72588(19) 0.23930(7) 0.33906(6)
H90 H 0.668 0.2598 0.3185
O18 O 0.8998(2) 0.29556(7) 0.29533(6)
C81 C 0.0234(3) 0.77752(10) 0.63636(8)
H85 H -0.0847 0.7667 0.6432
C82 C 0.0420(3) 0.84048(10) 0.61104(9)
H86 H 0.1294 0.8577 0.6184
H87 H -0.0524 0.8673 0.6037
C83 C 0.0770(3) 0.79730(11) 0.58603(8)
H88 H 0.0042 0.7971 0.5632
H89 H 0.1861 0.7875 0.5779
C84 C 0.1348(3) 0.74406(10) 0.67069(8)
O17 O 0.27412(19) 0.76070(7) 0.66094(6)
H90 H 0.332 0.7402 0.6815
O18 O 0.1002(2) 0.70444(7) 0.70467(6)
C85 C -0.0253(3) 0.64455(11) 0.94603(9)
H91 H -0.1352 0.6378 0.9557
C86 C 0.0158(3) 0.65939(11) 0.89523(8)
H92 H 0.1196 0.6454 0.8855
H93 H -0.0662 0.6602 0.8748
C87 C 0.0043(3) 0.70541(11) 0.91741(9)
H94 H -0.0849 0.735 0.9109
H95 H 0.1008 0.7202 0.9215
C88 C 0.0887(3) 0.60931(11) 0.97869(8)
O19 O 0.2302(2) 0.61937(8) 0.96450(6)
H96 H 0.2897 0.5982 0.9843
O20 O 0.0538(2) 0.57412(8) 1.01523(6)
C85 C 1.0253(3) 0.35545(11) 0.05397(9)
H91 H 1.1352 0.3622 0.0443
C86 C 0.9842(3) 0.34061(11) 0.10477(8)
H92 H 0.8804 0.3546 0.1145
H93 H 1.0662 0.3398 0.1252
C87 C 0.9957(3) 0.29459(11) 0.08259(9)
H94 H 1.0849 0.265 0.0891
H95 H 0.8992 0.2798 0.0785
C88 C 0.9113(3) 0.39069(11) 0.02131(8)
O19 O 0.7698(2) 0.38063(8) 0.03550(6)
H96 H 0.7103 0.4018 0.0157
O20 O 0.9462(2) 0.42588(8) -0.01523(6)
C89 C 0.2137(3) 0.84812(10) 0.90637(8)
H97 H 0.1055 0.8375 0.9131
C90 C 0.2693(3) 0.86595(11) 0.85621(9)
H98 H 0.3788 0.8557 0.8487
H99 H 0.1976 0.8647 0.8334
C91 C 0.2332(3) 0.91072(10) 0.87967(8)
H100 H 0.1391 0.9375 0.8715
H101 H 0.3201 0.9285 0.8867
C92 C 0.3235(3) 0.81559(10) 0.94130(8)
O21 O 0.46176(19) 0.83251(7) 0.93234(6)
H102 H 0.5186 0.8123 0.9533
O22 O 0.2880(2) 0.77583(8) 0.97518(6)
C89 C 0.7863(3) 0.15188(10) 0.09363(8)
H97 H 0.8945 0.1625 0.0869
C90 C 0.7307(3) 0.13405(11) 0.14379(9)
H98 H 0.6212 0.1443 0.1513
H99 H 0.8024 0.1353 0.1666
C91 C 0.7668(3) 0.08928(10) 0.12033(8)
H100 H 0.8609 0.0625 0.1285
H101 H 0.6799 0.0715 0.1133
C92 C 0.6765(3) 0.18441(10) 0.05870(8)
O21 O 0.53824(19) 0.16749(7) 0.06766(6)
H102 H 0.4814 0.1877 0.0467
O22 O 0.7120(2) 0.22417(8) 0.02482(6)
C93 C 0.2112(3) 0.42283(10) 0.32478(8)
H103 H 0.3217 0.4298 0.3165
C94 C 0.1799(3) 0.36217(10) 0.35495(9)
H104 H 0.086 0.3464 0.35
H105 H 0.2692 0.333 0.3637
C95 C 0.1606(3) 0.41039(11) 0.37514(8)
H106 H 0.2378 0.4113 0.3965
H107 H 0.0546 0.4247 0.3828
C96 C 0.1021(3) 0.45548(10) 0.28990(8)
O23 O -0.0401(2) 0.44472(8) 0.30219(6)
H108 H -0.0968 0.4644 0.2811
O24 O 0.1400(2) 0.48997(8) 0.25331(6)
C93 C 0.7888(3) 0.57717(10) 0.67522(8)
H103 H 0.6783 0.5702 0.6835
C94 C 0.8201(3) 0.63783(10) 0.64505(9)
H104 H 0.914 0.6536 0.65
H105 H 0.7308 0.667 0.6363
C95 C 0.8394(3) 0.58961(11) 0.62486(8)
H106 H 0.7622 0.5887 0.6035
H107 H 0.9454 0.5753 0.6172
C96 C 0.8979(3) 0.54452(10) 0.71010(8)
O23 O 1.0401(2) 0.55528(8) 0.69781(6)
H108 H 1.0968 0.5356 0.7189
O24 O 0.8600(2) 0.51003(8) 0.74669(6)
C97 C 0.6627(3) 0.78578(11) 0.13311(9)
H109 H 0.5517 0.7993 0.1284
C98 C 0.6998(3) 0.72109(11) 0.15255(9)
H110 H 0.614 0.6961 0.1583
H111 H 0.7988 0.704 0.1422
C99 C 0.7046(3) 0.75781(11) 0.18245(9)
H112 H 0.8066 0.7637 0.1907
H113 H 0.6218 0.7558 0.2069
C100 C 0.7737(3) 0.82100(10) 0.09964(8)
O25 O 0.91704(19) 0.80207(7) 0.10740(6)
H114 H 0.9744 0.8238 0.0876
O26 O 0.7346(2) 0.86298(8) 0.06764(6)
C97 C 0.3373(3) 0.21422(11) 0.86689(9)
H109 H 0.4483 0.2007 0.8716
C98 C 0.3002(3) 0.27891(11) 0.84745(9)
H110 H 0.386 0.3039 0.8417
H111 H 0.2012 0.296 0.8578
C99 C 0.2954(3) 0.24219(11) 0.81755(9)
H112 H 0.1934 0.2363 0.8093
H113 H 0.3782 0.2442 0.7931
C100 C 0.2263(3) 0.17900(10) 0.90036(8)
O25 O 0.08296(19) 0.19793(7) 0.89260(6)
H114 H 0.0256 0.1762 0.9124
O26 O 0.2654(2) 0.13702(8) 0.93236(6)
C101 C 0.6590(3) 0.19962(11) 0.71387(8)
H115 H 0.7665 0.1943 0.7239
C102 C 0.6416(3) 0.21554(10) 0.66278(8)
H116 H 0.7365 0.2184 0.6425
H117 H 0.5561 0.2003 0.6525
C103 C 0.6024(3) 0.26039(10) 0.68575(8)
H118 H 0.4924 0.2732 0.6898
H119 H 0.6728 0.2913 0.6798
C104 C 0.5481(3) 0.16334(10) 0.74600(8)
O27 O 0.4118(2) 0.16933(8) 0.73039(6)
H120 H 0.3541 0.1478 0.7502
O28 O 0.5792(2) 0.13163(9) 0.78408(7)
C101 C 0.3410(3) 0.80038(11) 0.28613(8)
H115 H 0.2335 0.8057 0.2761
C102 C 0.3584(3) 0.78446(10) 0.33722(8)
H116 H 0.2635 0.7816 0.3575
H117 H 0.4439 0.7997 0.3475
C103 C 0.3976(3) 0.73961(10) 0.31425(8)
H118 H 0.5076 0.7268 0.3102
H119 H 0.3272 0.7087 0.3202
C104 C 0.4519(3) 0.83666(10) 0.25400(8)
O27 O 0.5882(2) 0.83067(8) 0.26961(6)
H120 H 0.6459 0.8522 0.2498
O28 O 0.4208(2) 0.86837(9) 0.21592(7)
C105 C 0.8414(3) 0.71746(10) 0.36338(8)
H121 H 0.7333 0.7066 0.369
C106 C 0.8975(3) 0.74167(11) 0.31347(8)
H122 H 1.0069 0.7325 0.3052
H123 H 0.826 0.7441 0.2896
C107 C 0.8614(3) 0.78143(10) 0.34154(9)
H124 H 0.7675 0.8087 0.3351
H125 H 0.9484 0.797 0.3508
C108 C 0.9519(3) 0.68174(10) 0.39736(8)
O29 O 1.09209(19) 0.69734(7) 0.38829(6)
H126 H 1.149 0.6757 0.4087
O30 O 0.9149(2) 0.64183(7) 0.43056(6)
C105 C 0.1586(3) 0.28254(10) 0.63662(8)
H121 H 0.2667 0.2934 0.631
C106 C 0.1025(3) 0.25833(11) 0.68653(8)
H122 H -0.0069 0.2675 0.6948
H123 H 0.174 0.2559 0.7104
C107 C 0.1386(3) 0.21857(10) 0.65846(9)
H124 H 0.2325 0.1913 0.6649
H125 H 0.0516 0.203 0.6492
C108 C 0.0481(3) 0.31826(10) 0.60264(8)
O29 O -0.09209(19) 0.30266(7) 0.61171(6)
H126 H -0.149 0.3243 0.5913
O30 O 0.0851(2) 0.35817(7) 0.56944(6)
C109 C 0.8367(3) 0.29926(10) 0.78494(8)
H127 H 0.946 0.3069 0.775
C110 C 0.8104(3) 0.23706(11) 0.81144(9)
H128 H 0.7137 0.2225 0.8072
H129 H 0.9007 0.2079 0.8162
C111 C 0.7999(3) 0.28038(11) 0.83599(9)
H130 H 0.8835 0.2783 0.8562
H131 H 0.6966 0.293 0.8472
C112 C 0.7211(3) 0.33528(10) 0.75349(8)
O31 O 0.57983(19) 0.32692(8) 0.76905(6)
H132 H 0.5195 0.3486 0.7497
O32 O 0.7542(2) 0.36943(8) 0.71625(6)
C109 C 0.1633(3) 0.70074(10) 0.21506(8)
H127 H 0.054 0.6931 0.225
C110 C 0.1896(3) 0.76294(11) 0.18856(9)
H128 H 0.2863 0.7775 0.1928
H129 H 0.0993 0.7921 0.1838
C111 C 0.2001(3) 0.71962(11) 0.16401(9)
H130 H 0.1165 0.7217 0.1438
H131 H 0.3034 0.707 0.1528
C112 C 0.2789(3) 0.66472(10) 0.24651(8)
O31 O 0.42017(19) 0.67308(8) 0.23095(6)
H132 H 0.4805 0.6514 0.2503
O32 O 0.2458(2) 0.63057(8) 0.28375(6)
C113 C 0.2790(3) 0.07910(12) 0.17734(9)
H133 H 0.3878 0.0733 0.1864
C114 C 0.2577(3) 0.08843(11) 0.12724(9)
H134 H 0.351 0.0868 0.1068
H135 H 0.1676 0.0731 0.1195
C115 C 0.2297(3) 0.13776(11) 0.14530(9)
H136 H 0.1218 0.1535 0.1488
H137 H 0.3051 0.1672 0.1362
C116 C 0.1678(3) 0.04650(11) 0.21231(9)
O33 O 0.0277(2) 0.05661(8) 0.19970(6)
H138 H -0.0298 0.0367 0.2207
O34 O 0.2037(2) 0.01389(9) 0.24945(7)
C113 C 0.7210(3) 0.92090(12) 0.82266(9)
H133 H 0.6122 0.9267 0.8136
C114 C 0.7423(3) 0.91157(11) 0.87276(9)
H134 H 0.649 0.9132 0.8932
H135 H 0.8324 0.9269 0.8805
C115 C 0.7703(3) 0.86224(11) 0.85470(9)
H136 H 0.8782 0.8465 0.8512
H137 H 0.6949 0.8328 0.8638
C116 C 0.8322(3) 0.95350(11) 0.78769(9)
O33 O 0.9723(2) 0.94339(8) 0.80030(6)
H138 H 1.0298 0.9633 0.7793
O34 O 0.7963(2) 0.98611(9) 0.75055(7)
C117 C 0.2942(3) 0.64888(10) 0.59242(8)
H139 H 0.1832 0.6614 0.5869
C118 C 0.3326(3) 0.58534(10) 0.61813(8)
H140 H 0.2474 0.5599 0.6269
H141 H 0.432 0.5664 0.6098
C119 C 0.3362(3) 0.62926(10) 0.64200(8)
H142 H 0.4378 0.6377 0.6486
H143 H 0.2532 0.6312 0.6657
C120 C 0.4052(3) 0.68014(10) 0.55663(8)
O35 O 0.54926(18) 0.66068(7) 0.56432(5)
H144 H 0.6065 0.6802 0.543
O36 O 0.3668(2) 0.72110(8) 0.52370(6)
C117 C 0.7058(3) 0.35112(10) 0.40758(8)
H139 H 0.8168 0.3386 0.4131
C118 C 0.6674(3) 0.41466(10) 0.38187(8)
H140 H 0.7526 0.4401 0.3731
H141 H 0.568 0.4336 0.3902
C119 C 0.6638(3) 0.37074(10) 0.35800(8)
H142 H 0.5622 0.3623 0.3514
H143 H 0.7468 0.3688 0.3343
C120 C 0.5948(3) 0.31986(10) 0.44337(8)
O35 O 0.45074(18) 0.33932(7) 0.43568(5)
H144 H 0.3935 0.3198 0.457
O36 O 0.6332(2) 0.27890(8) 0.47630(6)

#END
