./ACOWAR_from_xyz.cif_generated_by_CrystalShift
_symmetry_cell_setting triclinic
_symmetry_space_group_name_H-M 'P 1'
loop_
_symmetry_equiv_pos_site_id
_symmetry_equiv_pos_as_xyz
1 x,y,z
_cell_length_a 18.590000
_cell_length_b 5.975000
_cell_length_c 17.073000
_cell_angle_alpha 90.000000
_cell_angle_beta 116.570000
_cell_angle_gamma 90.000000
_cell_volume 1696.107516
loop_
_atom_site_label
_atom_site_type_symbol
_atom_site_fract_x
_atom_site_fract_y
_atom_site_fract_z
C1 C 0.308900 0.555500 0.586300
C2 C 0.363000 0.395800 0.635000
C3 C 0.337700 0.210700 0.662300
C4 C 0.258300 0.183500 0.641500
C5 C 0.203910 0.344500 0.591900
C6 C 0.228790 0.529800 0.564020
C7 C 0.159170 0.748500 0.436400
C8 C 0.099450 0.933100 0.403240
C9 C 0.030420 0.923500 0.415200
H10 H 0.023400 0.805200 0.446500
C11 C -0.027630 1.086200 0.381500
H12 H -0.074000 1.076800 0.389200
C13 C -0.016910 1.263600 0.336200
H14 H -0.055200 1.376900 0.315100
C15 C 0.050810 1.273000 0.322110
H16 H 0.057000 1.390500 0.289900
C17 C 0.109100 1.110000 0.355420
C18 C 0.178860 1.131000 0.335800
C19 C 0.319400 1.095600 0.394100
C20 C 0.370700 1.272300 0.421200
H21 H 0.358700 1.398600 0.444900
C22 C 0.441400 1.260300 0.412600
H23 H 0.477300 1.379700 0.430800
C24 C 0.458600 1.075200 0.377900
H25 H 0.506100 1.067900 0.372400
C26 C 0.405900 0.900000 0.351000
H27 H 0.417600 0.774000 0.326800
C28 C 0.335300 0.908300 0.359500
H29 H 0.299600 0.788400 0.342000
O30 O 0.173040 0.695800 0.520490
O31 O 0.190110 0.653600 0.398580
O32 O 0.249790 1.103900 0.407870
O33 O 0.173790 1.171100 0.265070
F34 F 0.334330 0.738900 0.561420
F35 F 0.441040 0.422800 0.656480
F36 F 0.391170 0.054500 0.709660
F37 F 0.233960 0.003300 0.669340
F38 F 0.125970 0.316800 0.570160
C39 C 0.691100 0.055500 -0.086300
C40 C 0.637000 -0.104200 -0.135000
C41 C 0.662300 -0.289300 -0.162300
C42 C 0.741700 -0.316500 -0.141500
C43 C 0.796090 -0.155500 -0.091900
C44 C 0.771210 0.029800 -0.064020
C45 C 0.840830 0.248500 0.063600
C46 C 0.900550 0.433100 0.096760
C47 C 0.969580 0.423500 0.084800
H48 H 0.976600 0.305200 0.053500
C49 C 1.027630 0.586200 0.118500
H50 H 1.074000 0.576800 0.110800
C51 C 1.016910 0.763600 0.163800
H52 H 1.055200 0.876900 0.184900
C53 C 0.949190 0.773000 0.177890
H54 H 0.943000 0.890500 0.210100
C55 C 0.890900 0.610000 0.144580
C56 C 0.821140 0.631000 0.164200
C57 C 0.680600 0.595600 0.105900
C58 C 0.629300 0.772300 0.078800
H59 H 0.641300 0.898600 0.055100
C60 C 0.558600 0.760300 0.087400
H61 H 0.522700 0.879700 0.069200
C62 C 0.541400 0.575200 0.122100
H63 H 0.493900 0.567900 0.127600
C64 C 0.594100 0.400000 0.149000
H65 H 0.582400 0.274000 0.173200
C66 C 0.664700 0.408300 0.140500
H67 H 0.700400 0.288400 0.158000
O68 O 0.826960 0.195800 -0.020490
O69 O 0.809890 0.153600 0.101420
O70 O 0.750210 0.603900 0.092130
O71 O 0.826210 0.671100 0.234930
F72 F 0.665670 0.238900 -0.061420
F73 F 0.558960 -0.077200 -0.156480
F74 F 0.608830 -0.445500 -0.209660
F75 F 0.766040 -0.496700 -0.169340
F76 F 0.874030 -0.183200 -0.070160
C77 C 0.691100 0.444500 0.413700
C78 C 0.637000 0.604200 0.365000
C79 C 0.662300 0.789300 0.337700
C80 C 0.741700 0.816500 0.358500
C81 C 0.796090 0.655500 0.408100
C82 C 0.771210 0.470200 0.435980
C83 C 0.840830 0.251500 0.563600
C84 C 0.900550 0.066900 0.596760
C85 C 0.969580 0.076500 0.584800
H86 H 0.976600 0.194800 0.553500
C87 C 1.027630 -0.086200 0.618500
H88 H 1.074000 -0.076800 0.610800
C89 C 1.016910 -0.263600 0.663800
H90 H 1.055200 -0.376900 0.684900
C91 C 0.949190 -0.273000 0.677890
H92 H 0.943000 -0.390500 0.710100
C93 C 0.890900 -0.110000 0.644580
C94 C 0.821140 -0.131000 0.664200
C95 C 0.680600 -0.095600 0.605900
C96 C 0.629300 -0.272300 0.578800
H97 H 0.641300 -0.398600 0.555100
C98 C 0.558600 -0.260300 0.587400
H99 H 0.522700 -0.379700 0.569200
C100 C 0.541400 -0.075200 0.622100
H101 H 0.493900 -0.067900 0.627600
C102 C 0.594100 0.100000 0.649000
H103 H 0.582400 0.226000 0.673200
C104 C 0.664700 0.091700 0.640500
H105 H 0.700400 0.211600 0.658000
O106 O 0.826960 0.304200 0.479510
O107 O 0.809890 0.346400 0.601420
O108 O 0.750210 -0.103900 0.592130
O109 O 0.826210 -0.171100 0.734930
F110 F 0.665670 0.261100 0.438580
F111 F 0.558960 0.577200 0.343520
F112 F 0.608830 0.945500 0.290340
F113 F 0.766040 0.996700 0.330660
F114 F 0.874030 0.683200 0.429840
C115 C 0.308900 0.944500 1.086300
C116 C 0.363000 1.104200 1.135000
C117 C 0.337700 1.289300 1.162300
C118 C 0.258300 1.316500 1.141500
C119 C 0.203910 1.155500 1.091900
C120 C 0.228790 0.970200 1.064020
C121 C 0.159170 0.751500 0.936400
C122 C 0.099450 0.566900 0.903240
C123 C 0.030420 0.576500 0.915200
H124 H 0.023400 0.694800 0.946500
C125 C -0.027630 0.413800 0.881500
H126 H -0.074000 0.423200 0.889200
C127 C -0.016910 0.236400 0.836200
H128 H -0.055200 0.123100 0.815100
C129 C 0.050810 0.227000 0.822110
H130 H 0.057000 0.109500 0.789900
C131 C 0.109100 0.390000 0.855420
C132 C 0.178860 0.369000 0.835800
C133 C 0.319400 0.404400 0.894100
C134 C 0.370700 0.227700 0.921200
H135 H 0.358700 0.101400 0.944900
C136 C 0.441400 0.239700 0.912600
H137 H 0.477300 0.120300 0.930800
C138 C 0.458600 0.424800 0.877900
H139 H 0.506100 0.432100 0.872400
C140 C 0.405900 0.600000 0.851000
H141 H 0.417600 0.726000 0.826800
C142 C 0.335300 0.591700 0.859500
H143 H 0.299600 0.711600 0.842000
O144 O 0.173040 0.804200 1.020490
O145 O 0.190110 0.846400 0.898580
O146 O 0.249790 0.396100 0.907870
O147 O 0.173790 0.328900 0.765070
F148 F 0.334330 0.761100 1.061420
F149 F 0.441040 1.077200 1.156480
F150 F 0.391170 1.445500 1.209660
F151 F 0.233960 1.496700 1.169340
F152 F 0.125970 1.183200 1.070160

#END
