./ACOWIA_from_xyz.cif_generated_by_CrystalShift
_symmetry_cell_setting triclinic
_symmetry_space_group_name_H-M 'P 1'
loop_
_symmetry_equiv_pos_site_id
_symmetry_equiv_pos_as_xyz
1 x,y,z
_cell_length_a 20.690000
_cell_length_b 8.069000
_cell_length_c 23.510000
_cell_angle_alpha 90.000000
_cell_angle_beta 90.000000
_cell_angle_gamma 90.000000
_cell_volume 3924.938311
loop_
_atom_site_label
_atom_site_type_symbol
_atom_site_fract_x
_atom_site_fract_y
_atom_site_fract_z
Pd1 Pd 0.000000 0.500000 0.000000
P2 P 0.063760 0.653680 -0.065690
O3 O -0.058300 0.364200 -0.098480
O4 O -0.120870 0.546900 -0.058570
N5 N -0.069430 0.468000 -0.060080
C6 C 0.022320 0.778900 -0.120590
C7 C -0.016180 0.700000 -0.162070
H8 H -0.020600 0.582800 -0.161500
C9 C -0.047940 0.792300 -0.204140
H10 H -0.074000 0.738000 -0.231700
C11 C -0.041120 0.965200 -0.205460
H12 H -0.062400 1.028000 -0.234000
C13 C -0.002870 1.045200 -0.164720
H14 H 0.001800 1.162200 -0.165800
C15 C 0.028780 0.952700 -0.122180
H16 H 0.054500 1.007600 -0.094500
C17 C 0.114580 0.511100 -0.106820
C18 C 0.143290 0.562100 -0.158480
H19 H 0.137000 0.672100 -0.171700
C20 C 0.181030 0.451200 -0.190350
H21 H 0.199600 0.485500 -0.225400
C22 C 0.191240 0.288900 -0.170230
H23 H 0.216800 0.213700 -0.191700
C24 C 0.163740 0.238000 -0.118530
H25 H 0.171200 0.128900 -0.104900
C26 C 0.125050 0.348300 -0.086770
H27 H 0.106100 0.313200 -0.052000
C28 C 0.117730 0.798800 -0.028410
C29 C 0.185080 0.800900 -0.036630
H30 H 0.204400 0.727800 -0.063300
C31 C 0.223870 0.911700 -0.005150
H32 H 0.269400 0.912000 -0.010200
C33 C 0.195050 1.021900 0.033670
H34 H 0.221300 1.097500 0.054300
C35 C 0.127830 1.021200 0.042150
H36 H 0.108500 1.096700 0.068100
C37 C 0.089370 0.907800 0.011900
H38 H 0.044100 0.904100 0.018500
P39 P -0.063760 0.346320 0.065690
O40 O 0.058300 0.635800 0.098480
O41 O 0.120870 0.453100 0.058570
N42 N 0.069430 0.532000 0.060080
C43 C -0.022320 0.221100 0.120590
C44 C 0.016180 0.300000 0.162070
H45 H 0.020600 0.417200 0.161500
C46 C 0.047940 0.207700 0.204140
H47 H 0.074000 0.262000 0.231700
C48 C 0.041120 0.034800 0.205460
H49 H 0.062400 -0.028000 0.234000
C50 C 0.002870 -0.045200 0.164720
H51 H -0.001800 -0.162200 0.165800
C52 C -0.028780 0.047300 0.122180
H53 H -0.054500 -0.007600 0.094500
C54 C -0.114580 0.488900 0.106820
C55 C -0.143290 0.437900 0.158480
H56 H -0.137000 0.327900 0.171700
C57 C -0.181030 0.548800 0.190350
H58 H -0.199600 0.514500 0.225400
C59 C -0.191240 0.711100 0.170230
H60 H -0.216800 0.786300 0.191700
C61 C -0.163740 0.762000 0.118530
H62 H -0.171200 0.871100 0.104900
C63 C -0.125050 0.651700 0.086770
H64 H -0.106100 0.686800 0.052000
C65 C -0.117730 0.201200 0.028410
C66 C -0.185080 0.199100 0.036630
H67 H -0.204400 0.272200 0.063300
C68 C -0.223870 0.088300 0.005150
H69 H -0.269400 0.088000 0.010200
C70 C -0.195050 -0.021900 -0.033670
H71 H -0.221300 -0.097500 -0.054300
C72 C -0.127830 -0.021200 -0.042150
H73 H -0.108500 -0.096700 -0.068100
C74 C -0.089370 0.092200 -0.011900
H75 H -0.044100 0.095900 -0.018500
Pd76 Pd 0.000000 0.500000 1.000000
P77 P 0.063760 0.653680 0.934310
O78 O -0.058300 0.364200 0.901520
O79 O -0.120870 0.546900 0.941430
N80 N -0.069430 0.468000 0.939920
C81 C 0.022320 0.778900 0.879410
C82 C -0.016180 0.700000 0.837930
H83 H -0.020600 0.582800 0.838500
C84 C -0.047940 0.792300 0.795860
H85 H -0.074000 0.738000 0.768300
C86 C -0.041120 0.965200 0.794540
H87 H -0.062400 1.028000 0.766000
C88 C -0.002870 1.045200 0.835280
H89 H 0.001800 1.162200 0.834200
C90 C 0.028780 0.952700 0.877820
H91 H 0.054500 1.007600 0.905500
C92 C 0.114580 0.511100 0.893180
C93 C 0.143290 0.562100 0.841520
H94 H 0.137000 0.672100 0.828300
C95 C 0.181030 0.451200 0.809650
H96 H 0.199600 0.485500 0.774600
C97 C 0.191240 0.288900 0.829770
H98 H 0.216800 0.213700 0.808300
C99 C 0.163740 0.238000 0.881470
H100 H 0.171200 0.128900 0.895100
C101 C 0.125050 0.348300 0.913230
H102 H 0.106100 0.313200 0.948000
C103 C 0.117730 0.798800 0.971590
C104 C 0.185080 0.800900 0.963370
H105 H 0.204400 0.727800 0.936700
C106 C 0.223870 0.911700 0.994850
H107 H 0.269400 0.912000 0.989800
C108 C 0.195050 1.021900 1.033670
H109 H 0.221300 1.097500 1.054300
C110 C 0.127830 1.021200 1.042150
H111 H 0.108500 1.096700 1.068100
C112 C 0.089370 0.907800 1.011900
H113 H 0.044100 0.904100 1.018500
P114 P -0.063760 0.346320 1.065690
O115 O 0.058300 0.635800 1.098480
O116 O 0.120870 0.453100 1.058570
N117 N 0.069430 0.532000 1.060080
C118 C -0.022320 0.221100 1.120590
C119 C 0.016180 0.300000 1.162070
H120 H 0.020600 0.417200 1.161500
C121 C 0.047940 0.207700 1.204140
H122 H 0.074000 0.262000 1.231700
C123 C 0.041120 0.034800 1.205460
H124 H 0.062400 -0.028000 1.234000
C125 C 0.002870 -0.045200 1.164720
H126 H -0.001800 -0.162200 1.165800
C127 C -0.028780 0.047300 1.122180
H128 H -0.054500 -0.007600 1.094500
C129 C -0.114580 0.488900 1.106820
C130 C -0.143290 0.437900 1.158480
H131 H -0.137000 0.327900 1.171700
C132 C -0.181030 0.548800 1.190350
H133 H -0.199600 0.514500 1.225400
C134 C -0.191240 0.711100 1.170230
H135 H -0.216800 0.786300 1.191700
C136 C -0.163740 0.762000 1.118530
H137 H -0.171200 0.871100 1.104900
C138 C -0.125050 0.651700 1.086770
H139 H -0.106100 0.686800 1.052000
C140 C -0.117730 0.201200 1.028410
C141 C -0.185080 0.199100 1.036630
H142 H -0.204400 0.272200 1.063300
C143 C -0.223870 0.088300 1.005150
H144 H -0.269400 0.088000 1.010200
C145 C -0.195050 -0.021900 0.966330
H146 H -0.221300 -0.097500 0.945700
C147 C -0.127830 -0.021200 0.957850
H148 H -0.108500 -0.096700 0.931900
C149 C -0.089370 0.092200 0.988100
H150 H -0.044100 0.095900 0.981500
Pd151 Pd 1.000000 0.500000 0.000000
P152 P 1.063760 0.653680 -0.065690
O153 O 0.941700 0.364200 -0.098480
O154 O 0.879130 0.546900 -0.058570
N155 N 0.930570 0.468000 -0.060080
C156 C 1.022320 0.778900 -0.120590
C157 C 0.983820 0.700000 -0.162070
H158 H 0.979400 0.582800 -0.161500
C159 C 0.952060 0.792300 -0.204140
H160 H 0.926000 0.738000 -0.231700
C161 C 0.958880 0.965200 -0.205460
H162 H 0.937600 1.028000 -0.234000
C163 C 0.997130 1.045200 -0.164720
H164 H 1.001800 1.162200 -0.165800
C165 C 1.028780 0.952700 -0.122180
H166 H 1.054500 1.007600 -0.094500
C167 C 1.114580 0.511100 -0.106820
C168 C 1.143290 0.562100 -0.158480
H169 H 1.137000 0.672100 -0.171700
C170 C 1.181030 0.451200 -0.190350
H171 H 1.199600 0.485500 -0.225400
C172 C 1.191240 0.288900 -0.170230
H173 H 1.216800 0.213700 -0.191700
C174 C 1.163740 0.238000 -0.118530
H175 H 1.171200 0.128900 -0.104900
C176 C 1.125050 0.348300 -0.086770
H177 H 1.106100 0.313200 -0.052000
C178 C 1.117730 0.798800 -0.028410
C179 C 1.185080 0.800900 -0.036630
H180 H 1.204400 0.727800 -0.063300
C181 C 1.223870 0.911700 -0.005150
H182 H 1.269400 0.912000 -0.010200
C183 C 1.195050 1.021900 0.033670
H184 H 1.221300 1.097500 0.054300
C185 C 1.127830 1.021200 0.042150
H186 H 1.108500 1.096700 0.068100
C187 C 1.089370 0.907800 0.011900
H188 H 1.044100 0.904100 0.018500
P189 P 0.936240 0.346320 0.065690
O190 O 1.058300 0.635800 0.098480
O191 O 1.120870 0.453100 0.058570
N192 N 1.069430 0.532000 0.060080
C193 C 0.977680 0.221100 0.120590
C194 C 1.016180 0.300000 0.162070
H195 H 1.020600 0.417200 0.161500
C196 C 1.047940 0.207700 0.204140
H197 H 1.074000 0.262000 0.231700
C198 C 1.041120 0.034800 0.205460
H199 H 1.062400 -0.028000 0.234000
C200 C 1.002870 -0.045200 0.164720
H201 H 0.998200 -0.162200 0.165800
C202 C 0.971220 0.047300 0.122180
H203 H 0.945500 -0.007600 0.094500
C204 C 0.885420 0.488900 0.106820
C205 C 0.856710 0.437900 0.158480
H206 H 0.863000 0.327900 0.171700
C207 C 0.818970 0.548800 0.190350
H208 H 0.800400 0.514500 0.225400
C209 C 0.808760 0.711100 0.170230
H210 H 0.783200 0.786300 0.191700
C211 C 0.836260 0.762000 0.118530
H212 H 0.828800 0.871100 0.104900
C213 C 0.874950 0.651700 0.086770
H214 H 0.893900 0.686800 0.052000
C215 C 0.882270 0.201200 0.028410
C216 C 0.814920 0.199100 0.036630
H217 H 0.795600 0.272200 0.063300
C218 C 0.776130 0.088300 0.005150
H219 H 0.730600 0.088000 0.010200
C220 C 0.804950 -0.021900 -0.033670
H221 H 0.778700 -0.097500 -0.054300
C222 C 0.872170 -0.021200 -0.042150
H223 H 0.891500 -0.096700 -0.068100
C224 C 0.910630 0.092200 -0.011900
H225 H 0.955900 0.095900 -0.018500
Pd226 Pd 1.000000 0.500000 1.000000
P227 P 1.063760 0.653680 0.934310
O228 O 0.941700 0.364200 0.901520
O229 O 0.879130 0.546900 0.941430
N230 N 0.930570 0.468000 0.939920
C231 C 1.022320 0.778900 0.879410
C232 C 0.983820 0.700000 0.837930
H233 H 0.979400 0.582800 0.838500
C234 C 0.952060 0.792300 0.795860
H235 H 0.926000 0.738000 0.768300
C236 C 0.958880 0.965200 0.794540
H237 H 0.937600 1.028000 0.766000
C238 C 0.997130 1.045200 0.835280
H239 H 1.001800 1.162200 0.834200
C240 C 1.028780 0.952700 0.877820
H241 H 1.054500 1.007600 0.905500
C242 C 1.114580 0.511100 0.893180
C243 C 1.143290 0.562100 0.841520
H244 H 1.137000 0.672100 0.828300
C245 C 1.181030 0.451200 0.809650
H246 H 1.199600 0.485500 0.774600
C247 C 1.191240 0.288900 0.829770
H248 H 1.216800 0.213700 0.808300
C249 C 1.163740 0.238000 0.881470
H250 H 1.171200 0.128900 0.895100
C251 C 1.125050 0.348300 0.913230
H252 H 1.106100 0.313200 0.948000
C253 C 1.117730 0.798800 0.971590
C254 C 1.185080 0.800900 0.963370
H255 H 1.204400 0.727800 0.936700
C256 C 1.223870 0.911700 0.994850
H257 H 1.269400 0.912000 0.989800
C258 C 1.195050 1.021900 1.033670
H259 H 1.221300 1.097500 1.054300
C260 C 1.127830 1.021200 1.042150
H261 H 1.108500 1.096700 1.068100
C262 C 1.089370 0.907800 1.011900
H263 H 1.044100 0.904100 1.018500
P264 P 0.936240 0.346320 1.065690
O265 O 1.058300 0.635800 1.098480
O266 O 1.120870 0.453100 1.058570
N267 N 1.069430 0.532000 1.060080
C268 C 0.977680 0.221100 1.120590
C269 C 1.016180 0.300000 1.162070
H270 H 1.020600 0.417200 1.161500
C271 C 1.047940 0.207700 1.204140
H272 H 1.074000 0.262000 1.231700
C273 C 1.041120 0.034800 1.205460
H274 H 1.062400 -0.028000 1.234000
C275 C 1.002870 -0.045200 1.164720
H276 H 0.998200 -0.162200 1.165800
C277 C 0.971220 0.047300 1.122180
H278 H 0.945500 -0.007600 1.094500
C279 C 0.885420 0.488900 1.106820
C280 C 0.856710 0.437900 1.158480
H281 H 0.863000 0.327900 1.171700
C282 C 0.818970 0.548800 1.190350
H283 H 0.800400 0.514500 1.225400
C284 C 0.808760 0.711100 1.170230
H285 H 0.783200 0.786300 1.191700
C286 C 0.836260 0.762000 1.118530
H287 H 0.828800 0.871100 1.104900
C288 C 0.874950 0.651700 1.086770
H289 H 0.893900 0.686800 1.052000
C290 C 0.882270 0.201200 1.028410
C291 C 0.814920 0.199100 1.036630
H292 H 0.795600 0.272200 1.063300
C293 C 0.776130 0.088300 1.005150
H294 H 0.730600 0.088000 1.010200
C295 C 0.804950 -0.021900 0.966330
H296 H 0.778700 -0.097500 0.945700
C297 C 0.872170 -0.021200 0.957850
H298 H 0.891500 -0.096700 0.931900
C299 C 0.910630 0.092200 0.988100
H300 H 0.955900 0.095900 0.981500
Pd301 Pd 0.500000 0.500000 0.500000
P302 P 0.436240 0.346320 0.434310
O303 O 0.558300 0.635800 0.401520
O304 O 0.620870 0.453100 0.441430
N305 N 0.569430 0.532000 0.439920
C306 C 0.477680 0.221100 0.379410
C307 C 0.516180 0.300000 0.337930
H308 H 0.520600 0.417200 0.338500
C309 C 0.547940 0.207700 0.295860
H310 H 0.574000 0.262000 0.268300
C311 C 0.541120 0.034800 0.294540
H312 H 0.562400 -0.028000 0.266000
C313 C 0.502870 -0.045200 0.335280
H314 H 0.498200 -0.162200 0.334200
C315 C 0.471220 0.047300 0.377820
H316 H 0.445500 -0.007600 0.405500
C317 C 0.385420 0.488900 0.393180
C318 C 0.356710 0.437900 0.341520
H319 H 0.363000 0.327900 0.328300
C320 C 0.318970 0.548800 0.309650
H321 H 0.300400 0.514500 0.274600
C322 C 0.308760 0.711100 0.329770
H323 H 0.283200 0.786300 0.308300
C324 C 0.336260 0.762000 0.381470
H325 H 0.328800 0.871100 0.395100
C326 C 0.374950 0.651700 0.413230
H327 H 0.393900 0.686800 0.448000
C328 C 0.382270 0.201200 0.471590
C329 C 0.314920 0.199100 0.463370
H330 H 0.295600 0.272200 0.436700
C331 C 0.276130 0.088300 0.494850
H332 H 0.230600 0.088000 0.489800
C333 C 0.304950 -0.021900 0.533670
H334 H 0.278700 -0.097500 0.554300
C335 C 0.372170 -0.021200 0.542150
H336 H 0.391500 -0.096700 0.568100
C337 C 0.410630 0.092200 0.511900
H338 H 0.455900 0.095900 0.518500
P339 P 0.563760 0.653680 0.565690
O340 O 0.441700 0.364200 0.598480
O341 O 0.379130 0.546900 0.558570
N342 N 0.430570 0.468000 0.560080
C343 C 0.522320 0.778900 0.620590
C344 C 0.483820 0.700000 0.662070
H345 H 0.479400 0.582800 0.661500
C346 C 0.452060 0.792300 0.704140
H347 H 0.426000 0.738000 0.731700
C348 C 0.458880 0.965200 0.705460
H349 H 0.437600 1.028000 0.734000
C350 C 0.497130 1.045200 0.664720
H351 H 0.501800 1.162200 0.665800
C352 C 0.528780 0.952700 0.622180
H353 H 0.554500 1.007600 0.594500
C354 C 0.614580 0.511100 0.606820
C355 C 0.643290 0.562100 0.658480
H356 H 0.637000 0.672100 0.671700
C357 C 0.681030 0.451200 0.690350
H358 H 0.699600 0.485500 0.725400
C359 C 0.691240 0.288900 0.670230
H360 H 0.716800 0.213700 0.691700
C361 C 0.663740 0.238000 0.618530
H362 H 0.671200 0.128900 0.604900
C363 C 0.625050 0.348300 0.586770
H364 H 0.606100 0.313200 0.552000
C365 C 0.617730 0.798800 0.528410
C366 C 0.685080 0.800900 0.536630
H367 H 0.704400 0.727800 0.563300
C368 C 0.723870 0.911700 0.505150
H369 H 0.769400 0.912000 0.510200
C370 C 0.695050 1.021900 0.466330
H371 H 0.721300 1.097500 0.445700
C372 C 0.627830 1.021200 0.457850
H373 H 0.608500 1.096700 0.431900
C374 C 0.589370 0.907800 0.488100
H375 H 0.544100 0.904100 0.481500
Pd376 Pd 0.500000 0.000000 0.000000
P377 P 0.563760 -0.153680 0.065690
O378 O 0.441700 0.135800 0.098480
O379 O 0.379130 -0.046900 0.058570
N380 N 0.430570 0.032000 0.060080
C381 C 0.522320 -0.278900 0.120590
C382 C 0.483820 -0.200000 0.162070
H383 H 0.479400 -0.082800 0.161500
C384 C 0.452060 -0.292300 0.204140
H385 H 0.426000 -0.238000 0.231700
C386 C 0.458880 -0.465200 0.205460
H387 H 0.437600 -0.528000 0.234000
C388 C 0.497130 -0.545200 0.164720
H389 H 0.501800 -0.662200 0.165800
C390 C 0.528780 -0.452700 0.122180
H391 H 0.554500 -0.507600 0.094500
C392 C 0.614580 -0.011100 0.106820
C393 C 0.643290 -0.062100 0.158480
H394 H 0.637000 -0.172100 0.171700
C395 C 0.681030 0.048800 0.190350
H396 H 0.699600 0.014500 0.225400
C397 C 0.691240 0.211100 0.170230
H398 H 0.716800 0.286300 0.191700
C399 C 0.663740 0.262000 0.118530
H400 H 0.671200 0.371100 0.104900
C401 C 0.625050 0.151700 0.086770
H402 H 0.606100 0.186800 0.052000
C403 C 0.617730 -0.298800 0.028410
C404 C 0.685080 -0.300900 0.036630
H405 H 0.704400 -0.227800 0.063300
C406 C 0.723870 -0.411700 0.005150
H407 H 0.769400 -0.412000 0.010200
C408 C 0.695050 -0.521900 -0.033670
H409 H 0.721300 -0.597500 -0.054300
C410 C 0.627830 -0.521200 -0.042150
H411 H 0.608500 -0.596700 -0.068100
C412 C 0.589370 -0.407800 -0.011900
H413 H 0.544100 -0.404100 -0.018500
P414 P 0.436240 0.153680 -0.065690
O415 O 0.558300 -0.135800 -0.098480
O416 O 0.620870 0.046900 -0.058570
N417 N 0.569430 -0.032000 -0.060080
C418 C 0.477680 0.278900 -0.120590
C419 C 0.516180 0.200000 -0.162070
H420 H 0.520600 0.082800 -0.161500
C421 C 0.547940 0.292300 -0.204140
H422 H 0.574000 0.238000 -0.231700
C423 C 0.541120 0.465200 -0.205460
H424 H 0.562400 0.528000 -0.234000
C425 C 0.502870 0.545200 -0.164720
H426 H 0.498200 0.662200 -0.165800
C427 C 0.471220 0.452700 -0.122180
H428 H 0.445500 0.507600 -0.094500
C429 C 0.385420 0.011100 -0.106820
C430 C 0.356710 0.062100 -0.158480
H431 H 0.363000 0.172100 -0.171700
C432 C 0.318970 -0.048800 -0.190350
H433 H 0.300400 -0.014500 -0.225400
C434 C 0.308760 -0.211100 -0.170230
H435 H 0.283200 -0.286300 -0.191700
C436 C 0.336260 -0.262000 -0.118530
H437 H 0.328800 -0.371100 -0.104900
C438 C 0.374950 -0.151700 -0.086770
H439 H 0.393900 -0.186800 -0.052000
C440 C 0.382270 0.298800 -0.028410
C441 C 0.314920 0.300900 -0.036630
H442 H 0.295600 0.227800 -0.063300
C443 C 0.276130 0.411700 -0.005150
H444 H 0.230600 0.412000 -0.010200
C445 C 0.304950 0.521900 0.033670
H446 H 0.278700 0.597500 0.054300
C447 C 0.372170 0.521200 0.042150
H448 H 0.391500 0.596700 0.068100
C449 C 0.410630 0.407800 0.011900
H450 H 0.455900 0.404100 0.018500
Pd451 Pd 0.500000 0.000000 1.000000
P452 P 0.563760 -0.153680 1.065690
O453 O 0.441700 0.135800 1.098480
O454 O 0.379130 -0.046900 1.058570
N455 N 0.430570 0.032000 1.060080
C456 C 0.522320 -0.278900 1.120590
C457 C 0.483820 -0.200000 1.162070
H458 H 0.479400 -0.082800 1.161500
C459 C 0.452060 -0.292300 1.204140
H460 H 0.426000 -0.238000 1.231700
C461 C 0.458880 -0.465200 1.205460
H462 H 0.437600 -0.528000 1.234000
C463 C 0.497130 -0.545200 1.164720
H464 H 0.501800 -0.662200 1.165800
C465 C 0.528780 -0.452700 1.122180
H466 H 0.554500 -0.507600 1.094500
C467 C 0.614580 -0.011100 1.106820
C468 C 0.643290 -0.062100 1.158480
H469 H 0.637000 -0.172100 1.171700
C470 C 0.681030 0.048800 1.190350
H471 H 0.699600 0.014500 1.225400
C472 C 0.691240 0.211100 1.170230
H473 H 0.716800 0.286300 1.191700
C474 C 0.663740 0.262000 1.118530
H475 H 0.671200 0.371100 1.104900
C476 C 0.625050 0.151700 1.086770
H477 H 0.606100 0.186800 1.052000
C478 C 0.617730 -0.298800 1.028410
C479 C 0.685080 -0.300900 1.036630
H480 H 0.704400 -0.227800 1.063300
C481 C 0.723870 -0.411700 1.005150
H482 H 0.769400 -0.412000 1.010200
C483 C 0.695050 -0.521900 0.966330
H484 H 0.721300 -0.597500 0.945700
C485 C 0.627830 -0.521200 0.957850
H486 H 0.608500 -0.596700 0.931900
C487 C 0.589370 -0.407800 0.988100
H488 H 0.544100 -0.404100 0.981500
P489 P 0.436240 0.153680 0.934310
O490 O 0.558300 -0.135800 0.901520
O491 O 0.620870 0.046900 0.941430
N492 N 0.569430 -0.032000 0.939920
C493 C 0.477680 0.278900 0.879410
C494 C 0.516180 0.200000 0.837930
H495 H 0.520600 0.082800 0.838500
C496 C 0.547940 0.292300 0.795860
H497 H 0.574000 0.238000 0.768300
C498 C 0.541120 0.465200 0.794540
H499 H 0.562400 0.528000 0.766000
C500 C 0.502870 0.545200 0.835280
H501 H 0.498200 0.662200 0.834200
C502 C 0.471220 0.452700 0.877820
H503 H 0.445500 0.507600 0.905500
C504 C 0.385420 0.011100 0.893180
C505 C 0.356710 0.062100 0.841520
H506 H 0.363000 0.172100 0.828300
C507 C 0.318970 -0.048800 0.809650
H508 H 0.300400 -0.014500 0.774600
C509 C 0.308760 -0.211100 0.829770
H510 H 0.283200 -0.286300 0.808300
C511 C 0.336260 -0.262000 0.881470
H512 H 0.328800 -0.371100 0.895100
C513 C 0.374950 -0.151700 0.913230
H514 H 0.393900 -0.186800 0.948000
C515 C 0.382270 0.298800 0.971590
C516 C 0.314920 0.300900 0.963370
H517 H 0.295600 0.227800 0.936700
C518 C 0.276130 0.411700 0.994850
H519 H 0.230600 0.412000 0.989800
C520 C 0.304950 0.521900 1.033670
H521 H 0.278700 0.597500 1.054300
C522 C 0.372170 0.521200 1.042150
H523 H 0.391500 0.596700 1.068100
C524 C 0.410630 0.407800 1.011900
H525 H 0.455900 0.404100 1.018500
Pd526 Pd 0.500000 1.000000 0.000000
P527 P 0.563760 0.846320 0.065690
O528 O 0.441700 1.135800 0.098480
O529 O 0.379130 0.953100 0.058570
N530 N 0.430570 1.032000 0.060080
C531 C 0.522320 0.721100 0.120590
C532 C 0.483820 0.800000 0.162070
H533 H 0.479400 0.917200 0.161500
C534 C 0.452060 0.707700 0.204140
H535 H 0.426000 0.762000 0.231700
C536 C 0.458880 0.534800 0.205460
H537 H 0.437600 0.472000 0.234000
C538 C 0.497130 0.454800 0.164720
H539 H 0.501800 0.337800 0.165800
C540 C 0.528780 0.547300 0.122180
H541 H 0.554500 0.492400 0.094500
C542 C 0.614580 0.988900 0.106820
C543 C 0.643290 0.937900 0.158480
H544 H 0.637000 0.827900 0.171700
C545 C 0.681030 1.048800 0.190350
H546 H 0.699600 1.014500 0.225400
C547 C 0.691240 1.211100 0.170230
H548 H 0.716800 1.286300 0.191700
C549 C 0.663740 1.262000 0.118530
H550 H 0.671200 1.371100 0.104900
C551 C 0.625050 1.151700 0.086770
H552 H 0.606100 1.186800 0.052000
C553 C 0.617730 0.701200 0.028410
C554 C 0.685080 0.699100 0.036630
H555 H 0.704400 0.772200 0.063300
C556 C 0.723870 0.588300 0.005150
H557 H 0.769400 0.588000 0.010200
C558 C 0.695050 0.478100 -0.033670
H559 H 0.721300 0.402500 -0.054300
C560 C 0.627830 0.478800 -0.042150
H561 H 0.608500 0.403300 -0.068100
C562 C 0.589370 0.592200 -0.011900
H563 H 0.544100 0.595900 -0.018500
P564 P 0.436240 1.153680 -0.065690
O565 O 0.558300 0.864200 -0.098480
O566 O 0.620870 1.046900 -0.058570
N567 N 0.569430 0.968000 -0.060080
C568 C 0.477680 1.278900 -0.120590
C569 C 0.516180 1.200000 -0.162070
H570 H 0.520600 1.082800 -0.161500
C571 C 0.547940 1.292300 -0.204140
H572 H 0.574000 1.238000 -0.231700
C573 C 0.541120 1.465200 -0.205460
H574 H 0.562400 1.528000 -0.234000
C575 C 0.502870 1.545200 -0.164720
H576 H 0.498200 1.662200 -0.165800
C577 C 0.471220 1.452700 -0.122180
H578 H 0.445500 1.507600 -0.094500
C579 C 0.385420 1.011100 -0.106820
C580 C 0.356710 1.062100 -0.158480
H581 H 0.363000 1.172100 -0.171700
C582 C 0.318970 0.951200 -0.190350
H583 H 0.300400 0.985500 -0.225400
C584 C 0.308760 0.788900 -0.170230
H585 H 0.283200 0.713700 -0.191700
C586 C 0.336260 0.738000 -0.118530
H587 H 0.328800 0.628900 -0.104900
C588 C 0.374950 0.848300 -0.086770
H589 H 0.393900 0.813200 -0.052000
C590 C 0.382270 1.298800 -0.028410
C591 C 0.314920 1.300900 -0.036630
H592 H 0.295600 1.227800 -0.063300
C593 C 0.276130 1.411700 -0.005150
H594 H 0.230600 1.412000 -0.010200
C595 C 0.304950 1.521900 0.033670
H596 H 0.278700 1.597500 0.054300
C597 C 0.372170 1.521200 0.042150
H598 H 0.391500 1.596700 0.068100
C599 C 0.410630 1.407800 0.011900
H600 H 0.455900 1.404100 0.018500
Pd601 Pd 0.500000 1.000000 1.000000
P602 P 0.563760 0.846320 1.065690
O603 O 0.441700 1.135800 1.098480
O604 O 0.379130 0.953100 1.058570
N605 N 0.430570 1.032000 1.060080
C606 C 0.522320 0.721100 1.120590
C607 C 0.483820 0.800000 1.162070
H608 H 0.479400 0.917200 1.161500
C609 C 0.452060 0.707700 1.204140
H610 H 0.426000 0.762000 1.231700
C611 C 0.458880 0.534800 1.205460
H612 H 0.437600 0.472000 1.234000
C613 C 0.497130 0.454800 1.164720
H614 H 0.501800 0.337800 1.165800
C615 C 0.528780 0.547300 1.122180
H616 H 0.554500 0.492400 1.094500
C617 C 0.614580 0.988900 1.106820
C618 C 0.643290 0.937900 1.158480
H619 H 0.637000 0.827900 1.171700
C620 C 0.681030 1.048800 1.190350
H621 H 0.699600 1.014500 1.225400
C622 C 0.691240 1.211100 1.170230
H623 H 0.716800 1.286300 1.191700
C624 C 0.663740 1.262000 1.118530
H625 H 0.671200 1.371100 1.104900
C626 C 0.625050 1.151700 1.086770
H627 H 0.606100 1.186800 1.052000
C628 C 0.617730 0.701200 1.028410
C629 C 0.685080 0.699100 1.036630
H630 H 0.704400 0.772200 1.063300
C631 C 0.723870 0.588300 1.005150
H632 H 0.769400 0.588000 1.010200
C633 C 0.695050 0.478100 0.966330
H634 H 0.721300 0.402500 0.945700
C635 C 0.627830 0.478800 0.957850
H636 H 0.608500 0.403300 0.931900
C637 C 0.589370 0.592200 0.988100
H638 H 0.544100 0.595900 0.981500
P639 P 0.436240 1.153680 0.934310
O640 O 0.558300 0.864200 0.901520
O641 O 0.620870 1.046900 0.941430
N642 N 0.569430 0.968000 0.939920
C643 C 0.477680 1.278900 0.879410
C644 C 0.516180 1.200000 0.837930
H645 H 0.520600 1.082800 0.838500
C646 C 0.547940 1.292300 0.795860
H647 H 0.574000 1.238000 0.768300
C648 C 0.541120 1.465200 0.794540
H649 H 0.562400 1.528000 0.766000
C650 C 0.502870 1.545200 0.835280
H651 H 0.498200 1.662200 0.834200
C652 C 0.471220 1.452700 0.877820
H653 H 0.445500 1.507600 0.905500
C654 C 0.385420 1.011100 0.893180
C655 C 0.356710 1.062100 0.841520
H656 H 0.363000 1.172100 0.828300
C657 C 0.318970 0.951200 0.809650
H658 H 0.300400 0.985500 0.774600
C659 C 0.308760 0.788900 0.829770
H660 H 0.283200 0.713700 0.808300
C661 C 0.336260 0.738000 0.881470
H662 H 0.328800 0.628900 0.895100
C663 C 0.374950 0.848300 0.913230
H664 H 0.393900 0.813200 0.948000
C665 C 0.382270 1.298800 0.971590
C666 C 0.314920 1.300900 0.963370
H667 H 0.295600 1.227800 0.936700
C668 C 0.276130 1.411700 0.994850
H669 H 0.230600 1.412000 0.989800
C670 C 0.304950 1.521900 1.033670
H671 H 0.278700 1.597500 1.054300
C672 C 0.372170 1.521200 1.042150
H673 H 0.391500 1.596700 1.068100
C674 C 0.410630 1.407800 1.011900
H675 H 0.455900 1.404100 1.018500
Pd676 Pd 0.000000 0.000000 0.500000
P677 P -0.063760 0.153680 0.565690
O678 O 0.058300 -0.135800 0.598480
O679 O 0.120870 0.046900 0.558570
N680 N 0.069430 -0.032000 0.560080
C681 C -0.022320 0.278900 0.620590
C682 C 0.016180 0.200000 0.662070
H683 H 0.020600 0.082800 0.661500
C684 C 0.047940 0.292300 0.704140
H685 H 0.074000 0.238000 0.731700
C686 C 0.041120 0.465200 0.705460
H687 H 0.062400 0.528000 0.734000
C688 C 0.002870 0.545200 0.664720
H689 H -0.001800 0.662200 0.665800
C690 C -0.028780 0.452700 0.622180
H691 H -0.054500 0.507600 0.594500
C692 C -0.114580 0.011100 0.606820
C693 C -0.143290 0.062100 0.658480
H694 H -0.137000 0.172100 0.671700
C695 C -0.181030 -0.048800 0.690350
H696 H -0.199600 -0.014500 0.725400
C697 C -0.191240 -0.211100 0.670230
H698 H -0.216800 -0.286300 0.691700
C699 C -0.163740 -0.262000 0.618530
H700 H -0.171200 -0.371100 0.604900
C701 C -0.125050 -0.151700 0.586770
H702 H -0.106100 -0.186800 0.552000
C703 C -0.117730 0.298800 0.528410
C704 C -0.185080 0.300900 0.536630
H705 H -0.204400 0.227800 0.563300
C706 C -0.223870 0.411700 0.505150
H707 H -0.269400 0.412000 0.510200
C708 C -0.195050 0.521900 0.466330
H709 H -0.221300 0.597500 0.445700
C710 C -0.127830 0.521200 0.457850
H711 H -0.108500 0.596700 0.431900
C712 C -0.089370 0.407800 0.488100
H713 H -0.044100 0.404100 0.481500
P714 P 0.063760 -0.153680 0.434310
O715 O -0.058300 0.135800 0.401520
O716 O -0.120870 -0.046900 0.441430
N717 N -0.069430 0.032000 0.439920
C718 C 0.022320 -0.278900 0.379410
C719 C -0.016180 -0.200000 0.337930
H720 H -0.020600 -0.082800 0.338500
C721 C -0.047940 -0.292300 0.295860
H722 H -0.074000 -0.238000 0.268300
C723 C -0.041120 -0.465200 0.294540
H724 H -0.062400 -0.528000 0.266000
C725 C -0.002870 -0.545200 0.335280
H726 H 0.001800 -0.662200 0.334200
C727 C 0.028780 -0.452700 0.377820
H728 H 0.054500 -0.507600 0.405500
C729 C 0.114580 -0.011100 0.393180
C730 C 0.143290 -0.062100 0.341520
H731 H 0.137000 -0.172100 0.328300
C732 C 0.181030 0.048800 0.309650
H733 H 0.199600 0.014500 0.274600
C734 C 0.191240 0.211100 0.329770
H735 H 0.216800 0.286300 0.308300
C736 C 0.163740 0.262000 0.381470
H737 H 0.171200 0.371100 0.395100
C738 C 0.125050 0.151700 0.413230
H739 H 0.106100 0.186800 0.448000
C740 C 0.117730 -0.298800 0.471590
C741 C 0.185080 -0.300900 0.463370
H742 H 0.204400 -0.227800 0.436700
C743 C 0.223870 -0.411700 0.494850
H744 H 0.269400 -0.412000 0.489800
C745 C 0.195050 -0.521900 0.533670
H746 H 0.221300 -0.597500 0.554300
C747 C 0.127830 -0.521200 0.542150
H748 H 0.108500 -0.596700 0.568100
C749 C 0.089370 -0.407800 0.511900
H750 H 0.044100 -0.404100 0.518500
Pd751 Pd 0.000000 1.000000 0.500000
P752 P -0.063760 1.153680 0.565690
O753 O 0.058300 0.864200 0.598480
O754 O 0.120870 1.046900 0.558570
N755 N 0.069430 0.968000 0.560080
C756 C -0.022320 1.278900 0.620590
C757 C 0.016180 1.200000 0.662070
H758 H 0.020600 1.082800 0.661500
C759 C 0.047940 1.292300 0.704140
H760 H 0.074000 1.238000 0.731700
C761 C 0.041120 1.465200 0.705460
H762 H 0.062400 1.528000 0.734000
C763 C 0.002870 1.545200 0.664720
H764 H -0.001800 1.662200 0.665800
C765 C -0.028780 1.452700 0.622180
H766 H -0.054500 1.507600 0.594500
C767 C -0.114580 1.011100 0.606820
C768 C -0.143290 1.062100 0.658480
H769 H -0.137000 1.172100 0.671700
C770 C -0.181030 0.951200 0.690350
H771 H -0.199600 0.985500 0.725400
C772 C -0.191240 0.788900 0.670230
H773 H -0.216800 0.713700 0.691700
C774 C -0.163740 0.738000 0.618530
H775 H -0.171200 0.628900 0.604900
C776 C -0.125050 0.848300 0.586770
H777 H -0.106100 0.813200 0.552000
C778 C -0.117730 1.298800 0.528410
C779 C -0.185080 1.300900 0.536630
H780 H -0.204400 1.227800 0.563300
C781 C -0.223870 1.411700 0.505150
H782 H -0.269400 1.412000 0.510200
C783 C -0.195050 1.521900 0.466330
H784 H -0.221300 1.597500 0.445700
C785 C -0.127830 1.521200 0.457850
H786 H -0.108500 1.596700 0.431900
C787 C -0.089370 1.407800 0.488100
H788 H -0.044100 1.404100 0.481500
P789 P 0.063760 0.846320 0.434310
O790 O -0.058300 1.135800 0.401520
O791 O -0.120870 0.953100 0.441430
N792 N -0.069430 1.032000 0.439920
C793 C 0.022320 0.721100 0.379410
C794 C -0.016180 0.800000 0.337930
H795 H -0.020600 0.917200 0.338500
C796 C -0.047940 0.707700 0.295860
H797 H -0.074000 0.762000 0.268300
C798 C -0.041120 0.534800 0.294540
H799 H -0.062400 0.472000 0.266000
C800 C -0.002870 0.454800 0.335280
H801 H 0.001800 0.337800 0.334200
C802 C 0.028780 0.547300 0.377820
H803 H 0.054500 0.492400 0.405500
C804 C 0.114580 0.988900 0.393180
C805 C 0.143290 0.937900 0.341520
H806 H 0.137000 0.827900 0.328300
C807 C 0.181030 1.048800 0.309650
H808 H 0.199600 1.014500 0.274600
C809 C 0.191240 1.211100 0.329770
H810 H 0.216800 1.286300 0.308300
C811 C 0.163740 1.262000 0.381470
H812 H 0.171200 1.371100 0.395100
C813 C 0.125050 1.151700 0.413230
H814 H 0.106100 1.186800 0.448000
C815 C 0.117730 0.701200 0.471590
C816 C 0.185080 0.699100 0.463370
H817 H 0.204400 0.772200 0.436700
C818 C 0.223870 0.588300 0.494850
H819 H 0.269400 0.588000 0.489800
C820 C 0.195050 0.478100 0.533670
H821 H 0.221300 0.402500 0.554300
C822 C 0.127830 0.478800 0.542150
H823 H 0.108500 0.403300 0.568100
C824 C 0.089370 0.592200 0.511900
H825 H 0.044100 0.595900 0.518500
Pd826 Pd 1.000000 0.000000 0.500000
P827 P 0.936240 0.153680 0.565690
O828 O 1.058300 -0.135800 0.598480
O829 O 1.120870 0.046900 0.558570
N830 N 1.069430 -0.032000 0.560080
C831 C 0.977680 0.278900 0.620590
C832 C 1.016180 0.200000 0.662070
H833 H 1.020600 0.082800 0.661500
C834 C 1.047940 0.292300 0.704140
H835 H 1.074000 0.238000 0.731700
C836 C 1.041120 0.465200 0.705460
H837 H 1.062400 0.528000 0.734000
C838 C 1.002870 0.545200 0.664720
H839 H 0.998200 0.662200 0.665800
C840 C 0.971220 0.452700 0.622180
H841 H 0.945500 0.507600 0.594500
C842 C 0.885420 0.011100 0.606820
C843 C 0.856710 0.062100 0.658480
H844 H 0.863000 0.172100 0.671700
C845 C 0.818970 -0.048800 0.690350
H846 H 0.800400 -0.014500 0.725400
C847 C 0.808760 -0.211100 0.670230
H848 H 0.783200 -0.286300 0.691700
C849 C 0.836260 -0.262000 0.618530
H850 H 0.828800 -0.371100 0.604900
C851 C 0.874950 -0.151700 0.586770
H852 H 0.893900 -0.186800 0.552000
C853 C 0.882270 0.298800 0.528410
C854 C 0.814920 0.300900 0.536630
H855 H 0.795600 0.227800 0.563300
C856 C 0.776130 0.411700 0.505150
H857 H 0.730600 0.412000 0.510200
C858 C 0.804950 0.521900 0.466330
H859 H 0.778700 0.597500 0.445700
C860 C 0.872170 0.521200 0.457850
H861 H 0.891500 0.596700 0.431900
C862 C 0.910630 0.407800 0.488100
H863 H 0.955900 0.404100 0.481500
P864 P 1.063760 -0.153680 0.434310
O865 O 0.941700 0.135800 0.401520
O866 O 0.879130 -0.046900 0.441430
N867 N 0.930570 0.032000 0.439920
C868 C 1.022320 -0.278900 0.379410
C869 C 0.983820 -0.200000 0.337930
H870 H 0.979400 -0.082800 0.338500
C871 C 0.952060 -0.292300 0.295860
H872 H 0.926000 -0.238000 0.268300
C873 C 0.958880 -0.465200 0.294540
H874 H 0.937600 -0.528000 0.266000
C875 C 0.997130 -0.545200 0.335280
H876 H 1.001800 -0.662200 0.334200
C877 C 1.028780 -0.452700 0.377820
H878 H 1.054500 -0.507600 0.405500
C879 C 1.114580 -0.011100 0.393180
C880 C 1.143290 -0.062100 0.341520
H881 H 1.137000 -0.172100 0.328300
C882 C 1.181030 0.048800 0.309650
H883 H 1.199600 0.014500 0.274600
C884 C 1.191240 0.211100 0.329770
H885 H 1.216800 0.286300 0.308300
C886 C 1.163740 0.262000 0.381470
H887 H 1.171200 0.371100 0.395100
C888 C 1.125050 0.151700 0.413230
H889 H 1.106100 0.186800 0.448000
C890 C 1.117730 -0.298800 0.471590
C891 C 1.185080 -0.300900 0.463370
H892 H 1.204400 -0.227800 0.436700
C893 C 1.223870 -0.411700 0.494850
H894 H 1.269400 -0.412000 0.489800
C895 C 1.195050 -0.521900 0.533670
H896 H 1.221300 -0.597500 0.554300
C897 C 1.127830 -0.521200 0.542150
H898 H 1.108500 -0.596700 0.568100
C899 C 1.089370 -0.407800 0.511900
H900 H 1.044100 -0.404100 0.518500
Pd901 Pd 1.000000 1.000000 0.500000
P902 P 0.936240 1.153680 0.565690
O903 O 1.058300 0.864200 0.598480
O904 O 1.120870 1.046900 0.558570
N905 N 1.069430 0.968000 0.560080
C906 C 0.977680 1.278900 0.620590
C907 C 1.016180 1.200000 0.662070
H908 H 1.020600 1.082800 0.661500
C909 C 1.047940 1.292300 0.704140
H910 H 1.074000 1.238000 0.731700
C911 C 1.041120 1.465200 0.705460
H912 H 1.062400 1.528000 0.734000
C913 C 1.002870 1.545200 0.664720
H914 H 0.998200 1.662200 0.665800
C915 C 0.971220 1.452700 0.622180
H916 H 0.945500 1.507600 0.594500
C917 C 0.885420 1.011100 0.606820
C918 C 0.856710 1.062100 0.658480
H919 H 0.863000 1.172100 0.671700
C920 C 0.818970 0.951200 0.690350
H921 H 0.800400 0.985500 0.725400
C922 C 0.808760 0.788900 0.670230
H923 H 0.783200 0.713700 0.691700
C924 C 0.836260 0.738000 0.618530
H925 H 0.828800 0.628900 0.604900
C926 C 0.874950 0.848300 0.586770
H927 H 0.893900 0.813200 0.552000
C928 C 0.882270 1.298800 0.528410
C929 C 0.814920 1.300900 0.536630
H930 H 0.795600 1.227800 0.563300
C931 C 0.776130 1.411700 0.505150
H932 H 0.730600 1.412000 0.510200
C933 C 0.804950 1.521900 0.466330
H934 H 0.778700 1.597500 0.445700
C935 C 0.872170 1.521200 0.457850
H936 H 0.891500 1.596700 0.431900
C937 C 0.910630 1.407800 0.488100
H938 H 0.955900 1.404100 0.481500
P939 P 1.063760 0.846320 0.434310
O940 O 0.941700 1.135800 0.401520
O941 O 0.879130 0.953100 0.441430
N942 N 0.930570 1.032000 0.439920
C943 C 1.022320 0.721100 0.379410
C944 C 0.983820 0.800000 0.337930
H945 H 0.979400 0.917200 0.338500
C946 C 0.952060 0.707700 0.295860
H947 H 0.926000 0.762000 0.268300
C948 C 0.958880 0.534800 0.294540
H949 H 0.937600 0.472000 0.266000
C950 C 0.997130 0.454800 0.335280
H951 H 1.001800 0.337800 0.334200
C952 C 1.028780 0.547300 0.377820
H953 H 1.054500 0.492400 0.405500
C954 C 1.114580 0.988900 0.393180
C955 C 1.143290 0.937900 0.341520
H956 H 1.137000 0.827900 0.328300
C957 C 1.181030 1.048800 0.309650
H958 H 1.199600 1.014500 0.274600
C959 C 1.191240 1.211100 0.329770
H960 H 1.216800 1.286300 0.308300
C961 C 1.163740 1.262000 0.381470
H962 H 1.171200 1.371100 0.395100
C963 C 1.125050 1.151700 0.413230
H964 H 1.106100 1.186800 0.448000
C965 C 1.117730 0.701200 0.471590
C966 C 1.185080 0.699100 0.463370
H967 H 1.204400 0.772200 0.436700
C968 C 1.223870 0.588300 0.494850
H969 H 1.269400 0.588000 0.489800
C970 C 1.195050 0.478100 0.533670
H971 H 1.221300 0.402500 0.554300
C972 C 1.127830 0.478800 0.542150
H973 H 1.108500 0.403300 0.568100
C974 C 1.089370 0.592200 0.511900
H975 H 1.044100 0.595900 0.518500
Cl976 Cl 0.853920 0.127520 0.273750
Cl977 Cl 0.734510 0.258880 0.326270
C978 C 0.816340 0.201900 0.337420
H979 H 0.818400 0.114500 0.366900
H980 H 0.840600 0.299200 0.351600
Cl981 Cl 0.646080 0.872480 0.773750
Cl982 Cl 0.765490 0.741120 0.826270
C983 C 0.683660 0.798100 0.837420
H984 H 0.681600 0.885500 0.866900
H985 H 0.659400 0.700800 0.851600
Cl986 Cl 0.353920 0.372480 0.726250
Cl987 Cl 0.234510 0.241120 0.673730
C988 C 0.316340 0.298100 0.662580
H989 H 0.318400 0.385500 0.633100
H990 H 0.340600 0.200800 0.648400
Cl991 Cl 0.146080 0.627520 0.226250
Cl992 Cl 0.265490 0.758880 0.173730
C993 C 0.183660 0.701900 0.162580
H994 H 0.181600 0.614500 0.133100
H995 H 0.159400 0.799200 0.148400
Cl996 Cl 0.146080 0.872480 0.726250
Cl997 Cl 0.265490 0.741120 0.673730
C998 C 0.183660 0.798100 0.662580
H999 H 0.181600 0.885500 0.633100
H1000 H 0.159400 0.700800 0.648400
Cl1001 Cl 0.353920 0.127520 0.226250
Cl1002 Cl 0.234510 0.258880 0.173730
C1003 C 0.316340 0.201900 0.162580
H1004 H 0.318400 0.114500 0.133100
H1005 H 0.340600 0.299200 0.148400
Cl1006 Cl 0.646080 0.627520 0.273750
Cl1007 Cl 0.765490 0.758880 0.326270
C1008 C 0.683660 0.701900 0.337420
H1009 H 0.681600 0.614500 0.366900
H1010 H 0.659400 0.799200 0.351600
Cl1011 Cl 0.853920 0.372480 0.773750
Cl1012 Cl 0.734510 0.241120 0.826270
C1013 C 0.816340 0.298100 0.837420
H1014 H 0.818400 0.385500 0.866900
H1015 H 0.840600 0.200800 0.851600

#END
