./ACOXEX_from_xyz.cif_generated_by_CrystalShift
_symmetry_cell_setting triclinic
_symmetry_space_group_name_H-M 'P 1'
loop_
_symmetry_equiv_pos_site_id
_symmetry_equiv_pos_as_xyz
1 x,y,z
_cell_length_a 20.471000
_cell_length_b 7.953000
_cell_length_c 23.261000
_cell_angle_alpha 90.000000
_cell_angle_beta 90.000000
_cell_angle_gamma 90.000000
_cell_volume 3787.027179
loop_
_atom_site_label
_atom_site_type_symbol
_atom_site_fract_x
_atom_site_fract_y
_atom_site_fract_z
Pt1 Pt 0.500000 0.000000 0.500000
P2 P 0.563930 -0.147370 0.565950
O3 O 0.378350 -0.047120 0.556510
O4 O 0.439720 0.133850 0.598750
N5 N 0.429550 0.031580 0.559400
C6 C 0.521580 -0.271800 0.620350
C7 C 0.484970 -0.192200 0.662650
H8 H 0.482100 -0.073000 0.663000
C9 C 0.452810 -0.284000 0.704170
H10 H 0.427400 -0.228100 0.732500
C11 C 0.457440 -0.457800 0.704670
H12 H 0.435500 -0.521100 0.733400
C13 C 0.494030 -0.538500 0.663350
H14 H 0.497400 -0.657600 0.663700
C15 C 0.526000 -0.446600 0.621210
H16 H 0.551000 -0.503100 0.592800
C17 C 0.614300 -0.004100 0.607180
C18 C 0.624470 0.159400 0.588420
H19 H 0.605200 0.196400 0.553500
C20 C 0.662630 0.269200 0.620330
H21 H 0.669800 0.380700 0.607100
C22 C 0.690080 0.216700 0.671050
H23 H 0.715300 0.292800 0.693300
C24 C 0.681180 0.053700 0.689970
H25 H 0.701300 0.017400 0.724600
C26 C 0.643110 -0.056900 0.658730
H27 H 0.636500 -0.168400 0.672200
C28 C 0.617890 -0.292800 0.529160
C29 C 0.590340 -0.403900 0.489380
H30 H 0.544600 -0.401800 0.482700
C31 C 0.629020 -0.517000 0.459570
H32 H 0.609800 -0.593700 0.433200
C33 C 0.695570 -0.517500 0.468430
H34 H 0.722400 -0.594200 0.447900
C35 C 0.723580 -0.406700 0.507130
H36 H 0.769600 -0.406800 0.512600
C37 C 0.685060 -0.296200 0.537880
H38 H 0.704500 -0.222400 0.565000
P39 P 0.436070 0.147370 0.434050
O40 O 0.621650 0.047120 0.443490
O41 O 0.560280 -0.133850 0.401250
N42 N 0.570450 -0.031580 0.440600
C43 C 0.478420 0.271800 0.379650
C44 C 0.515030 0.192200 0.337350
H45 H 0.517900 0.073000 0.337000
C46 C 0.547190 0.284000 0.295830
H47 H 0.572600 0.228100 0.267500
C48 C 0.542560 0.457800 0.295330
H49 H 0.564500 0.521100 0.266600
C50 C 0.505970 0.538500 0.336650
H51 H 0.502600 0.657600 0.336300
C52 C 0.474000 0.446600 0.378790
H53 H 0.449000 0.503100 0.407200
C54 C 0.385700 0.004100 0.392820
C55 C 0.375530 -0.159400 0.411580
H56 H 0.394800 -0.196400 0.446500
C57 C 0.337370 -0.269200 0.379670
H58 H 0.330200 -0.380700 0.392900
C59 C 0.309920 -0.216700 0.328950
H60 H 0.284700 -0.292800 0.306700
C61 C 0.318820 -0.053700 0.310030
H62 H 0.298700 -0.017400 0.275400
C63 C 0.356890 0.056900 0.341270
H64 H 0.363500 0.168400 0.327800
C65 C 0.382110 0.292800 0.470840
C66 C 0.409660 0.403900 0.510620
H67 H 0.455400 0.401800 0.517300
C68 C 0.370980 0.517000 0.540430
H69 H 0.390200 0.593700 0.566800
C70 C 0.304430 0.517500 0.531570
H71 H 0.277600 0.594200 0.552100
C72 C 0.276420 0.406700 0.492870
H73 H 0.230400 0.406800 0.487400
C74 C 0.314940 0.296200 0.462120
H75 H 0.295500 0.222400 0.435000
Pt76 Pt 0.500000 1.000000 0.500000
P77 P 0.563930 0.852630 0.565950
O78 O 0.378350 0.952880 0.556510
O79 O 0.439720 1.133850 0.598750
N80 N 0.429550 1.031580 0.559400
C81 C 0.521580 0.728200 0.620350
C82 C 0.484970 0.807800 0.662650
H83 H 0.482100 0.927000 0.663000
C84 C 0.452810 0.716000 0.704170
H85 H 0.427400 0.771900 0.732500
C86 C 0.457440 0.542200 0.704670
H87 H 0.435500 0.478900 0.733400
C88 C 0.494030 0.461500 0.663350
H89 H 0.497400 0.342400 0.663700
C90 C 0.526000 0.553400 0.621210
H91 H 0.551000 0.496900 0.592800
C92 C 0.614300 0.995900 0.607180
C93 C 0.624470 1.159400 0.588420
H94 H 0.605200 1.196400 0.553500
C95 C 0.662630 1.269200 0.620330
H96 H 0.669800 1.380700 0.607100
C97 C 0.690080 1.216700 0.671050
H98 H 0.715300 1.292800 0.693300
C99 C 0.681180 1.053700 0.689970
H100 H 0.701300 1.017400 0.724600
C101 C 0.643110 0.943100 0.658730
H102 H 0.636500 0.831600 0.672200
C103 C 0.617890 0.707200 0.529160
C104 C 0.590340 0.596100 0.489380
H105 H 0.544600 0.598200 0.482700
C106 C 0.629020 0.483000 0.459570
H107 H 0.609800 0.406300 0.433200
C108 C 0.695570 0.482500 0.468430
H109 H 0.722400 0.405800 0.447900
C110 C 0.723580 0.593300 0.507130
H111 H 0.769600 0.593200 0.512600
C112 C 0.685060 0.703800 0.537880
H113 H 0.704500 0.777600 0.565000
P114 P 0.436070 1.147370 0.434050
O115 O 0.621650 1.047120 0.443490
O116 O 0.560280 0.866150 0.401250
N117 N 0.570450 0.968420 0.440600
C118 C 0.478420 1.271800 0.379650
C119 C 0.515030 1.192200 0.337350
H120 H 0.517900 1.073000 0.337000
C121 C 0.547190 1.284000 0.295830
H122 H 0.572600 1.228100 0.267500
C123 C 0.542560 1.457800 0.295330
H124 H 0.564500 1.521100 0.266600
C125 C 0.505970 1.538500 0.336650
H126 H 0.502600 1.657600 0.336300
C127 C 0.474000 1.446600 0.378790
H128 H 0.449000 1.503100 0.407200
C129 C 0.385700 1.004100 0.392820
C130 C 0.375530 0.840600 0.411580
H131 H 0.394800 0.803600 0.446500
C132 C 0.337370 0.730800 0.379670
H133 H 0.330200 0.619300 0.392900
C134 C 0.309920 0.783300 0.328950
H135 H 0.284700 0.707200 0.306700
C136 C 0.318820 0.946300 0.310030
H137 H 0.298700 0.982600 0.275400
C138 C 0.356890 1.056900 0.341270
H139 H 0.363500 1.168400 0.327800
C140 C 0.382110 1.292800 0.470840
C141 C 0.409660 1.403900 0.510620
H142 H 0.455400 1.401800 0.517300
C143 C 0.370980 1.517000 0.540430
H144 H 0.390200 1.593700 0.566800
C145 C 0.304430 1.517500 0.531570
H146 H 0.277600 1.594200 0.552100
C147 C 0.276420 1.406700 0.492870
H148 H 0.230400 1.406800 0.487400
C149 C 0.314940 1.296200 0.462120
H150 H 0.295500 1.222400 0.435000
Pt151 Pt 0.000000 0.000000 0.000000
P152 P -0.063930 0.147370 0.065950
O153 O 0.121650 0.047120 0.056510
O154 O 0.060280 -0.133850 0.098750
N155 N 0.070450 -0.031580 0.059400
C156 C -0.021580 0.271800 0.120350
C157 C 0.015030 0.192200 0.162650
H158 H 0.017900 0.073000 0.163000
C159 C 0.047190 0.284000 0.204170
H160 H 0.072600 0.228100 0.232500
C161 C 0.042560 0.457800 0.204670
H162 H 0.064500 0.521100 0.233400
C163 C 0.005970 0.538500 0.163350
H164 H 0.002600 0.657600 0.163700
C165 C -0.026000 0.446600 0.121210
H166 H -0.051000 0.503100 0.092800
C167 C -0.114300 0.004100 0.107180
C168 C -0.124470 -0.159400 0.088420
H169 H -0.105200 -0.196400 0.053500
C170 C -0.162630 -0.269200 0.120330
H171 H -0.169800 -0.380700 0.107100
C172 C -0.190080 -0.216700 0.171050
H173 H -0.215300 -0.292800 0.193300
C174 C -0.181180 -0.053700 0.189970
H175 H -0.201300 -0.017400 0.224600
C176 C -0.143110 0.056900 0.158730
H177 H -0.136500 0.168400 0.172200
C178 C -0.117890 0.292800 0.029160
C179 C -0.090340 0.403900 -0.010620
H180 H -0.044600 0.401800 -0.017300
C181 C -0.129020 0.517000 -0.040430
H182 H -0.109800 0.593700 -0.066800
C183 C -0.195570 0.517500 -0.031570
H184 H -0.222400 0.594200 -0.052100
C185 C -0.223580 0.406700 0.007130
H186 H -0.269600 0.406800 0.012600
C187 C -0.185060 0.296200 0.037880
H188 H -0.204500 0.222400 0.065000
P189 P 0.063930 -0.147370 -0.065950
O190 O -0.121650 -0.047120 -0.056510
O191 O -0.060280 0.133850 -0.098750
N192 N -0.070450 0.031580 -0.059400
C193 C 0.021580 -0.271800 -0.120350
C194 C -0.015030 -0.192200 -0.162650
H195 H -0.017900 -0.073000 -0.163000
C196 C -0.047190 -0.284000 -0.204170
H197 H -0.072600 -0.228100 -0.232500
C198 C -0.042560 -0.457800 -0.204670
H199 H -0.064500 -0.521100 -0.233400
C200 C -0.005970 -0.538500 -0.163350
H201 H -0.002600 -0.657600 -0.163700
C202 C 0.026000 -0.446600 -0.121210
H203 H 0.051000 -0.503100 -0.092800
C204 C 0.114300 -0.004100 -0.107180
C205 C 0.124470 0.159400 -0.088420
H206 H 0.105200 0.196400 -0.053500
C207 C 0.162630 0.269200 -0.120330
H208 H 0.169800 0.380700 -0.107100
C209 C 0.190080 0.216700 -0.171050
H210 H 0.215300 0.292800 -0.193300
C211 C 0.181180 0.053700 -0.189970
H212 H 0.201300 0.017400 -0.224600
C213 C 0.143110 -0.056900 -0.158730
H214 H 0.136500 -0.168400 -0.172200
C215 C 0.117890 -0.292800 -0.029160
C216 C 0.090340 -0.403900 0.010620
H217 H 0.044600 -0.401800 0.017300
C218 C 0.129020 -0.517000 0.040430
H219 H 0.109800 -0.593700 0.066800
C220 C 0.195570 -0.517500 0.031570
H221 H 0.222400 -0.594200 0.052100
C222 C 0.223580 -0.406700 -0.007130
H223 H 0.269600 -0.406800 -0.012600
C224 C 0.185060 -0.296200 -0.037880
H225 H 0.204500 -0.222400 -0.065000
Pt226 Pt 0.000000 0.000000 1.000000
P227 P -0.063930 0.147370 1.065950
O228 O 0.121650 0.047120 1.056510
O229 O 0.060280 -0.133850 1.098750
N230 N 0.070450 -0.031580 1.059400
C231 C -0.021580 0.271800 1.120350
C232 C 0.015030 0.192200 1.162650
H233 H 0.017900 0.073000 1.163000
C234 C 0.047190 0.284000 1.204170
H235 H 0.072600 0.228100 1.232500
C236 C 0.042560 0.457800 1.204670
H237 H 0.064500 0.521100 1.233400
C238 C 0.005970 0.538500 1.163350
H239 H 0.002600 0.657600 1.163700
C240 C -0.026000 0.446600 1.121210
H241 H -0.051000 0.503100 1.092800
C242 C -0.114300 0.004100 1.107180
C243 C -0.124470 -0.159400 1.088420
H244 H -0.105200 -0.196400 1.053500
C245 C -0.162630 -0.269200 1.120330
H246 H -0.169800 -0.380700 1.107100
C247 C -0.190080 -0.216700 1.171050
H248 H -0.215300 -0.292800 1.193300
C249 C -0.181180 -0.053700 1.189970
H250 H -0.201300 -0.017400 1.224600
C251 C -0.143110 0.056900 1.158730
H252 H -0.136500 0.168400 1.172200
C253 C -0.117890 0.292800 1.029160
C254 C -0.090340 0.403900 0.989380
H255 H -0.044600 0.401800 0.982700
C256 C -0.129020 0.517000 0.959570
H257 H -0.109800 0.593700 0.933200
C258 C -0.195570 0.517500 0.968430
H259 H -0.222400 0.594200 0.947900
C260 C -0.223580 0.406700 1.007130
H261 H -0.269600 0.406800 1.012600
C262 C -0.185060 0.296200 1.037880
H263 H -0.204500 0.222400 1.065000
P264 P 0.063930 -0.147370 0.934050
O265 O -0.121650 -0.047120 0.943490
O266 O -0.060280 0.133850 0.901250
N267 N -0.070450 0.031580 0.940600
C268 C 0.021580 -0.271800 0.879650
C269 C -0.015030 -0.192200 0.837350
H270 H -0.017900 -0.073000 0.837000
C271 C -0.047190 -0.284000 0.795830
H272 H -0.072600 -0.228100 0.767500
C273 C -0.042560 -0.457800 0.795330
H274 H -0.064500 -0.521100 0.766600
C275 C -0.005970 -0.538500 0.836650
H276 H -0.002600 -0.657600 0.836300
C277 C 0.026000 -0.446600 0.878790
H278 H 0.051000 -0.503100 0.907200
C279 C 0.114300 -0.004100 0.892820
C280 C 0.124470 0.159400 0.911580
H281 H 0.105200 0.196400 0.946500
C282 C 0.162630 0.269200 0.879670
H283 H 0.169800 0.380700 0.892900
C284 C 0.190080 0.216700 0.828950
H285 H 0.215300 0.292800 0.806700
C286 C 0.181180 0.053700 0.810030
H287 H 0.201300 0.017400 0.775400
C288 C 0.143110 -0.056900 0.841270
H289 H 0.136500 -0.168400 0.827800
C290 C 0.117890 -0.292800 0.970840
C291 C 0.090340 -0.403900 1.010620
H292 H 0.044600 -0.401800 1.017300
C293 C 0.129020 -0.517000 1.040430
H294 H 0.109800 -0.593700 1.066800
C295 C 0.195570 -0.517500 1.031570
H296 H 0.222400 -0.594200 1.052100
C297 C 0.223580 -0.406700 0.992870
H298 H 0.269600 -0.406800 0.987400
C299 C 0.185060 -0.296200 0.962120
H300 H 0.204500 -0.222400 0.935000
Pt301 Pt 0.000000 1.000000 0.000000
P302 P -0.063930 1.147370 0.065950
O303 O 0.121650 1.047120 0.056510
O304 O 0.060280 0.866150 0.098750
N305 N 0.070450 0.968420 0.059400
C306 C -0.021580 1.271800 0.120350
C307 C 0.015030 1.192200 0.162650
H308 H 0.017900 1.073000 0.163000
C309 C 0.047190 1.284000 0.204170
H310 H 0.072600 1.228100 0.232500
C311 C 0.042560 1.457800 0.204670
H312 H 0.064500 1.521100 0.233400
C313 C 0.005970 1.538500 0.163350
H314 H 0.002600 1.657600 0.163700
C315 C -0.026000 1.446600 0.121210
H316 H -0.051000 1.503100 0.092800
C317 C -0.114300 1.004100 0.107180
C318 C -0.124470 0.840600 0.088420
H319 H -0.105200 0.803600 0.053500
C320 C -0.162630 0.730800 0.120330
H321 H -0.169800 0.619300 0.107100
C322 C -0.190080 0.783300 0.171050
H323 H -0.215300 0.707200 0.193300
C324 C -0.181180 0.946300 0.189970
H325 H -0.201300 0.982600 0.224600
C326 C -0.143110 1.056900 0.158730
H327 H -0.136500 1.168400 0.172200
C328 C -0.117890 1.292800 0.029160
C329 C -0.090340 1.403900 -0.010620
H330 H -0.044600 1.401800 -0.017300
C331 C -0.129020 1.517000 -0.040430
H332 H -0.109800 1.593700 -0.066800
C333 C -0.195570 1.517500 -0.031570
H334 H -0.222400 1.594200 -0.052100
C335 C -0.223580 1.406700 0.007130
H336 H -0.269600 1.406800 0.012600
C337 C -0.185060 1.296200 0.037880
H338 H -0.204500 1.222400 0.065000
P339 P 0.063930 0.852630 -0.065950
O340 O -0.121650 0.952880 -0.056510
O341 O -0.060280 1.133850 -0.098750
N342 N -0.070450 1.031580 -0.059400
C343 C 0.021580 0.728200 -0.120350
C344 C -0.015030 0.807800 -0.162650
H345 H -0.017900 0.927000 -0.163000
C346 C -0.047190 0.716000 -0.204170
H347 H -0.072600 0.771900 -0.232500
C348 C -0.042560 0.542200 -0.204670
H349 H -0.064500 0.478900 -0.233400
C350 C -0.005970 0.461500 -0.163350
H351 H -0.002600 0.342400 -0.163700
C352 C 0.026000 0.553400 -0.121210
H353 H 0.051000 0.496900 -0.092800
C354 C 0.114300 0.995900 -0.107180
C355 C 0.124470 1.159400 -0.088420
H356 H 0.105200 1.196400 -0.053500
C357 C 0.162630 1.269200 -0.120330
H358 H 0.169800 1.380700 -0.107100
C359 C 0.190080 1.216700 -0.171050
H360 H 0.215300 1.292800 -0.193300
C361 C 0.181180 1.053700 -0.189970
H362 H 0.201300 1.017400 -0.224600
C363 C 0.143110 0.943100 -0.158730
H364 H 0.136500 0.831600 -0.172200
C365 C 0.117890 0.707200 -0.029160
C366 C 0.090340 0.596100 0.010620
H367 H 0.044600 0.598200 0.017300
C368 C 0.129020 0.483000 0.040430
H369 H 0.109800 0.406300 0.066800
C370 C 0.195570 0.482500 0.031570
H371 H 0.222400 0.405800 0.052100
C372 C 0.223580 0.593300 -0.007130
H373 H 0.269600 0.593200 -0.012600
C374 C 0.185060 0.703800 -0.037880
H375 H 0.204500 0.777600 -0.065000
Pt376 Pt 0.000000 1.000000 1.000000
P377 P -0.063930 1.147370 1.065950
O378 O 0.121650 1.047120 1.056510
O379 O 0.060280 0.866150 1.098750
N380 N 0.070450 0.968420 1.059400
C381 C -0.021580 1.271800 1.120350
C382 C 0.015030 1.192200 1.162650
H383 H 0.017900 1.073000 1.163000
C384 C 0.047190 1.284000 1.204170
H385 H 0.072600 1.228100 1.232500
C386 C 0.042560 1.457800 1.204670
H387 H 0.064500 1.521100 1.233400
C388 C 0.005970 1.538500 1.163350
H389 H 0.002600 1.657600 1.163700
C390 C -0.026000 1.446600 1.121210
H391 H -0.051000 1.503100 1.092800
C392 C -0.114300 1.004100 1.107180
C393 C -0.124470 0.840600 1.088420
H394 H -0.105200 0.803600 1.053500
C395 C -0.162630 0.730800 1.120330
H396 H -0.169800 0.619300 1.107100
C397 C -0.190080 0.783300 1.171050
H398 H -0.215300 0.707200 1.193300
C399 C -0.181180 0.946300 1.189970
H400 H -0.201300 0.982600 1.224600
C401 C -0.143110 1.056900 1.158730
H402 H -0.136500 1.168400 1.172200
C403 C -0.117890 1.292800 1.029160
C404 C -0.090340 1.403900 0.989380
H405 H -0.044600 1.401800 0.982700
C406 C -0.129020 1.517000 0.959570
H407 H -0.109800 1.593700 0.933200
C408 C -0.195570 1.517500 0.968430
H409 H -0.222400 1.594200 0.947900
C410 C -0.223580 1.406700 1.007130
H411 H -0.269600 1.406800 1.012600
C412 C -0.185060 1.296200 1.037880
H413 H -0.204500 1.222400 1.065000
P414 P 0.063930 0.852630 0.934050
O415 O -0.121650 0.952880 0.943490
O416 O -0.060280 1.133850 0.901250
N417 N -0.070450 1.031580 0.940600
C418 C 0.021580 0.728200 0.879650
C419 C -0.015030 0.807800 0.837350
H420 H -0.017900 0.927000 0.837000
C421 C -0.047190 0.716000 0.795830
H422 H -0.072600 0.771900 0.767500
C423 C -0.042560 0.542200 0.795330
H424 H -0.064500 0.478900 0.766600
C425 C -0.005970 0.461500 0.836650
H426 H -0.002600 0.342400 0.836300
C427 C 0.026000 0.553400 0.878790
H428 H 0.051000 0.496900 0.907200
C429 C 0.114300 0.995900 0.892820
C430 C 0.124470 1.159400 0.911580
H431 H 0.105200 1.196400 0.946500
C432 C 0.162630 1.269200 0.879670
H433 H 0.169800 1.380700 0.892900
C434 C 0.190080 1.216700 0.828950
H435 H 0.215300 1.292800 0.806700
C436 C 0.181180 1.053700 0.810030
H437 H 0.201300 1.017400 0.775400
C438 C 0.143110 0.943100 0.841270
H439 H 0.136500 0.831600 0.827800
C440 C 0.117890 0.707200 0.970840
C441 C 0.090340 0.596100 1.010620
H442 H 0.044600 0.598200 1.017300
C443 C 0.129020 0.483000 1.040430
H444 H 0.109800 0.406300 1.066800
C445 C 0.195570 0.482500 1.031570
H446 H 0.222400 0.405800 1.052100
C447 C 0.223580 0.593300 0.992870
H448 H 0.269600 0.593200 0.987400
C449 C 0.185060 0.703800 0.962120
H450 H 0.204500 0.777600 0.935000
Pt451 Pt 1.000000 0.000000 0.000000
P452 P 0.936070 0.147370 0.065950
O453 O 1.121650 0.047120 0.056510
O454 O 1.060280 -0.133850 0.098750
N455 N 1.070450 -0.031580 0.059400
C456 C 0.978420 0.271800 0.120350
C457 C 1.015030 0.192200 0.162650
H458 H 1.017900 0.073000 0.163000
C459 C 1.047190 0.284000 0.204170
H460 H 1.072600 0.228100 0.232500
C461 C 1.042560 0.457800 0.204670
H462 H 1.064500 0.521100 0.233400
C463 C 1.005970 0.538500 0.163350
H464 H 1.002600 0.657600 0.163700
C465 C 0.974000 0.446600 0.121210
H466 H 0.949000 0.503100 0.092800
C467 C 0.885700 0.004100 0.107180
C468 C 0.875530 -0.159400 0.088420
H469 H 0.894800 -0.196400 0.053500
C470 C 0.837370 -0.269200 0.120330
H471 H 0.830200 -0.380700 0.107100
C472 C 0.809920 -0.216700 0.171050
H473 H 0.784700 -0.292800 0.193300
C474 C 0.818820 -0.053700 0.189970
H475 H 0.798700 -0.017400 0.224600
C476 C 0.856890 0.056900 0.158730
H477 H 0.863500 0.168400 0.172200
C478 C 0.882110 0.292800 0.029160
C479 C 0.909660 0.403900 -0.010620
H480 H 0.955400 0.401800 -0.017300
C481 C 0.870980 0.517000 -0.040430
H482 H 0.890200 0.593700 -0.066800
C483 C 0.804430 0.517500 -0.031570
H484 H 0.777600 0.594200 -0.052100
C485 C 0.776420 0.406700 0.007130
H486 H 0.730400 0.406800 0.012600
C487 C 0.814940 0.296200 0.037880
H488 H 0.795500 0.222400 0.065000
P489 P 1.063930 -0.147370 -0.065950
O490 O 0.878350 -0.047120 -0.056510
O491 O 0.939720 0.133850 -0.098750
N492 N 0.929550 0.031580 -0.059400
C493 C 1.021580 -0.271800 -0.120350
C494 C 0.984970 -0.192200 -0.162650
H495 H 0.982100 -0.073000 -0.163000
C496 C 0.952810 -0.284000 -0.204170
H497 H 0.927400 -0.228100 -0.232500
C498 C 0.957440 -0.457800 -0.204670
H499 H 0.935500 -0.521100 -0.233400
C500 C 0.994030 -0.538500 -0.163350
H501 H 0.997400 -0.657600 -0.163700
C502 C 1.026000 -0.446600 -0.121210
H503 H 1.051000 -0.503100 -0.092800
C504 C 1.114300 -0.004100 -0.107180
C505 C 1.124470 0.159400 -0.088420
H506 H 1.105200 0.196400 -0.053500
C507 C 1.162630 0.269200 -0.120330
H508 H 1.169800 0.380700 -0.107100
C509 C 1.190080 0.216700 -0.171050
H510 H 1.215300 0.292800 -0.193300
C511 C 1.181180 0.053700 -0.189970
H512 H 1.201300 0.017400 -0.224600
C513 C 1.143110 -0.056900 -0.158730
H514 H 1.136500 -0.168400 -0.172200
C515 C 1.117890 -0.292800 -0.029160
C516 C 1.090340 -0.403900 0.010620
H517 H 1.044600 -0.401800 0.017300
C518 C 1.129020 -0.517000 0.040430
H519 H 1.109800 -0.593700 0.066800
C520 C 1.195570 -0.517500 0.031570
H521 H 1.222400 -0.594200 0.052100
C522 C 1.223580 -0.406700 -0.007130
H523 H 1.269600 -0.406800 -0.012600
C524 C 1.185060 -0.296200 -0.037880
H525 H 1.204500 -0.222400 -0.065000
Pt526 Pt 1.000000 0.000000 1.000000
P527 P 0.936070 0.147370 1.065950
O528 O 1.121650 0.047120 1.056510
O529 O 1.060280 -0.133850 1.098750
N530 N 1.070450 -0.031580 1.059400
C531 C 0.978420 0.271800 1.120350
C532 C 1.015030 0.192200 1.162650
H533 H 1.017900 0.073000 1.163000
C534 C 1.047190 0.284000 1.204170
H535 H 1.072600 0.228100 1.232500
C536 C 1.042560 0.457800 1.204670
H537 H 1.064500 0.521100 1.233400
C538 C 1.005970 0.538500 1.163350
H539 H 1.002600 0.657600 1.163700
C540 C 0.974000 0.446600 1.121210
H541 H 0.949000 0.503100 1.092800
C542 C 0.885700 0.004100 1.107180
C543 C 0.875530 -0.159400 1.088420
H544 H 0.894800 -0.196400 1.053500
C545 C 0.837370 -0.269200 1.120330
H546 H 0.830200 -0.380700 1.107100
C547 C 0.809920 -0.216700 1.171050
H548 H 0.784700 -0.292800 1.193300
C549 C 0.818820 -0.053700 1.189970
H550 H 0.798700 -0.017400 1.224600
C551 C 0.856890 0.056900 1.158730
H552 H 0.863500 0.168400 1.172200
C553 C 0.882110 0.292800 1.029160
C554 C 0.909660 0.403900 0.989380
H555 H 0.955400 0.401800 0.982700
C556 C 0.870980 0.517000 0.959570
H557 H 0.890200 0.593700 0.933200
C558 C 0.804430 0.517500 0.968430
H559 H 0.777600 0.594200 0.947900
C560 C 0.776420 0.406700 1.007130
H561 H 0.730400 0.406800 1.012600
C562 C 0.814940 0.296200 1.037880
H563 H 0.795500 0.222400 1.065000
P564 P 1.063930 -0.147370 0.934050
O565 O 0.878350 -0.047120 0.943490
O566 O 0.939720 0.133850 0.901250
N567 N 0.929550 0.031580 0.940600
C568 C 1.021580 -0.271800 0.879650
C569 C 0.984970 -0.192200 0.837350
H570 H 0.982100 -0.073000 0.837000
C571 C 0.952810 -0.284000 0.795830
H572 H 0.927400 -0.228100 0.767500
C573 C 0.957440 -0.457800 0.795330
H574 H 0.935500 -0.521100 0.766600
C575 C 0.994030 -0.538500 0.836650
H576 H 0.997400 -0.657600 0.836300
C577 C 1.026000 -0.446600 0.878790
H578 H 1.051000 -0.503100 0.907200
C579 C 1.114300 -0.004100 0.892820
C580 C 1.124470 0.159400 0.911580
H581 H 1.105200 0.196400 0.946500
C582 C 1.162630 0.269200 0.879670
H583 H 1.169800 0.380700 0.892900
C584 C 1.190080 0.216700 0.828950
H585 H 1.215300 0.292800 0.806700
C586 C 1.181180 0.053700 0.810030
H587 H 1.201300 0.017400 0.775400
C588 C 1.143110 -0.056900 0.841270
H589 H 1.136500 -0.168400 0.827800
C590 C 1.117890 -0.292800 0.970840
C591 C 1.090340 -0.403900 1.010620
H592 H 1.044600 -0.401800 1.017300
C593 C 1.129020 -0.517000 1.040430
H594 H 1.109800 -0.593700 1.066800
C595 C 1.195570 -0.517500 1.031570
H596 H 1.222400 -0.594200 1.052100
C597 C 1.223580 -0.406700 0.992870
H598 H 1.269600 -0.406800 0.987400
C599 C 1.185060 -0.296200 0.962120
H600 H 1.204500 -0.222400 0.935000
Pt601 Pt 1.000000 1.000000 0.000000
P602 P 0.936070 1.147370 0.065950
O603 O 1.121650 1.047120 0.056510
O604 O 1.060280 0.866150 0.098750
N605 N 1.070450 0.968420 0.059400
C606 C 0.978420 1.271800 0.120350
C607 C 1.015030 1.192200 0.162650
H608 H 1.017900 1.073000 0.163000
C609 C 1.047190 1.284000 0.204170
H610 H 1.072600 1.228100 0.232500
C611 C 1.042560 1.457800 0.204670
H612 H 1.064500 1.521100 0.233400
C613 C 1.005970 1.538500 0.163350
H614 H 1.002600 1.657600 0.163700
C615 C 0.974000 1.446600 0.121210
H616 H 0.949000 1.503100 0.092800
C617 C 0.885700 1.004100 0.107180
C618 C 0.875530 0.840600 0.088420
H619 H 0.894800 0.803600 0.053500
C620 C 0.837370 0.730800 0.120330
H621 H 0.830200 0.619300 0.107100
C622 C 0.809920 0.783300 0.171050
H623 H 0.784700 0.707200 0.193300
C624 C 0.818820 0.946300 0.189970
H625 H 0.798700 0.982600 0.224600
C626 C 0.856890 1.056900 0.158730
H627 H 0.863500 1.168400 0.172200
C628 C 0.882110 1.292800 0.029160
C629 C 0.909660 1.403900 -0.010620
H630 H 0.955400 1.401800 -0.017300
C631 C 0.870980 1.517000 -0.040430
H632 H 0.890200 1.593700 -0.066800
C633 C 0.804430 1.517500 -0.031570
H634 H 0.777600 1.594200 -0.052100
C635 C 0.776420 1.406700 0.007130
H636 H 0.730400 1.406800 0.012600
C637 C 0.814940 1.296200 0.037880
H638 H 0.795500 1.222400 0.065000
P639 P 1.063930 0.852630 -0.065950
O640 O 0.878350 0.952880 -0.056510
O641 O 0.939720 1.133850 -0.098750
N642 N 0.929550 1.031580 -0.059400
C643 C 1.021580 0.728200 -0.120350
C644 C 0.984970 0.807800 -0.162650
H645 H 0.982100 0.927000 -0.163000
C646 C 0.952810 0.716000 -0.204170
H647 H 0.927400 0.771900 -0.232500
C648 C 0.957440 0.542200 -0.204670
H649 H 0.935500 0.478900 -0.233400
C650 C 0.994030 0.461500 -0.163350
H651 H 0.997400 0.342400 -0.163700
C652 C 1.026000 0.553400 -0.121210
H653 H 1.051000 0.496900 -0.092800
C654 C 1.114300 0.995900 -0.107180
C655 C 1.124470 1.159400 -0.088420
H656 H 1.105200 1.196400 -0.053500
C657 C 1.162630 1.269200 -0.120330
H658 H 1.169800 1.380700 -0.107100
C659 C 1.190080 1.216700 -0.171050
H660 H 1.215300 1.292800 -0.193300
C661 C 1.181180 1.053700 -0.189970
H662 H 1.201300 1.017400 -0.224600
C663 C 1.143110 0.943100 -0.158730
H664 H 1.136500 0.831600 -0.172200
C665 C 1.117890 0.707200 -0.029160
C666 C 1.090340 0.596100 0.010620
H667 H 1.044600 0.598200 0.017300
C668 C 1.129020 0.483000 0.040430
H669 H 1.109800 0.406300 0.066800
C670 C 1.195570 0.482500 0.031570
H671 H 1.222400 0.405800 0.052100
C672 C 1.223580 0.593300 -0.007130
H673 H 1.269600 0.593200 -0.012600
C674 C 1.185060 0.703800 -0.037880
H675 H 1.204500 0.777600 -0.065000
Pt676 Pt 1.000000 1.000000 1.000000
P677 P 0.936070 1.147370 1.065950
O678 O 1.121650 1.047120 1.056510
O679 O 1.060280 0.866150 1.098750
N680 N 1.070450 0.968420 1.059400
C681 C 0.978420 1.271800 1.120350
C682 C 1.015030 1.192200 1.162650
H683 H 1.017900 1.073000 1.163000
C684 C 1.047190 1.284000 1.204170
H685 H 1.072600 1.228100 1.232500
C686 C 1.042560 1.457800 1.204670
H687 H 1.064500 1.521100 1.233400
C688 C 1.005970 1.538500 1.163350
H689 H 1.002600 1.657600 1.163700
C690 C 0.974000 1.446600 1.121210
H691 H 0.949000 1.503100 1.092800
C692 C 0.885700 1.004100 1.107180
C693 C 0.875530 0.840600 1.088420
H694 H 0.894800 0.803600 1.053500
C695 C 0.837370 0.730800 1.120330
H696 H 0.830200 0.619300 1.107100
C697 C 0.809920 0.783300 1.171050
H698 H 0.784700 0.707200 1.193300
C699 C 0.818820 0.946300 1.189970
H700 H 0.798700 0.982600 1.224600
C701 C 0.856890 1.056900 1.158730
H702 H 0.863500 1.168400 1.172200
C703 C 0.882110 1.292800 1.029160
C704 C 0.909660 1.403900 0.989380
H705 H 0.955400 1.401800 0.982700
C706 C 0.870980 1.517000 0.959570
H707 H 0.890200 1.593700 0.933200
C708 C 0.804430 1.517500 0.968430
H709 H 0.777600 1.594200 0.947900
C710 C 0.776420 1.406700 1.007130
H711 H 0.730400 1.406800 1.012600
C712 C 0.814940 1.296200 1.037880
H713 H 0.795500 1.222400 1.065000
P714 P 1.063930 0.852630 0.934050
O715 O 0.878350 0.952880 0.943490
O716 O 0.939720 1.133850 0.901250
N717 N 0.929550 1.031580 0.940600
C718 C 1.021580 0.728200 0.879650
C719 C 0.984970 0.807800 0.837350
H720 H 0.982100 0.927000 0.837000
C721 C 0.952810 0.716000 0.795830
H722 H 0.927400 0.771900 0.767500
C723 C 0.957440 0.542200 0.795330
H724 H 0.935500 0.478900 0.766600
C725 C 0.994030 0.461500 0.836650
H726 H 0.997400 0.342400 0.836300
C727 C 1.026000 0.553400 0.878790
H728 H 1.051000 0.496900 0.907200
C729 C 1.114300 0.995900 0.892820
C730 C 1.124470 1.159400 0.911580
H731 H 1.105200 1.196400 0.946500
C732 C 1.162630 1.269200 0.879670
H733 H 1.169800 1.380700 0.892900
C734 C 1.190080 1.216700 0.828950
H735 H 1.215300 1.292800 0.806700
C736 C 1.181180 1.053700 0.810030
H737 H 1.201300 1.017400 0.775400
C738 C 1.143110 0.943100 0.841270
H739 H 1.136500 0.831600 0.827800
C740 C 1.117890 0.707200 0.970840
C741 C 1.090340 0.596100 1.010620
H742 H 1.044600 0.598200 1.017300
C743 C 1.129020 0.483000 1.040430
H744 H 1.109800 0.406300 1.066800
C745 C 1.195570 0.482500 1.031570
H746 H 1.222400 0.405800 1.052100
C747 C 1.223580 0.593300 0.992870
H748 H 1.269600 0.593200 0.987400
C749 C 1.185060 0.703800 0.962120
H750 H 1.204500 0.777600 0.935000
Pt751 Pt 0.000000 0.500000 0.500000
P752 P 0.063930 0.647370 0.434050
O753 O -0.121650 0.547120 0.443490
O754 O -0.060280 0.366150 0.401250
N755 N -0.070450 0.468420 0.440600
C756 C 0.021580 0.771800 0.379650
C757 C -0.015030 0.692200 0.337350
H758 H -0.017900 0.573000 0.337000
C759 C -0.047190 0.784000 0.295830
H760 H -0.072600 0.728100 0.267500
C761 C -0.042560 0.957800 0.295330
H762 H -0.064500 1.021100 0.266600
C763 C -0.005970 1.038500 0.336650
H764 H -0.002600 1.157600 0.336300
C765 C 0.026000 0.946600 0.378790
H766 H 0.051000 1.003100 0.407200
C767 C 0.114300 0.504100 0.392820
C768 C 0.124470 0.340600 0.411580
H769 H 0.105200 0.303600 0.446500
C770 C 0.162630 0.230800 0.379670
H771 H 0.169800 0.119300 0.392900
C772 C 0.190080 0.283300 0.328950
H773 H 0.215300 0.207200 0.306700
C774 C 0.181180 0.446300 0.310030
H775 H 0.201300 0.482600 0.275400
C776 C 0.143110 0.556900 0.341270
H777 H 0.136500 0.668400 0.327800
C778 C 0.117890 0.792800 0.470840
C779 C 0.090340 0.903900 0.510620
H780 H 0.044600 0.901800 0.517300
C781 C 0.129020 1.017000 0.540430
H782 H 0.109800 1.093700 0.566800
C783 C 0.195570 1.017500 0.531570
H784 H 0.222400 1.094200 0.552100
C785 C 0.223580 0.906700 0.492870
H786 H 0.269600 0.906800 0.487400
C787 C 0.185060 0.796200 0.462120
H788 H 0.204500 0.722400 0.435000
P789 P -0.063930 0.352630 0.565950
O790 O 0.121650 0.452880 0.556510
O791 O 0.060280 0.633850 0.598750
N792 N 0.070450 0.531580 0.559400
C793 C -0.021580 0.228200 0.620350
C794 C 0.015030 0.307800 0.662650
H795 H 0.017900 0.427000 0.663000
C796 C 0.047190 0.216000 0.704170
H797 H 0.072600 0.271900 0.732500
C798 C 0.042560 0.042200 0.704670
H799 H 0.064500 -0.021100 0.733400
C800 C 0.005970 -0.038500 0.663350
H801 H 0.002600 -0.157600 0.663700
C802 C -0.026000 0.053400 0.621210
H803 H -0.051000 -0.003100 0.592800
C804 C -0.114300 0.495900 0.607180
C805 C -0.124470 0.659400 0.588420
H806 H -0.105200 0.696400 0.553500
C807 C -0.162630 0.769200 0.620330
H808 H -0.169800 0.880700 0.607100
C809 C -0.190080 0.716700 0.671050
H810 H -0.215300 0.792800 0.693300
C811 C -0.181180 0.553700 0.689970
H812 H -0.201300 0.517400 0.724600
C813 C -0.143110 0.443100 0.658730
H814 H -0.136500 0.331600 0.672200
C815 C -0.117890 0.207200 0.529160
C816 C -0.090340 0.096100 0.489380
H817 H -0.044600 0.098200 0.482700
C818 C -0.129020 -0.017000 0.459570
H819 H -0.109800 -0.093700 0.433200
C820 C -0.195570 -0.017500 0.468430
H821 H -0.222400 -0.094200 0.447900
C822 C -0.223580 0.093300 0.507130
H823 H -0.269600 0.093200 0.512600
C824 C -0.185060 0.203800 0.537880
H825 H -0.204500 0.277600 0.565000
Pt826 Pt 1.000000 0.500000 0.500000
P827 P 1.063930 0.647370 0.434050
O828 O 0.878350 0.547120 0.443490
O829 O 0.939720 0.366150 0.401250
N830 N 0.929550 0.468420 0.440600
C831 C 1.021580 0.771800 0.379650
C832 C 0.984970 0.692200 0.337350
H833 H 0.982100 0.573000 0.337000
C834 C 0.952810 0.784000 0.295830
H835 H 0.927400 0.728100 0.267500
C836 C 0.957440 0.957800 0.295330
H837 H 0.935500 1.021100 0.266600
C838 C 0.994030 1.038500 0.336650
H839 H 0.997400 1.157600 0.336300
C840 C 1.026000 0.946600 0.378790
H841 H 1.051000 1.003100 0.407200
C842 C 1.114300 0.504100 0.392820
C843 C 1.124470 0.340600 0.411580
H844 H 1.105200 0.303600 0.446500
C845 C 1.162630 0.230800 0.379670
H846 H 1.169800 0.119300 0.392900
C847 C 1.190080 0.283300 0.328950
H848 H 1.215300 0.207200 0.306700
C849 C 1.181180 0.446300 0.310030
H850 H 1.201300 0.482600 0.275400
C851 C 1.143110 0.556900 0.341270
H852 H 1.136500 0.668400 0.327800
C853 C 1.117890 0.792800 0.470840
C854 C 1.090340 0.903900 0.510620
H855 H 1.044600 0.901800 0.517300
C856 C 1.129020 1.017000 0.540430
H857 H 1.109800 1.093700 0.566800
C858 C 1.195570 1.017500 0.531570
H859 H 1.222400 1.094200 0.552100
C860 C 1.223580 0.906700 0.492870
H861 H 1.269600 0.906800 0.487400
C862 C 1.185060 0.796200 0.462120
H863 H 1.204500 0.722400 0.435000
P864 P 0.936070 0.352630 0.565950
O865 O 1.121650 0.452880 0.556510
O866 O 1.060280 0.633850 0.598750
N867 N 1.070450 0.531580 0.559400
C868 C 0.978420 0.228200 0.620350
C869 C 1.015030 0.307800 0.662650
H870 H 1.017900 0.427000 0.663000
C871 C 1.047190 0.216000 0.704170
H872 H 1.072600 0.271900 0.732500
C873 C 1.042560 0.042200 0.704670
H874 H 1.064500 -0.021100 0.733400
C875 C 1.005970 -0.038500 0.663350
H876 H 1.002600 -0.157600 0.663700
C877 C 0.974000 0.053400 0.621210
H878 H 0.949000 -0.003100 0.592800
C879 C 0.885700 0.495900 0.607180
C880 C 0.875530 0.659400 0.588420
H881 H 0.894800 0.696400 0.553500
C882 C 0.837370 0.769200 0.620330
H883 H 0.830200 0.880700 0.607100
C884 C 0.809920 0.716700 0.671050
H885 H 0.784700 0.792800 0.693300
C886 C 0.818820 0.553700 0.689970
H887 H 0.798700 0.517400 0.724600
C888 C 0.856890 0.443100 0.658730
H889 H 0.863500 0.331600 0.672200
C890 C 0.882110 0.207200 0.529160
C891 C 0.909660 0.096100 0.489380
H892 H 0.955400 0.098200 0.482700
C893 C 0.870980 -0.017000 0.459570
H894 H 0.890200 -0.093700 0.433200
C895 C 0.804430 -0.017500 0.468430
H896 H 0.777600 -0.094200 0.447900
C897 C 0.776420 0.093300 0.507130
H898 H 0.730400 0.093200 0.512600
C899 C 0.814940 0.203800 0.537880
H900 H 0.795500 0.277600 0.565000
Pt901 Pt 0.500000 0.500000 0.000000
P902 P 0.436070 0.352630 -0.065950
O903 O 0.621650 0.452880 -0.056510
O904 O 0.560280 0.633850 -0.098750
N905 N 0.570450 0.531580 -0.059400
C906 C 0.478420 0.228200 -0.120350
C907 C 0.515030 0.307800 -0.162650
H908 H 0.517900 0.427000 -0.163000
C909 C 0.547190 0.216000 -0.204170
H910 H 0.572600 0.271900 -0.232500
C911 C 0.542560 0.042200 -0.204670
H912 H 0.564500 -0.021100 -0.233400
C913 C 0.505970 -0.038500 -0.163350
H914 H 0.502600 -0.157600 -0.163700
C915 C 0.474000 0.053400 -0.121210
H916 H 0.449000 -0.003100 -0.092800
C917 C 0.385700 0.495900 -0.107180
C918 C 0.375530 0.659400 -0.088420
H919 H 0.394800 0.696400 -0.053500
C920 C 0.337370 0.769200 -0.120330
H921 H 0.330200 0.880700 -0.107100
C922 C 0.309920 0.716700 -0.171050
H923 H 0.284700 0.792800 -0.193300
C924 C 0.318820 0.553700 -0.189970
H925 H 0.298700 0.517400 -0.224600
C926 C 0.356890 0.443100 -0.158730
H927 H 0.363500 0.331600 -0.172200
C928 C 0.382110 0.207200 -0.029160
C929 C 0.409660 0.096100 0.010620
H930 H 0.455400 0.098200 0.017300
C931 C 0.370980 -0.017000 0.040430
H932 H 0.390200 -0.093700 0.066800
C933 C 0.304430 -0.017500 0.031570
H934 H 0.277600 -0.094200 0.052100
C935 C 0.276420 0.093300 -0.007130
H936 H 0.230400 0.093200 -0.012600
C937 C 0.314940 0.203800 -0.037880
H938 H 0.295500 0.277600 -0.065000
P939 P 0.563930 0.647370 0.065950
O940 O 0.378350 0.547120 0.056510
O941 O 0.439720 0.366150 0.098750
N942 N 0.429550 0.468420 0.059400
C943 C 0.521580 0.771800 0.120350
C944 C 0.484970 0.692200 0.162650
H945 H 0.482100 0.573000 0.163000
C946 C 0.452810 0.784000 0.204170
H947 H 0.427400 0.728100 0.232500
C948 C 0.457440 0.957800 0.204670
H949 H 0.435500 1.021100 0.233400
C950 C 0.494030 1.038500 0.163350
H951 H 0.497400 1.157600 0.163700
C952 C 0.526000 0.946600 0.121210
H953 H 0.551000 1.003100 0.092800
C954 C 0.614300 0.504100 0.107180
C955 C 0.624470 0.340600 0.088420
H956 H 0.605200 0.303600 0.053500
C957 C 0.662630 0.230800 0.120330
H958 H 0.669800 0.119300 0.107100
C959 C 0.690080 0.283300 0.171050
H960 H 0.715300 0.207200 0.193300
C961 C 0.681180 0.446300 0.189970
H962 H 0.701300 0.482600 0.224600
C963 C 0.643110 0.556900 0.158730
H964 H 0.636500 0.668400 0.172200
C965 C 0.617890 0.792800 0.029160
C966 C 0.590340 0.903900 -0.010620
H967 H 0.544600 0.901800 -0.017300
C968 C 0.629020 1.017000 -0.040430
H969 H 0.609800 1.093700 -0.066800
C970 C 0.695570 1.017500 -0.031570
H971 H 0.722400 1.094200 -0.052100
C972 C 0.723580 0.906700 0.007130
H973 H 0.769600 0.906800 0.012600
C974 C 0.685060 0.796200 0.037880
H975 H 0.704500 0.722400 0.065000
Pt976 Pt 0.500000 0.500000 1.000000
P977 P 0.436070 0.352630 0.934050
O978 O 0.621650 0.452880 0.943490
O979 O 0.560280 0.633850 0.901250
N980 N 0.570450 0.531580 0.940600
C981 C 0.478420 0.228200 0.879650
C982 C 0.515030 0.307800 0.837350
H983 H 0.517900 0.427000 0.837000
C984 C 0.547190 0.216000 0.795830
H985 H 0.572600 0.271900 0.767500
C986 C 0.542560 0.042200 0.795330
H987 H 0.564500 -0.021100 0.766600
C988 C 0.505970 -0.038500 0.836650
H989 H 0.502600 -0.157600 0.836300
C990 C 0.474000 0.053400 0.878790
H991 H 0.449000 -0.003100 0.907200
C992 C 0.385700 0.495900 0.892820
C993 C 0.375530 0.659400 0.911580
H994 H 0.394800 0.696400 0.946500
C995 C 0.337370 0.769200 0.879670
H996 H 0.330200 0.880700 0.892900
C997 C 0.309920 0.716700 0.828950
H998 H 0.284700 0.792800 0.806700
C999 C 0.318820 0.553700 0.810030
H1000 H 0.298700 0.517400 0.775400
C1001 C 0.356890 0.443100 0.841270
H1002 H 0.363500 0.331600 0.827800
C1003 C 0.382110 0.207200 0.970840
C1004 C 0.409660 0.096100 1.010620
H1005 H 0.455400 0.098200 1.017300
C1006 C 0.370980 -0.017000 1.040430
H1007 H 0.390200 -0.093700 1.066800
C1008 C 0.304430 -0.017500 1.031570
H1009 H 0.277600 -0.094200 1.052100
C1010 C 0.276420 0.093300 0.992870
H1011 H 0.230400 0.093200 0.987400
C1012 C 0.314940 0.203800 0.962120
H1013 H 0.295500 0.277600 0.935000
P1014 P 0.563930 0.647370 1.065950
O1015 O 0.378350 0.547120 1.056510
O1016 O 0.439720 0.366150 1.098750
N1017 N 0.429550 0.468420 1.059400
C1018 C 0.521580 0.771800 1.120350
C1019 C 0.484970 0.692200 1.162650
H1020 H 0.482100 0.573000 1.163000
C1021 C 0.452810 0.784000 1.204170
H1022 H 0.427400 0.728100 1.232500
C1023 C 0.457440 0.957800 1.204670
H1024 H 0.435500 1.021100 1.233400
C1025 C 0.494030 1.038500 1.163350
H1026 H 0.497400 1.157600 1.163700
C1027 C 0.526000 0.946600 1.121210
H1028 H 0.551000 1.003100 1.092800
C1029 C 0.614300 0.504100 1.107180
C1030 C 0.624470 0.340600 1.088420
H1031 H 0.605200 0.303600 1.053500
C1032 C 0.662630 0.230800 1.120330
H1033 H 0.669800 0.119300 1.107100
C1034 C 0.690080 0.283300 1.171050
H1035 H 0.715300 0.207200 1.193300
C1036 C 0.681180 0.446300 1.189970
H1037 H 0.701300 0.482600 1.224600
C1038 C 0.643110 0.556900 1.158730
H1039 H 0.636500 0.668400 1.172200
C1040 C 0.617890 0.792800 1.029160
C1041 C 0.590340 0.903900 0.989380
H1042 H 0.544600 0.901800 0.982700
C1043 C 0.629020 1.017000 0.959570
H1044 H 0.609800 1.093700 0.933200
C1045 C 0.695570 1.017500 0.968430
H1046 H 0.722400 1.094200 0.947900
C1047 C 0.723580 0.906700 1.007130
H1048 H 0.769600 0.906800 1.012600
C1049 C 0.685060 0.796200 1.037880
H1050 H 0.704500 0.722400 1.065000
Cl1051 Cl 0.231520 0.247080 0.171500
Cl1052 Cl 0.351510 0.365650 0.225910
C1053 C 0.314480 0.297400 0.161580
H1054 H 0.318200 0.387100 0.132300
H1055 H 0.337900 0.197200 0.147000
Cl1056 Cl 0.268480 0.752920 0.671500
Cl1057 Cl 0.148490 0.634350 0.725910
C1058 C 0.185520 0.702600 0.661580
H1059 H 0.181800 0.612900 0.632300
H1060 H 0.162100 0.802800 0.647000
Cl1061 Cl 0.731520 0.252920 0.828500
Cl1062 Cl 0.851510 0.134350 0.774090
C1063 C 0.814480 0.202600 0.838420
H1064 H 0.818200 0.112900 0.867700
H1065 H 0.837900 0.302800 0.853000
Cl1066 Cl 0.768480 0.747080 0.328500
Cl1067 Cl 0.648490 0.865650 0.274090
C1068 C 0.685520 0.797400 0.338420
H1069 H 0.681800 0.887100 0.367700
H1070 H 0.662100 0.697200 0.353000
Cl1071 Cl 0.768480 0.752920 0.828500
Cl1072 Cl 0.648490 0.634350 0.774090
C1073 C 0.685520 0.702600 0.838420
H1074 H 0.681800 0.612900 0.867700
H1075 H 0.662100 0.802800 0.853000
Cl1076 Cl 0.731520 0.247080 0.328500
Cl1077 Cl 0.851510 0.365650 0.274090
C1078 C 0.814480 0.297400 0.338420
H1079 H 0.818200 0.387100 0.367700
H1080 H 0.837900 0.197200 0.353000
Cl1081 Cl 0.268480 0.747080 0.171500
Cl1082 Cl 0.148490 0.865650 0.225910
C1083 C 0.185520 0.797400 0.161580
H1084 H 0.181800 0.887100 0.132300
H1085 H 0.162100 0.697200 0.147000
Cl1086 Cl 0.231520 0.252920 0.671500
Cl1087 Cl 0.351510 0.134350 0.725910
C1088 C 0.314480 0.202600 0.661580
H1089 H 0.318200 0.112900 0.632300
H1090 H 0.337900 0.302800 0.647000

#END
