./ACRDIN06_from_xyz.cif_generated_by_CrystalShift
_symmetry_cell_setting triclinic
_symmetry_space_group_name_H-M 'P 1'
loop_
_symmetry_equiv_pos_site_id
_symmetry_equiv_pos_as_xyz
1 x,y,z
_cell_length_a 6.056900
_cell_length_b 22.813000
_cell_length_c 13.204000
_cell_angle_alpha 90.000000
_cell_angle_beta 95.938000
_cell_angle_gamma 90.000000
_cell_volume 1814.687333
loop_
_atom_site_label
_atom_site_type_symbol
_atom_site_fract_x
_atom_site_fract_y
_atom_site_fract_z
N1 N 0.169600 0.306810 0.160810
C2 C 0.695600 0.391680 0.169000
H3 H 0.836100 0.395300 0.207800
C4 C 0.647700 0.425520 0.085130
H5 H 0.754500 0.452700 0.065800
C6 C 0.439800 0.420590 0.026240
H7 H 0.408100 0.444600 -0.032200
C8 C 0.285000 0.381950 0.052140
H9 H 0.145900 0.379500 0.011900
C10 C 0.042200 0.234600 0.271250
H11 H -0.090500 0.230400 0.226800
C12 C 0.070300 0.202980 0.358890
H13 H -0.044400 0.177400 0.375400
C14 C 0.267600 0.207530 0.426060
H15 H 0.283000 0.185500 0.487400
C16 C 0.433900 0.242980 0.403370
H17 H 0.566700 0.244900 0.448300
C18 C 0.574600 0.316220 0.286830
H19 H 0.711500 0.319200 0.328700
C20 C 0.537100 0.350680 0.199630
C21 C 0.328200 0.344940 0.138930
C22 C 0.210200 0.273870 0.245580
C23 C 0.413000 0.277710 0.312560
N24 N 0.330400 0.806810 0.339190
C25 C -0.195600 0.891680 0.331000
H26 H -0.336100 0.895300 0.292200
C27 C -0.147700 0.925520 0.414870
H28 H -0.254500 0.952700 0.434200
C29 C 0.060200 0.920590 0.473760
H30 H 0.091900 0.944600 0.532200
C31 C 0.215000 0.881950 0.447860
H32 H 0.354100 0.879500 0.488100
C33 C 0.457800 0.734600 0.228750
H34 H 0.590500 0.730400 0.273200
C35 C 0.429700 0.702980 0.141110
H36 H 0.544400 0.677400 0.124600
C37 C 0.232400 0.707530 0.073940
H38 H 0.217000 0.685500 0.012600
C39 C 0.066100 0.742980 0.096630
H40 H -0.066700 0.744900 0.051700
C41 C -0.074600 0.816220 0.213170
H42 H -0.211500 0.819200 0.171300
C43 C -0.037100 0.850680 0.300370
C44 C 0.171800 0.844940 0.361070
C45 C 0.289800 0.773870 0.254420
C46 C 0.087000 0.777710 0.187440
N47 N 0.830400 0.693190 0.839190
C48 C 0.304400 0.608320 0.831000
H49 H 0.163900 0.604700 0.792200
C50 C 0.352300 0.574480 0.914870
H51 H 0.245500 0.547300 0.934200
C52 C 0.560200 0.579410 0.973760
H53 H 0.591900 0.555400 1.032200
C54 C 0.715000 0.618050 0.947860
H55 H 0.854100 0.620500 0.988100
C56 C 0.957800 0.765400 0.728750
H57 H 1.090500 0.769600 0.773200
C58 C 0.929700 0.797020 0.641110
H59 H 1.044400 0.822600 0.624600
C60 C 0.732400 0.792470 0.573940
H61 H 0.717000 0.814500 0.512600
C62 C 0.566100 0.757020 0.596630
H63 H 0.433300 0.755100 0.551700
C64 C 0.425400 0.683780 0.713170
H65 H 0.288500 0.680800 0.671300
C66 C 0.462900 0.649320 0.800370
C67 C 0.671800 0.655060 0.861070
C68 C 0.789800 0.726130 0.754420
C69 C 0.587000 0.722290 0.687440
N70 N 0.669600 0.193190 0.660810
C71 C 1.195600 0.108320 0.669000
H72 H 1.336100 0.104700 0.707800
C73 C 1.147700 0.074480 0.585130
H74 H 1.254500 0.047300 0.565800
C75 C 0.939800 0.079410 0.526240
H76 H 0.908100 0.055400 0.467800
C77 C 0.785000 0.118050 0.552140
H78 H 0.645900 0.120500 0.511900
C79 C 0.542200 0.265400 0.771250
H80 H 0.409500 0.269600 0.726800
C81 C 0.570300 0.297020 0.858890
H82 H 0.455600 0.322600 0.875400
C83 C 0.767600 0.292470 0.926060
H84 H 0.783000 0.314500 0.987400
C85 C 0.933900 0.257020 0.903370
H86 H 1.066700 0.255100 0.948300
C87 C 1.074600 0.183780 0.786830
H88 H 1.211500 0.180800 0.828700
C89 C 1.037100 0.149320 0.699630
C90 C 0.828200 0.155060 0.638930
C91 C 0.710200 0.226130 0.745580
C92 C 0.913000 0.222290 0.812560
N93 N 0.252200 0.010390 0.894740
C94 C 0.566900 0.144020 0.984210
H95 H 0.700300 0.164500 0.975600
C96 C 0.426700 0.165640 1.048370
H97 H 0.460900 0.201400 1.083300
C98 C 0.228100 0.134980 1.063780
H99 H 0.131800 0.150400 1.109600
C100 C 0.174300 0.083980 1.014010
H101 H 0.041800 0.063900 1.025800
C102 C 0.323700 -0.064330 0.776100
H103 H 0.188100 -0.082900 0.787400
C104 C 0.454600 -0.088290 0.710300
H105 H 0.410700 -0.124000 0.677000
C106 C 0.656200 -0.061230 0.690000
H107 H 0.744700 -0.078500 0.642600
C108 C 0.722900 -0.010720 0.738200
H109 H 0.858000 0.007200 0.724100
C110 C 0.653100 0.066960 0.861840
H111 H 0.788800 0.085700 0.851300
C112 C 0.517500 0.091170 0.929480
C113 C 0.315200 0.060370 0.944300
C114 C 0.387000 -0.011430 0.828700
C115 C 0.593200 0.015800 0.809610
N116 N 0.247800 0.510390 0.605260
C117 C -0.066900 0.644020 0.515790
H118 H -0.200300 0.664500 0.524400
C119 C 0.073300 0.665640 0.451630
H120 H 0.039100 0.701400 0.416700
C121 C 0.271900 0.634980 0.436220
H122 H 0.368200 0.650400 0.390400
C123 C 0.325700 0.583980 0.485990
H124 H 0.458200 0.563900 0.474200
C125 C 0.176300 0.435670 0.723900
H126 H 0.311900 0.417100 0.712600
C127 C 0.045400 0.411710 0.789700
H128 H 0.089300 0.376000 0.823000
C129 C -0.156200 0.438770 0.810000
H130 H -0.244700 0.421500 0.857400
C131 C -0.222900 0.489280 0.761800
H132 H -0.358000 0.507200 0.775900
C133 C -0.153100 0.566960 0.638160
H134 H -0.288800 0.585700 0.648700
C135 C -0.017500 0.591170 0.570520
C136 C 0.184800 0.560370 0.555700
C137 C 0.113000 0.488570 0.671300
C138 C -0.093200 0.515800 0.690390
N139 N 0.747800 0.989610 0.105260
C140 C 0.433100 0.855980 0.015790
H141 H 0.299700 0.835500 0.024400
C142 C 0.573300 0.834360 -0.048370
H143 H 0.539100 0.798600 -0.083300
C144 C 0.771900 0.865020 -0.063780
H145 H 0.868200 0.849600 -0.109600
C146 C 0.825700 0.916020 -0.014010
H147 H 0.958200 0.936100 -0.025800
C148 C 0.676300 1.064330 0.223900
H149 H 0.811900 1.082900 0.212600
C150 C 0.545400 1.088290 0.289700
H151 H 0.589300 1.124000 0.323000
C152 C 0.343800 1.061230 0.310000
H153 H 0.255300 1.078500 0.357400
C154 C 0.277100 1.010720 0.261800
H155 H 0.142000 0.992800 0.275900
C156 C 0.346900 0.933040 0.138160
H157 H 0.211200 0.914300 0.148700
C158 C 0.482500 0.908830 0.070520
C159 C 0.684800 0.939630 0.055700
C160 C 0.613000 1.011430 0.171300
C161 C 0.406800 0.984200 0.190390
N162 N 0.752200 0.489610 0.394740
C163 C 1.066900 0.355980 0.484210
H164 H 1.200300 0.335500 0.475600
C165 C 0.926700 0.334360 0.548370
H166 H 0.960900 0.298600 0.583300
C167 C 0.728100 0.365020 0.563780
H168 H 0.631800 0.349600 0.609600
C169 C 0.674300 0.416020 0.514010
H170 H 0.541800 0.436100 0.525800
C171 C 0.823700 0.564330 0.276100
H172 H 0.688100 0.582900 0.287400
C173 C 0.954600 0.588290 0.210300
H174 H 0.910700 0.624000 0.177000
C175 C 1.156200 0.561230 0.190000
H176 H 1.244700 0.578500 0.142600
C177 C 1.222900 0.510720 0.238200
H178 H 1.358000 0.492800 0.224100
C179 C 1.153100 0.433040 0.361840
H180 H 1.288800 0.414300 0.351300
C181 C 1.017500 0.408830 0.429480
C182 C 0.815200 0.439630 0.444300
C183 C 0.887000 0.511430 0.328700
C184 C 1.093200 0.484200 0.309610

#END
