./AABHTZ_from_POSCAR.cif_generated_by_CrystalShift
_symmetry_cell_setting triclinic
_symmetry_space_group_name_H-M 'P 1'
loop_
_symmetry_equiv_pos_site_id
_symmetry_equiv_pos_as_xyz
1 x,y,z
_cell_length_a 11.372000
_cell_length_b 10.272000
_cell_length_c 7.359000
_cell_angle_alpha 108.750000
_cell_angle_beta 71.070000
_cell_angle_gamma 96.160000
_cell_volume 769.978363
loop_
_atom_site_label
_atom_site_type_symbol
_atom_site_fract_x
_atom_site_fract_y
_atom_site_fract_z
H1 H 0.413000 0.525000 0.757000
H2 H 0.313000 0.598000 0.725000
H3 H 0.006000 0.107000 0.667000
H4 H -0.105000 0.198000 0.811000
H5 H -0.081000 0.036000 0.783000
H6 H -0.046000 0.340000 1.057000
H7 H -0.057000 0.296000 1.469000
H8 H 0.326000 0.175000 1.032000
H9 H 0.784000 0.078000 0.470000
H10 H 0.752000 -0.157000 0.469000
H11 H 0.558000 -0.232000 0.653000
H12 H 0.587000 0.475000 0.243000
H13 H 0.671000 0.549000 0.374000
H14 H 0.687000 0.402000 0.275000
H15 H 0.994000 0.893000 0.333000
H16 H 1.105000 0.802000 0.189000
H17 H 1.081000 0.964000 0.217000
H18 H 1.046000 0.660000 -0.057000
H19 H 1.057000 0.704000 -0.469000
H20 H 0.674000 0.825000 -0.032000
H21 H 0.216000 0.922000 0.530000
H22 H 0.248000 1.157000 0.531000
H23 H 0.442000 1.232000 0.347000
H24 H 0.329000 0.451000 0.626000
C25 C 0.669300 0.490700 0.254800
C26 C 0.760600 0.514000 0.071800
C27 C 0.522500 1.038800 0.230700
C28 C 1.040500 0.875600 0.221500
C29 C 0.969500 0.839400 0.074400
C30 C 0.427300 1.133700 0.342400
C31 C 0.315500 1.091600 0.448300
C32 C 0.974600 0.674400 -0.406000
C33 C 0.297900 0.955500 0.444700
C34 C 0.393100 0.861300 0.329500
C35 C 0.814300 0.634700 -0.175200
C36 C 0.509600 0.899300 0.218100
C37 C 0.615600 0.806200 0.088600
C38 C 0.477500 -0.038800 0.769300
C39 C 0.572700 -0.133700 0.657600
C40 C 0.684500 -0.091600 0.551700
C41 C 0.702100 0.044500 0.555300
C42 C 0.606900 0.138700 0.670500
C43 C 0.490400 0.100700 0.781900
C44 C 0.384400 0.193800 0.911400
C45 C 0.330700 0.509300 0.745200
C46 C 0.239400 0.486000 0.928200
C47 C 0.185700 0.365300 1.175200
C48 C -0.040500 0.124400 0.778500
C49 C 0.030500 0.160600 0.925600
C50 C 0.025400 0.325600 1.406000
N51 N 0.064200 0.326800 1.210400
N52 N -0.002300 0.283700 1.074100
N53 N 0.114800 0.360400 1.484300
N54 N 0.219600 0.385900 1.334700
N55 N 1.002300 0.716300 -0.074100
N56 N 0.262900 0.380000 0.990100
N57 N 0.366800 0.297700 0.864900
N58 N 0.935800 0.673200 -0.210400
N59 N 0.737100 0.620000 0.009900
N60 N 0.633200 0.702300 0.135100
N61 N 0.885200 0.639600 -0.484300
N62 N 0.780400 0.614100 -0.334700
O63 O 0.889800 0.911700 0.079300
O64 O 0.145400 0.554200 1.029600
O65 O 0.110200 0.088300 0.920700
O66 O 0.854600 0.445800 -0.029600
Cl67 Cl 0.359300 0.691600 0.327000
Cl68 Cl 0.640700 0.308400 0.673000
Cl69 Cl 0.335500 -0.099800 0.893900
Cl70 Cl 0.664500 1.099800 0.106100

#END
