./ABABEM_from_POSCAR.cif_generated_by_CrystalShift
_symmetry_cell_setting triclinic
_symmetry_space_group_name_H-M 'P 1'
loop_
_symmetry_equiv_pos_site_id
_symmetry_equiv_pos_as_xyz
1 x,y,z
_cell_length_a 7.840000
_cell_length_b 10.464000
_cell_length_c 10.514000
_cell_angle_alpha 63.840000
_cell_angle_beta 79.620000
_cell_angle_gamma 89.420000
_cell_volume 759.170856
loop_
_atom_site_label
_atom_site_type_symbol
_atom_site_fract_x
_atom_site_fract_y
_atom_site_fract_z
H1 H 0.562800 -0.015300 0.843700
H2 H 0.437200 1.015300 0.156300
H3 H 0.334500 1.075600 0.258200
H4 H 0.801500 0.148100 0.583300
H5 H 0.198500 0.851900 0.416700
H6 H 0.829800 0.115800 0.738400
H7 H 0.389200 0.630000 0.059100
H8 H 0.280300 0.560400 -0.009200
H9 H 0.743000 0.348300 0.620300
H10 H 0.302700 0.440400 0.286000
H11 H 0.378900 0.377100 0.179100
H12 H 0.608300 0.256700 0.762900
H13 H 0.100200 0.320500 0.162300
H14 H 0.113700 0.250500 0.326100
H15 H 0.564800 0.318700 0.481700
H16 H -0.145600 0.366900 0.287800
H17 H -0.032600 0.429000 0.359900
H18 H 0.453400 0.374900 0.583700
H19 H 0.546600 0.625100 0.416300
H20 H 0.170200 0.884200 0.261600
H21 H 0.435200 0.681300 0.518300
H22 H 0.257000 0.651700 0.379700
H23 H 0.391700 0.743300 0.237100
H24 H 1.032600 0.571000 0.640100
H25 H 1.145600 0.633100 0.712200
H26 H 0.610800 0.370000 0.940900
H27 H 0.719700 0.439600 1.009200
H28 H 0.665500 -0.075600 0.741800
H29 H 0.697300 0.559600 0.714000
H30 H 0.621100 0.622900 0.820900
H31 H 0.886300 0.749500 0.673900
H32 H 0.899800 0.679500 0.837700
C33 C 0.886600 0.659200 0.758200
C34 C 1.037000 0.580100 0.727400
C35 C 0.716300 0.427900 0.923200
C36 C 0.343200 0.732800 0.333100
C37 C 1.169100 0.357900 0.864400
C38 C 0.875700 0.214100 0.963500
C39 C 0.256900 0.865900 0.321400
C40 C 0.124300 0.785900 0.036500
C41 C 0.485100 0.705200 0.418500
C42 C 0.231400 0.175200 0.612100
C43 C 0.361400 -0.063400 0.668600
C44 C 0.514900 0.294800 0.581500
C45 C -0.169100 0.642100 0.135600
C46 C -0.037000 0.419900 0.272600
C47 C 0.656800 0.267200 0.666900
C48 C 0.113400 0.340800 0.241800
C49 C 0.284200 0.427800 0.203400
C50 C 0.743100 0.134100 0.678600
C51 C 0.283700 0.572100 0.076800
C52 C 0.389800 0.993000 0.256200
C53 C 0.610200 0.007000 0.743800
C54 C 0.715800 0.572200 0.796600
C55 C 0.768600 0.824800 0.387900
C56 C 0.638600 1.063400 0.331400
N57 N 0.469800 0.039600 0.661500
N58 N -0.029200 0.562500 0.150700
N59 N 0.131800 0.643200 0.108300
N60 N 1.029200 0.437500 0.849300
N61 N 0.530200 0.960400 0.338500
N62 N 0.606600 0.832500 0.356900
N63 N 0.868200 0.356800 0.891700
N64 N 0.393400 0.167500 0.643100
O65 O -0.318500 0.594400 0.179100
O66 O 0.149400 0.279600 0.578800
O67 O 0.850600 0.720400 0.421200
O68 O 0.752100 0.126600 1.021900
O69 O 1.318500 0.405600 0.820900
O70 O 0.393000 -0.185600 0.698800
O71 O 0.607000 1.185600 0.301200
O72 O 0.247900 0.873400 -0.021900
S73 S 0.160470 0.007700 0.626860
S74 S 1.097310 0.174240 0.959140
S75 S 0.839530 0.992300 0.373140
S76 S -0.097310 0.825760 0.040860

#END
