
#######################################################################
#
#                 Cambridge Crystallographic Data Centre
#                                CCDC 
#
#######################################################################
#
# If this CIF has been generated from an entry in the Cambridge 
# Structural Database, then it will include bibliographic, chemical, 
# crystal, experimental, refinement or atomic coordinate data resulting 
# from the CCDC's data processing and validation procedures.
#
#######################################################################

data_ABABUB
_symmetry_cell_setting           monoclinic
_symmetry_space_group_name_H-M   'P 21/n'
_symmetry_Int_Tables_number      14
_space_group_name_Hall           '-P 2yn'
loop_
_symmetry_equiv_pos_site_id
_symmetry_equiv_pos_as_xyz
1 x,y,z
2 1/2-x,1/2+y,1/2-z
3 -x,-y,-z
4 1/2+x,1/2-y,1/2+z
_cell_length_a                   12.3047(18)
_cell_length_b                   6.3689(9)
_cell_length_c                   13.238(2)
_cell_angle_alpha                90
_cell_angle_beta                 96.223(2)
_cell_angle_gamma                90
_cell_volume                     1031.31
loop_
_atom_site_label
_atom_site_type_symbol
_atom_site_fract_x
_atom_site_fract_y
_atom_site_fract_z
O1 O 0.40613(6) 0.06727(11) 0.09111(6)
O2 O 0.53580(6) 0.68437(12) 0.26514(7)
N1 N 0.56547(7) 0.22366(13) 0.06011(7)
H1 H 0.5738 0.1273 0.0150
C1 C 0.64413(8) 0.37454(15) 0.07543(8)
C2 C 0.74071(14) 0.3492(4) 0.01363(17)
H2 H 0.7862 0.2314 0.0405
H3 H 0.7139 0.3178 -0.0572
C3 C 0.80838(17) 0.5469(3) 0.01794(16)
H4 H 0.8791 0.5159 -0.0063
H5 H 0.7712 0.6517 -0.0277
C4 C 0.82742(16) 0.6373(3) 0.12319(17)
H6 H 0.8732 0.7630 0.1219
H7 H 0.8670 0.5347 0.1685
C5 C 0.72184(15) 0.6943(3) 0.16463(16)
H8 H 0.7361 0.7147 0.2383
H9 H 0.6951 0.8278 0.1345
C6 C 0.63510(8) 0.53115(15) 0.14347(8)
C7 C 0.54054(9) 0.52485(15) 0.19723(9)
C8 C 0.43131(10) 0.71216(19) 0.30268(11)
H10 H 0.3799 0.7732 0.2490
H11 H 0.4391 0.8107 0.3599
C9 C 0.38603(11) 0.50893(18) 0.33674(10)
H12 H 0.3164 0.5342 0.3643
H13 H 0.4370 0.4466 0.3905
C10 C 0.36874(9) 0.36047(17) 0.24766(9)
H14 H 0.3615 0.2167 0.2725
H15 H 0.3009 0.3972 0.2056
C11 C 0.46330(8) 0.37170(15) 0.18443(8)
C12 C 0.47422(9) 0.21291(16) 0.11065(9)
O1 O 1.09387(6) 0.56727(11) 0.40889(6)
O2 O 0.96420(6) 1.18437(12) 0.23486(7)
N1 N 0.93453(7) 0.72366(13) 0.43989(7)
H1 H 0.9262 0.6273 0.4850
C1 C 0.85587(8) 0.87454(15) 0.42457(8)
C2 C 0.75929(14) 0.8492(4) 0.48637(17)
H2 H 0.7138 0.7314 0.4595
H3 H 0.7861 0.8178 0.5572
C3 C 0.69162(17) 1.0469(3) 0.48206(16)
H4 H 0.6209 1.0159 0.5063
H5 H 0.7288 1.1517 0.5277
C4 C 0.67258(16) 1.1373(3) 0.37681(17)
H6 H 0.6268 1.2630 0.3781
H7 H 0.6330 1.0347 0.3315
C5 C 0.77816(15) 1.1943(3) 0.33537(16)
H8 H 0.7639 1.2147 0.2617
H9 H 0.8049 1.3278 0.3655
C6 C 0.86490(8) 1.03115(15) 0.35653(8)
C7 C 0.95946(9) 1.02485(15) 0.30277(9)
C8 C 1.06869(10) 1.21216(19) 0.19732(11)
H10 H 1.1201 1.2732 0.2510
H11 H 1.0609 1.3107 0.1401
C9 C 1.11397(11) 1.00893(18) 0.16326(10)
H12 H 1.1836 1.0342 0.1357
H13 H 1.0630 0.9466 0.1095
C10 C 1.13126(9) 0.86047(17) 0.25234(9)
H14 H 1.1385 0.7167 0.2275
H15 H 1.1991 0.8972 0.2944
C11 C 1.03670(8) 0.87170(15) 0.31557(8)
C12 C 1.02578(9) 0.71291(16) 0.38935(9)
O1 O 0.59387(6) 0.93273(11) 0.90889(6)
O2 O 0.46420(6) 0.31563(12) 0.73486(7)
N1 N 0.43453(7) 0.77634(13) 0.93989(7)
H1 H 0.4262 0.8727 0.9850
C1 C 0.35587(8) 0.62546(15) 0.92457(8)
C2 C 0.25929(14) 0.6508(4) 0.98637(17)
H2 H 0.2138 0.7686 0.9595
H3 H 0.2861 0.6822 1.0572
C3 C 0.19162(17) 0.4531(3) 0.98206(16)
H4 H 0.1209 0.4841 1.0063
H5 H 0.2288 0.3483 1.0277
C4 C 0.17258(16) 0.3627(3) 0.87681(17)
H6 H 0.1268 0.2370 0.8781
H7 H 0.1330 0.4653 0.8315
C5 C 0.27816(15) 0.3057(3) 0.83537(16)
H8 H 0.2639 0.2853 0.7617
H9 H 0.3049 0.1722 0.8655
C6 C 0.36490(8) 0.46885(15) 0.85653(8)
C7 C 0.45946(9) 0.47515(15) 0.80277(9)
C8 C 0.56869(10) 0.28784(19) 0.69732(11)
H10 H 0.6201 0.2268 0.7510
H11 H 0.5609 0.1893 0.6401
C9 C 0.61397(11) 0.49107(18) 0.66326(10)
H12 H 0.6836 0.4658 0.6357
H13 H 0.5630 0.5534 0.6095
C10 C 0.63126(9) 0.63953(17) 0.75234(9)
H14 H 0.6385 0.7833 0.7275
H15 H 0.6991 0.6028 0.7944
C11 C 0.53670(8) 0.62830(15) 0.81557(8)
C12 C 0.52578(9) 0.78709(16) 0.88935(9)
O1 O -0.09387(6) 0.43273(11) 0.59111(6)
O2 O 0.03580(6) -0.18437(12) 0.76514(7)
N1 N 0.06547(7) 0.27634(13) 0.56011(7)
H1 H 0.0738 0.3727 0.5150
C1 C 0.14413(8) 0.12546(15) 0.57543(8)
C2 C 0.24071(14) 0.1508(4) 0.51363(17)
H2 H 0.2862 0.2686 0.5405
H3 H 0.2139 0.1822 0.4428
C3 C 0.30838(17) -0.0469(3) 0.51794(16)
H4 H 0.3791 -0.0159 0.4937
H5 H 0.2712 -0.1517 0.4723
C4 C 0.32742(16) -0.1373(3) 0.62319(17)
H6 H 0.3732 -0.2630 0.6219
H7 H 0.3670 -0.0347 0.6685
C5 C 0.22184(15) -0.1943(3) 0.66463(16)
H8 H 0.2361 -0.2147 0.7383
H9 H 0.1951 -0.3278 0.6345
C6 C 0.13510(8) -0.03115(15) 0.64347(8)
C7 C 0.04054(9) -0.02485(15) 0.69723(9)
C8 C -0.06869(10) -0.21216(19) 0.80268(11)
H10 H -0.1201 -0.2732 0.7490
H11 H -0.0609 -0.3107 0.8599
C9 C -0.11397(11) -0.00893(18) 0.83674(10)
H12 H -0.1836 -0.0342 0.8643
H13 H -0.0630 0.0534 0.8905
C10 C -0.13126(9) 0.13953(17) 0.74766(9)
H14 H -0.1385 0.2833 0.7725
H15 H -0.1991 0.1028 0.7056
C11 C -0.03670(8) 0.12830(15) 0.68443(8)
C12 C -0.02578(9) 0.28709(16) 0.61065(9)
C13? C 0.7407(3) 0.3512(4) 0.0194(3)
H16? H 0.7190 0.3779 -0.0529
H17? H 0.7669 0.2060 0.0262
C14? C 0.8321(3) 0.4964(5) 0.0561(3)
H18? H 0.8841 0.5025 0.0050
H19? H 0.8708 0.4396 0.1188
C15? C 0.7928(2) 0.7198(4) 0.0765(3)
H20? H 0.7563 0.7795 0.0135
H21? H 0.8559 0.8085 0.0990
C16? C 0.7121(3) 0.7182(6) 0.1595(3)
H22? H 0.7534 0.7096 0.2270
H23? H 0.6697 0.8487 0.1559
C13? C 0.7593(3) -0.1488(4) 0.4806(3)
H16? H 0.7810 -0.1221 0.5529
H17? H 0.7331 -0.2940 0.4738
C14? C 0.6679(3) -0.0036(5) 0.4439(3)
H18? H 0.6159 0.0025 0.4950
H19? H 0.6292 -0.0604 0.3812
C15? C 0.7072(2) 0.2198(4) 0.4235(3)
H20? H 0.7437 0.2795 0.4865
H21? H 0.6441 0.3085 0.4010
C16? C 0.7879(3) 0.2182(6) 0.3405(3)
H22? H 0.7466 0.2096 0.2730
H23? H 0.8303 0.3487 0.3441
C13? C 0.2593(3) 0.6488(4) 0.9806(3)
H16? H 0.2810 0.6221 1.0529
H17? H 0.2331 0.7940 0.9738
C14? C 0.1679(3) 0.5036(5) 0.9439(3)
H18? H 0.1159 0.4975 0.9950
H19? H 0.1292 0.5604 0.8812
C15? C 0.2072(2) 0.2802(4) 0.9235(3)
H20? H 0.2437 0.2205 0.9865
H21? H 0.1441 0.1915 0.9010
C16? C 0.2879(3) 0.2818(6) 0.8405(3)
H22? H 0.2466 0.2904 0.7730
H23? H 0.3303 0.1513 0.8441
C13? C 0.2407(3) 1.1488(4) 0.5194(3)
H16? H 0.2190 1.1221 0.4471
H17? H 0.2669 1.2940 0.5262
C14? C 0.3321(3) 1.0036(5) 0.5561(3)
H18? H 0.3841 0.9975 0.5050
H19? H 0.3708 1.0604 0.6188
C15? C 0.2928(2) 0.7802(4) 0.5765(3)
H20? H 0.2563 0.7205 0.5135
H21? H 0.3559 0.6915 0.5990
C16? C 0.2121(3) 0.7818(6) 0.6595(3)
H22? H 0.2534 0.7904 0.7270
H23? H 0.1697 0.6513 0.6559

#END
