./ABACRE_from_POSCAR.cif_generated_by_CrystalShift
_symmetry_cell_setting triclinic
_symmetry_space_group_name_H-M 'P 1'
loop_
_symmetry_equiv_pos_site_id
_symmetry_equiv_pos_as_xyz
1 x,y,z
_cell_length_a 13.120000
_cell_length_b 8.710000
_cell_length_c 17.250000
_cell_angle_alpha 90.000000
_cell_angle_beta 90.000000
_cell_angle_gamma 90.000000
_cell_volume 1971.247200
loop_
_atom_site_label
_atom_site_type_symbol
_atom_site_fract_x
_atom_site_fract_y
_atom_site_fract_z
H1 H 1.076200 0.882600 0.452300
H2 H 0.448000 1.048300 0.237200
H3 H 0.395500 0.905700 0.297800
H4 H 0.314900 1.021200 0.240400
H5 H 0.052000 0.548300 0.737200
H6 H 0.104500 0.405700 0.797800
H7 H 0.185100 0.521200 0.740400
H8 H -0.072500 -0.044100 0.657000
H9 H 0.572500 0.455900 0.157000
H10 H 0.651200 0.581100 0.103500
H11 H 0.571400 0.449700 0.054900
H12 H 0.423500 0.464900 0.211400
H13 H 0.346000 0.596400 0.262000
H14 H 0.432800 0.479500 0.313100
H15 H -0.151200 0.081100 0.603500
H16 H -0.071400 -0.050300 0.554900
H17 H 0.076500 -0.035100 0.711400
H18 H 0.154000 0.096400 0.762000
H19 H 0.652000 0.774000 0.169700
H20 H 0.595800 0.923600 0.223800
H21 H 0.333500 0.769300 0.185000
H22 H 0.386000 0.911900 0.124400
H23 H 0.489600 0.723400 0.051000
H24 H 0.410900 0.598100 0.104500
H25 H 0.067200 -0.020500 0.813100
H26 H -0.152000 0.274000 0.669700
H27 H -0.095800 0.423600 0.723800
H28 H 0.166500 0.269300 0.685000
H29 H 0.497700 0.739100 0.301700
H30 H 0.575100 0.607500 0.251000
H31 H 0.520100 1.032100 0.101800
H32 H 0.576200 0.882600 0.047700
H33 H 0.653800 1.020800 0.093500
H34 H 0.114000 0.411900 0.624400
H35 H 0.010400 0.223400 0.551000
H36 H 0.089100 0.098100 0.604500
H37 H 0.002300 0.239100 0.801700
H38 H -0.075100 0.107500 0.751000
H39 H -0.020100 0.532100 0.601800
H40 H -0.076200 0.382600 0.547700
H41 H -0.153800 0.520800 0.593500
H42 H 0.948000 1.048300 0.262800
H43 H 0.895500 0.905700 0.202200
H44 H 0.814900 1.021200 0.259600
H45 H 1.072500 0.455900 0.343000
H46 H 1.151200 0.581100 0.396500
H47 H 1.071400 0.449700 0.445100
H48 H 0.923500 0.464900 0.288600
H49 H 0.346200 0.520800 0.906500
H50 H 0.423800 0.382600 0.952300
H51 H 0.479900 0.532100 0.898200
H52 H 0.424900 0.107500 0.749000
H53 H 0.502300 0.239100 0.698300
H54 H 0.589100 0.098100 0.895500
H55 H 0.510400 0.223400 0.949000
H56 H 0.614000 0.411900 0.875600
H57 H 0.666500 0.269300 0.815000
H58 H 0.404200 0.423600 0.776200
H59 H 0.348000 0.274000 0.830300
H60 H 0.567200 -0.020500 0.686900
H61 H 0.654000 0.096400 0.738000
H62 H 0.576500 -0.035100 0.788600
H63 H 0.428600 -0.050300 0.945100
H64 H 0.348800 0.081100 0.896500
H65 H 0.427500 -0.044100 0.843000
H66 H 0.685100 0.521200 0.759600
H67 H 0.604500 0.405700 0.702200
H68 H 0.552000 0.548300 0.762800
H69 H 0.846000 0.596400 0.238000
H70 H 0.932800 0.479500 0.186900
H71 H 1.152000 0.774000 0.330300
H72 H 1.095800 0.923600 0.276200
H73 H 0.833500 0.769300 0.315000
H74 H 0.886000 0.911900 0.375600
H75 H 0.989600 0.723400 0.449000
H76 H 0.910900 0.598100 0.395500
H77 H 0.997700 0.739100 0.198300
H78 H 1.153800 1.020800 0.406500
H79 H 1.075100 0.607500 0.249000
H80 H 1.020100 1.032100 0.398200
C81 C 0.415600 0.454900 0.901800
C82 C 0.888000 0.964200 0.257000
C83 C 1.078300 0.523600 0.395100
C84 C 0.920200 0.542500 0.239900
C85 C 1.088600 0.852800 0.327300
C86 C 0.895500 0.849700 0.321900
C87 C 0.983700 0.656000 0.396600
C88 C 1.002700 0.666100 0.248800
C89 C 1.084400 0.954900 0.401800
C90 C 0.395500 0.849700 0.178100
C91 C 0.612000 0.464200 0.757000
C92 C 0.421700 0.023600 0.895100
C93 C 0.579800 0.042500 0.739900
C94 C 0.411400 0.352800 0.827300
C95 C 0.604500 0.349700 0.821900
C96 C 0.516300 0.156000 0.896600
C97 C 0.497300 0.166100 0.748800
C98 C 0.483700 0.656000 0.103400
C99 C -0.084400 0.454900 0.598200
C100 C -0.002700 0.166100 0.751200
C101 C 0.016300 0.156000 0.603400
C102 C 0.104500 0.349700 0.678100
C103 C -0.088600 0.352800 0.672700
C104 C 0.079800 0.042500 0.760100
C105 C -0.078300 0.023600 0.604900
C106 C 0.112000 0.464200 0.743000
C107 C 0.588600 0.852800 0.172700
C108 C 0.420200 0.542500 0.260100
C109 C 0.578300 0.523600 0.104900
C110 C 0.502700 0.666100 0.251200
C111 C 0.584400 0.954900 0.098200
C112 C -0.183400 0.284500 0.084900
C113 C -0.072100 0.276800 0.087400
C114 C 0.388000 0.964200 0.243000
C115 C 1.072100 0.776800 0.912600
C116 C 1.183400 0.784500 0.915100
C117 C 0.683400 0.784500 0.584900
C118 C 0.572100 0.776800 0.587400
C119 C 0.427900 0.276800 0.412600
C120 C 0.316600 0.284500 0.415100
N121 N 0.811700 0.250700 0.408500
N122 N 0.513200 0.271100 0.411800
N123 N 0.986800 0.771100 0.911800
N124 N 0.688300 0.750700 0.908500
N125 N 0.188300 0.750700 0.591500
N126 N 0.486800 0.771100 0.588200
N127 N 0.007100 0.265800 0.676600
N128 N 0.311700 0.250700 0.091500
N129 N 0.013200 0.271100 0.088200
N130 N 0.992900 0.765800 0.323400
N131 N 0.507100 0.265800 0.823400
N132 N 0.492900 0.765800 0.176600
O133 O 0.612600 0.754500 0.907600
O134 O 0.387400 0.254500 0.092400
O135 O 0.112600 0.754500 0.592400
O136 O 0.887400 0.254500 0.407600
Br137 Br 0.157000 0.254400 0.236600
Br138 Br 0.162100 -0.037300 0.095200
Br139 Br 0.836700 0.742800 1.053300
Br140 Br 0.164900 0.537600 0.093400
Br141 Br 0.335100 1.037600 0.593400
Br142 Br 0.336700 0.742800 0.446700
Br143 Br 0.343000 0.754400 0.736600
Br144 Br 0.337900 0.462700 0.595200
Br145 Br 0.835100 1.037600 0.906600
Br146 Br 0.163300 0.242800 -0.053300
Br147 Br 0.664900 0.537600 0.406600
Br148 Br 0.663300 0.242800 0.553300
Br149 Br 0.657000 0.254400 0.263400
Br150 Br 0.662100 -0.037300 0.404800
Br151 Br 0.837900 0.462700 0.904800
Br152 Br 0.843000 0.754400 0.763400
Re153 Re 0.323300 0.750000 0.591400
Re154 Re 0.676700 0.250000 0.408600
Re155 Re 0.823300 0.750000 0.908600
Re156 Re 0.176700 0.250000 0.091400

#END
