
#######################################################################
#
#                 Cambridge Crystallographic Data Centre
#                                CCDC 
#
#######################################################################
#
# If this CIF has been generated from an entry in the Cambridge 
# Structural Database, then it will include bibliographic, chemical, 
# crystal, experimental, refinement or atomic coordinate data resulting 
# from the CCDC's data processing and validation procedures.
#
#######################################################################

data_ABACEM
_symmetry_cell_setting           orthorhombic
_symmetry_space_group_name_H-M   'P 21 21 21'
_symmetry_Int_Tables_number      19
_space_group_name_Hall           'P 2ac 2ab'
loop_
_symmetry_equiv_pos_site_id
_symmetry_equiv_pos_as_xyz
1 x,y,z
2 1/2-x,-y,1/2+z
3 -x,1/2+y,1/2-z
4 1/2+x,1/2-y,-z
_cell_length_a                   13.6695(8)
_cell_length_b                   14.6107(9)
_cell_length_c                   22.7212(14)
_cell_angle_alpha                90
_cell_angle_beta                 90
_cell_angle_gamma                90
_cell_volume                     4537.9
loop_
_atom_site_label
_atom_site_type_symbol
_atom_site_fract_x
_atom_site_fract_y
_atom_site_fract_z
N1 N 0.71584(13) 0.37751(15) 0.45821(10)
O1 O 0.76082(11) 0.34164(14) 0.36602(8)
C1 C 0.64557(17) 0.39678(18) 0.49656(12)
C2 C 0.66224(19) 0.4076(2) 0.56145(12)
H1 H 0.7004 0.4621 0.5697
H2 H 0.6958 0.3548 0.5776
C3 C 0.5602(2) 0.4159(3) 0.58631(14)
H3 H 0.5434 0.3607 0.6078
H4 H 0.5569 0.4673 0.6133
C4 C 0.48955(18) 0.4299(2) 0.53617(12)
H5 H 0.4345 0.3883 0.5393
H6 H 0.4653 0.4923 0.5357
C5 C 0.54834(16) 0.41008(18) 0.48215(12)
C6 C 0.52169(16) 0.40202(18) 0.42404(12)
H7 H 0.4570 0.4115 0.4128
C7 C 0.59174(15) 0.37972(17) 0.38223(11)
C8 C 0.57040(16) 0.35888(17) 0.32037(11)
C9 C 0.47606(18) 0.3451(2) 0.29855(13)
H8 H 0.4225 0.3498 0.3236
C10 C 0.4621(2) 0.3245(2) 0.24034(14)
H9 H 0.3989 0.3171 0.2259
C11 C 0.5404(2) 0.3146(2) 0.20300(14)
H10 H 0.5303 0.3000 0.1636
C12 C 0.6342(2) 0.3264(2) 0.22417(14)
H11 H 0.6875 0.3187 0.1993
C13 C 0.64871(17) 0.34980(19) 0.28241(12)
C14 C 0.74937(18) 0.3684(2) 0.30648(13)
H12 H 0.7970 0.3360 0.2827
H13 H 0.7630 0.4333 0.3031
C15 C 0.68750(16) 0.36912(17) 0.40316(12)
N1 N 0.78416(13) 0.62249(15) 0.95821(10)
O1 O 0.73918(11) 0.65836(14) 0.86602(8)
C1 C 0.85443(17) 0.60322(18) 0.99656(12)
C2 C 0.83776(19) 0.5924(2) 1.06145(12)
H1 H 0.7996 0.5379 1.0697
H2 H 0.8042 0.6452 1.0776
C3 C 0.9398(2) 0.5841(3) 1.08631(14)
H3 H 0.9566 0.6393 1.1078
H4 H 0.9431 0.5327 1.1133
C4 C 1.01045(18) 0.5701(2) 1.03617(12)
H5 H 1.0655 0.6117 1.0393
H6 H 1.0347 0.5077 1.0357
C5 C 0.95166(16) 0.58992(18) 0.98215(12)
C6 C 0.97831(16) 0.59798(18) 0.92404(12)
H7 H 1.0430 0.5885 0.9128
C7 C 0.90826(15) 0.62028(17) 0.88223(11)
C8 C 0.92960(16) 0.64112(17) 0.82037(11)
C9 C 1.02394(18) 0.6549(2) 0.79855(13)
H8 H 1.0775 0.6502 0.8236
C10 C 1.0379(2) 0.6755(2) 0.74034(14)
H9 H 1.1011 0.6829 0.7259
C11 C 0.9596(2) 0.6854(2) 0.70300(14)
H10 H 0.9697 0.7000 0.6636
C12 C 0.8658(2) 0.6736(2) 0.72417(14)
H11 H 0.8125 0.6813 0.6993
C13 C 0.85129(17) 0.65020(19) 0.78241(12)
C14 C 0.75063(18) 0.6316(2) 0.80648(13)
H12 H 0.7030 0.6640 0.7827
H13 H 0.7370 0.5667 0.8031
C15 C 0.81250(16) 0.63088(17) 0.90316(12)
N1 N 0.28416(13) 0.87751(15) 0.04179(10)
O1 O 0.23918(11) 0.84164(14) 0.13398(8)
C1 C 0.35443(17) 0.89678(18) 0.00344(12)
C2 C 0.33776(19) 0.9076(2) -0.06145(12)
H1 H 0.2996 0.9621 -0.0697
H2 H 0.3042 0.8548 -0.0776
C3 C 0.4398(2) 0.9159(3) -0.08631(14)
H3 H 0.4566 0.8607 -0.1078
H4 H 0.4431 0.9673 -0.1133
C4 C 0.51045(18) 0.9299(2) -0.03617(12)
H5 H 0.5655 0.8883 -0.0393
H6 H 0.5347 0.9923 -0.0357
C5 C 0.45166(16) 0.91008(18) 0.01785(12)
C6 C 0.47831(16) 0.90202(18) 0.07596(12)
H7 H 0.5430 0.9115 0.0872
C7 C 0.40826(15) 0.87972(17) 0.11777(11)
C8 C 0.42960(16) 0.85888(17) 0.17963(11)
C9 C 0.52394(18) 0.8451(2) 0.20145(13)
H8 H 0.5775 0.8498 0.1764
C10 C 0.5379(2) 0.8245(2) 0.25966(14)
H9 H 0.6011 0.8171 0.2741
C11 C 0.4596(2) 0.8146(2) 0.29700(14)
H10 H 0.4697 0.8000 0.3364
C12 C 0.3658(2) 0.8264(2) 0.27583(14)
H11 H 0.3125 0.8187 0.3007
C13 C 0.35129(17) 0.84980(19) 0.21759(12)
C14 C 0.25063(18) 0.8684(2) 0.19352(13)
H12 H 0.2030 0.8360 0.2173
H13 H 0.2370 0.9333 0.1969
C15 C 0.31250(16) 0.86912(17) 0.09684(12)
N1 N 0.21584(13) 0.12249(15) 0.54179(10)
O1 O 0.26082(11) 0.15836(14) 0.63398(8)
C1 C 0.14557(17) 0.10322(18) 0.50344(12)
C2 C 0.16224(19) 0.0924(2) 0.43855(12)
H1 H 0.2004 0.0379 0.4303
H2 H 0.1958 0.1452 0.4224
C3 C 0.0602(2) 0.0841(3) 0.41369(14)
H3 H 0.0434 0.1393 0.3922
H4 H 0.0569 0.0327 0.3867
C4 C -0.01045(18) 0.0701(2) 0.46383(12)
H5 H -0.0655 0.1117 0.4607
H6 H -0.0347 0.0077 0.4643
C5 C 0.04834(16) 0.08992(18) 0.51785(12)
C6 C 0.02169(16) 0.09798(18) 0.57596(12)
H7 H -0.0430 0.0885 0.5872
C7 C 0.09174(15) 0.12028(17) 0.61777(11)
C8 C 0.07040(16) 0.14112(17) 0.67963(11)
C9 C -0.02394(18) 0.1549(2) 0.70145(13)
H8 H -0.0775 0.1502 0.6764
C10 C -0.0379(2) 0.1755(2) 0.75966(14)
H9 H -0.1011 0.1829 0.7741
C11 C 0.0404(2) 0.1854(2) 0.79700(14)
H10 H 0.0303 0.2000 0.8364
C12 C 0.1342(2) 0.1736(2) 0.77583(14)
H11 H 0.1875 0.1813 0.8007
C13 C 0.14871(17) 0.15020(19) 0.71759(12)
C14 C 0.24937(18) 0.1316(2) 0.69352(13)
H12 H 0.2970 0.1640 0.7173
H13 H 0.2630 0.0667 0.6969
C15 C 0.18750(16) 0.13088(17) 0.59684(12)
N2 N 0.21746(14) 0.34554(16) 0.31738(10)
O2 O 0.25614(11) 0.31962(14) 0.41158(9)
C16 C 0.15017(18) 0.36451(18) 0.27632(13)
C17 C 0.1714(2) 0.3701(2) 0.21208(13)
H14 H 0.2015 0.3140 0.1981
H15 H 0.2146 0.4211 0.2036
C18 C 0.0730(2) 0.3841(3) 0.18406(14)
H16 H 0.0544 0.3300 0.1620
H17 H 0.0754 0.4356 0.1571
C19 C -0.0016(2) 0.4025(2) 0.23264(12)
H18 H -0.0235 0.4657 0.2317
H19 H -0.0580 0.3626 0.2287
C20 C 0.05286(17) 0.38265(18) 0.28823(12)
C21 C 0.02283(16) 0.38054(18) 0.34600(12)
H20 H -0.0421 0.3929 0.3554
C22 C 0.08917(15) 0.36000(17) 0.39038(12)
C23 C 0.06460(16) 0.35101(18) 0.45250(11)
C24 C -0.03109(17) 0.3481(2) 0.47381(12)
H21 H -0.0832 0.3512 0.4476
C25 C -0.0491(2) 0.3407(2) 0.53301(13)
H22 H -0.1133 0.3398 0.5466
C26 C 0.0263(2) 0.3345(2) 0.57222(13)
H23 H 0.0134 0.3290 0.6123
C27 C 0.12144(19) 0.33645(19) 0.55241(13)
H24 H 0.1728 0.3323 0.5791
C28 C 0.14087(17) 0.34461(18) 0.49280(12)
C29 C 0.24359(17) 0.3504(2) 0.47104(13)
H25 H 0.2654 0.4134 0.4738
H26 H 0.2851 0.3140 0.4966
C30 C 0.18601(16) 0.34391(19) 0.37224(13)
N2 N 0.28254(14) 0.65446(16) 0.81738(10)
O2 O 0.24386(11) 0.68038(14) 0.91158(9)
C16 C 0.34983(18) 0.63549(18) 0.77632(13)
C17 C 0.3286(2) 0.6299(2) 0.71208(13)
H14 H 0.2985 0.6860 0.6981
H15 H 0.2854 0.5789 0.7036
C18 C 0.4270(2) 0.6159(3) 0.68406(14)
H16 H 0.4456 0.6700 0.6620
H17 H 0.4246 0.5644 0.6571
C19 C 0.5016(2) 0.5975(2) 0.73264(12)
H18 H 0.5235 0.5343 0.7317
H19 H 0.5580 0.6374 0.7287
C20 C 0.44714(17) 0.61735(18) 0.78823(12)
C21 C 0.47717(16) 0.61946(18) 0.84600(12)
H20 H 0.5421 0.6071 0.8554
C22 C 0.41083(15) 0.64000(17) 0.89038(12)
C23 C 0.43540(16) 0.64899(18) 0.95250(11)
C24 C 0.53109(17) 0.6519(2) 0.97381(12)
H21 H 0.5832 0.6488 0.9476
C25 C 0.5491(2) 0.6593(2) 1.03301(13)
H22 H 0.6133 0.6602 1.0466
C26 C 0.4737(2) 0.6655(2) 1.07222(13)
H23 H 0.4866 0.6710 1.1123
C27 C 0.37856(19) 0.66355(19) 1.05241(13)
H24 H 0.3272 0.6677 1.0791
C28 C 0.35913(17) 0.65539(18) 0.99280(12)
C29 C 0.25641(17) 0.6496(2) 0.97104(13)
H25 H 0.2346 0.5866 0.9738
H26 H 0.2149 0.6860 0.9966
C30 C 0.31399(16) 0.65609(19) 0.87224(13)
N2 N 0.78254(14) 0.84554(16) 0.18262(10)
O2 O 0.74386(11) 0.81962(14) 0.08842(9)
C16 C 0.84983(18) 0.86451(18) 0.22368(13)
C17 C 0.8286(2) 0.8701(2) 0.28792(13)
H14 H 0.7985 0.8140 0.3019
H15 H 0.7854 0.9211 0.2964
C18 C 0.9270(2) 0.8841(3) 0.31594(14)
H16 H 0.9456 0.8300 0.3380
H17 H 0.9246 0.9356 0.3429
C19 C 1.0016(2) 0.9025(2) 0.26736(12)
H18 H 1.0235 0.9657 0.2683
H19 H 1.0580 0.8626 0.2713
C20 C 0.94714(17) 0.88265(18) 0.21177(12)
C21 C 0.97717(16) 0.88054(18) 0.15400(12)
H20 H 1.0421 0.8929 0.1446
C22 C 0.91083(15) 0.86000(17) 0.10962(12)
C23 C 0.93540(16) 0.85101(18) 0.04750(11)
C24 C 1.03109(17) 0.8481(2) 0.02619(12)
H21 H 1.0832 0.8512 0.0524
C25 C 1.0491(2) 0.8407(2) -0.03301(13)
H22 H 1.1133 0.8398 -0.0466
C26 C 0.9737(2) 0.8345(2) -0.07222(13)
H23 H 0.9866 0.8290 -0.1123
C27 C 0.87856(19) 0.83645(19) -0.05241(13)
H24 H 0.8272 0.8323 -0.0791
C28 C 0.85913(17) 0.84461(18) 0.00720(12)
C29 C 0.75641(17) 0.8504(2) 0.02896(13)
H25 H 0.7346 0.9134 0.0262
H26 H 0.7149 0.8140 0.0034
C30 C 0.81399(16) 0.84391(19) 0.12776(13)
N2 N 0.71746(14) 0.15446(16) 0.68262(10)
O2 O 0.75614(11) 0.18038(14) 0.58842(9)
C16 C 0.65017(18) 0.13549(18) 0.72368(13)
C17 C 0.6714(2) 0.1299(2) 0.78792(13)
H14 H 0.7015 0.1860 0.8019
H15 H 0.7146 0.0789 0.7964
C18 C 0.5730(2) 0.1159(3) 0.81594(14)
H16 H 0.5544 0.1700 0.8380
H17 H 0.5754 0.0644 0.8429
C19 C 0.4984(2) 0.0975(2) 0.76736(12)
H18 H 0.4765 0.0343 0.7683
H19 H 0.4420 0.1374 0.7713
C20 C 0.55286(17) 0.11735(18) 0.71177(12)
C21 C 0.52283(16) 0.11946(18) 0.65400(12)
H20 H 0.4579 0.1071 0.6446
C22 C 0.58917(15) 0.14000(17) 0.60962(12)
C23 C 0.56460(16) 0.14899(18) 0.54750(11)
C24 C 0.46891(17) 0.1519(2) 0.52619(12)
H21 H 0.4168 0.1488 0.5524
C25 C 0.4509(2) 0.1593(2) 0.46699(13)
H22 H 0.3867 0.1602 0.4534
C26 C 0.5263(2) 0.1655(2) 0.42778(13)
H23 H 0.5134 0.1710 0.3877
C27 C 0.62144(19) 0.16355(19) 0.44759(13)
H24 H 0.6728 0.1677 0.4209
C28 C 0.64087(17) 0.15539(18) 0.50720(12)
C29 C 0.74359(17) 0.1496(2) 0.52896(13)
H25 H 0.7654 0.0866 0.5262
H26 H 0.7851 0.1860 0.5034
C30 C 0.68601(16) 0.15609(19) 0.62776(13)
O3 O 0.14579(11) 0.38479(16) 0.86343(10)
N3 N 0.19134(14) 0.39217(18) 0.95827(11)
C31 C 0.26186(17) 0.3995(2) 0.99848(13)
C32 C 0.2447(2) 0.3985(2) 1.06329(14)
H27 H 0.2145 0.3414 1.0754
H28 H 0.2026 0.4488 1.0749
C33 C 0.3445(2) 0.4084(3) 1.09008(15)
H29 H 0.3586 0.3563 1.1151
H30 H 0.3472 0.4634 1.1139
C34 C 0.41909(19) 0.4141(2) 1.04068(12)
H31 H 0.4550 0.4713 1.0425
H32 H 0.4651 0.3637 1.0429
C35 C 0.36027(17) 0.40861(18) 0.98592(12)
C36 C 0.38829(16) 0.40870(18) 0.92743(12)
H33 H 0.4539 0.4149 0.9173
C37 C 0.31769(16) 0.39948(18) 0.88389(12)
C38 C 0.33826(17) 0.38611(19) 0.82127(13)
C39 C 0.42992(19) 0.3625(2) 0.79912(13)
H34 H 0.4830 0.3581 0.8245
C40 C 0.4425(2) 0.3458(2) 0.74026(14)
H35 H 0.5042 0.3301 0.7261
C41 C 0.3649(3) 0.3519(2) 0.70184(15)
H36 H 0.3738 0.3400 0.6620
C42 C 0.2741(2) 0.3757(2) 0.72290(15)
H37 H 0.2215 0.3799 0.6971
C43 C 0.26048(19) 0.39339(19) 0.78210(14)
C44 C 0.1645(2) 0.4239(3) 0.80677(15)
H38 H 0.1643 0.4901 0.8100
H39 H 0.1125 0.4065 0.7800
C45 C 0.21981(17) 0.3945(2) 0.90322(14)
O3 O 0.35421(11) 0.61521(16) 0.36343(10)
N3 N 0.30866(14) 0.60783(18) 0.45827(11)
C31 C 0.23814(17) 0.6005(2) 0.49848(13)
C32 C 0.2553(2) 0.6015(2) 0.56329(14)
H27 H 0.2855 0.6586 0.5754
H28 H 0.2974 0.5512 0.5749
C33 C 0.1555(2) 0.5916(3) 0.59008(15)
H29 H 0.1414 0.6437 0.6151
H30 H 0.1528 0.5366 0.6139
C34 C 0.08091(19) 0.5859(2) 0.54068(12)
H31 H 0.0450 0.5287 0.5425
H32 H 0.0349 0.6363 0.5429
C35 C 0.13973(17) 0.59139(18) 0.48592(12)
C36 C 0.11171(16) 0.59130(18) 0.42743(12)
H33 H 0.0461 0.5851 0.4173
C37 C 0.18231(16) 0.60052(18) 0.38389(12)
C38 C 0.16174(17) 0.61389(19) 0.32127(13)
C39 C 0.07008(19) 0.6375(2) 0.29912(13)
H34 H 0.0170 0.6419 0.3245
C40 C 0.0575(2) 0.6542(2) 0.24026(14)
H35 H -0.0042 0.6699 0.2261
C41 C 0.1351(3) 0.6481(2) 0.20184(15)
H36 H 0.1262 0.6600 0.1620
C42 C 0.2259(2) 0.6243(2) 0.22290(15)
H37 H 0.2785 0.6201 0.1971
C43 C 0.23952(19) 0.60661(19) 0.28210(14)
C44 C 0.3355(2) 0.5761(3) 0.30677(15)
H38 H 0.3357 0.5099 0.3100
H39 H 0.3875 0.5935 0.2800
C45 C 0.28019(17) 0.6055(2) 0.40322(14)
O3 O 0.85421(11) 0.88479(16) 0.63657(10)
N3 N 0.80866(14) 0.89217(18) 0.54173(11)
C31 C 0.73814(17) 0.8995(2) 0.50152(13)
C32 C 0.7553(2) 0.8985(2) 0.43671(14)
H27 H 0.7855 0.8414 0.4246
H28 H 0.7974 0.9488 0.4251
C33 C 0.6555(2) 0.9084(3) 0.40992(15)
H29 H 0.6414 0.8563 0.3849
H30 H 0.6528 0.9634 0.3861
C34 C 0.58091(19) 0.9141(2) 0.45932(12)
H31 H 0.5450 0.9713 0.4575
H32 H 0.5349 0.8637 0.4571
C35 C 0.63973(17) 0.90861(18) 0.51408(12)
C36 C 0.61171(16) 0.90870(18) 0.57257(12)
H33 H 0.5461 0.9149 0.5827
C37 C 0.68231(16) 0.89948(18) 0.61611(12)
C38 C 0.66174(17) 0.88611(19) 0.67873(13)
C39 C 0.57008(19) 0.8625(2) 0.70088(13)
H34 H 0.5170 0.8581 0.6755
C40 C 0.5575(2) 0.8458(2) 0.75974(14)
H35 H 0.4958 0.8301 0.7739
C41 C 0.6351(3) 0.8519(2) 0.79816(15)
H36 H 0.6262 0.8400 0.8380
C42 C 0.7259(2) 0.8757(2) 0.77710(15)
H37 H 0.7785 0.8799 0.8029
C43 C 0.73952(19) 0.89339(19) 0.71790(14)
C44 C 0.8355(2) 0.9239(3) 0.69323(15)
H38 H 0.8357 0.9901 0.6900
H39 H 0.8875 0.9065 0.7200
C45 C 0.78019(17) 0.8945(2) 0.59678(14)
O3 O 0.64579(11) 0.11521(16) 0.13657(10)
N3 N 0.69134(14) 0.10783(18) 0.04173(11)
C31 C 0.76186(17) 0.1005(2) 0.00152(13)
C32 C 0.7447(2) 0.1015(2) -0.06329(14)
H27 H 0.7145 0.1586 -0.0754
H28 H 0.7026 0.0512 -0.0749
C33 C 0.8445(2) 0.0916(3) -0.09008(15)
H29 H 0.8586 0.1437 -0.1151
H30 H 0.8472 0.0366 -0.1139
C34 C 0.91909(19) 0.0859(2) -0.04068(12)
H31 H 0.9550 0.0287 -0.0425
H32 H 0.9651 0.1363 -0.0429
C35 C 0.86027(17) 0.09139(18) 0.01408(12)
C36 C 0.88829(16) 0.09130(18) 0.07257(12)
H33 H 0.9539 0.0851 0.0827
C37 C 0.81769(16) 0.10052(18) 0.11611(12)
C38 C 0.83826(17) 0.11389(19) 0.17873(13)
C39 C 0.92992(19) 0.1375(2) 0.20088(13)
H34 H 0.9830 0.1419 0.1755
C40 C 0.9425(2) 0.1542(2) 0.25974(14)
H35 H 1.0042 0.1699 0.2739
C41 C 0.8649(3) 0.1481(2) 0.29816(15)
H36 H 0.8738 0.1600 0.3380
C42 C 0.7741(2) 0.1243(2) 0.27710(15)
H37 H 0.7215 0.1201 0.3029
C43 C 0.76048(19) 0.10661(19) 0.21790(14)
C44 C 0.6645(2) 0.0761(3) 0.19323(15)
H38 H 0.6643 0.0099 0.1900
H39 H 0.6125 0.0935 0.2200
C45 C 0.71981(17) 0.1055(2) 0.09678(14)
O4 O 0.64714(12) 0.35101(17) 0.91149(10)
N4 N 0.68763(14) 0.37438(18) 0.81713(12)
C46 C 0.75670(18) 0.3878(2) 0.77606(14)
C47 C 0.7358(2) 0.3985(2) 0.71193(14)
H40 H 0.6996 0.4544 0.7045
H41 H 0.6984 0.3470 0.6972
C48 C 0.8345(2) 0.4022(3) 0.68375(15)
H42 H 0.8377 0.4532 0.6564
H43 H 0.8467 0.3462 0.6621
C49 C 0.91126(18) 0.4142(2) 0.73242(12)
H44 H 0.9640 0.3703 0.7280
H45 H 0.9384 0.4755 0.7319
C50 C 0.85515(17) 0.39728(19) 0.78820(13)
C51 C 0.88518(17) 0.39048(18) 0.84560(12)
H46 H 0.9512 0.3964 0.8548
C52 C 0.81765(17) 0.37483(18) 0.89007(13)
C53 C 0.84156(18) 0.35888(18) 0.95187(13)
C54 C 0.93591(19) 0.3414(2) 0.97207(13)
H47 H 0.9880 0.3419 0.9457
C55 C 0.9528(2) 0.3234(2) 1.03063(15)
H48 H 1.0160 0.3121 1.0439
C56 C 0.8754(3) 0.3222(2) 1.06964(15)
H49 H 0.8866 0.3098 1.1092
C57 C 0.7822(3) 0.3392(2) 1.05048(15)
H50 H 0.7303 0.3379 1.0769
C58 C 0.7652(2) 0.3584(2) 0.99176(14)
C59 C 0.6653(2) 0.3838(3) 0.96947(16)
H51 H 0.6163 0.3589 0.9959
H52 H 0.6589 0.4499 0.9698
C60 C 0.71923(18) 0.3688(2) 0.87143(14)
O4 O 0.85286(12) 0.64899(17) 0.41149(10)
N4 N 0.81237(14) 0.62562(18) 0.31713(12)
C46 C 0.74330(18) 0.6122(2) 0.27606(14)
C47 C 0.7642(2) 0.6015(2) 0.21193(14)
H40 H 0.8004 0.5456 0.2045
H41 H 0.8016 0.6530 0.1972
C48 C 0.6655(2) 0.5978(3) 0.18375(15)
H42 H 0.6623 0.5468 0.1564
H43 H 0.6533 0.6538 0.1621
C49 C 0.58874(18) 0.5858(2) 0.23242(12)
H44 H 0.5360 0.6297 0.2280
H45 H 0.5616 0.5245 0.2319
C50 C 0.64485(17) 0.60272(19) 0.28820(13)
C51 C 0.61482(17) 0.60952(18) 0.34560(12)
H46 H 0.5488 0.6036 0.3548
C52 C 0.68235(17) 0.62517(18) 0.39007(13)
C53 C 0.65844(18) 0.64112(18) 0.45187(13)
C54 C 0.56409(19) 0.6586(2) 0.47207(13)
H47 H 0.5120 0.6581 0.4457
C55 C 0.5472(2) 0.6766(2) 0.53063(15)
H48 H 0.4840 0.6879 0.5439
C56 C 0.6246(3) 0.6778(2) 0.56964(15)
H49 H 0.6134 0.6902 0.6092
C57 C 0.7178(3) 0.6608(2) 0.55048(15)
H50 H 0.7697 0.6621 0.5769
C58 C 0.7348(2) 0.6416(2) 0.49176(14)
C59 C 0.8347(2) 0.6162(3) 0.46947(16)
H51 H 0.8837 0.6411 0.4959
H52 H 0.8411 0.5501 0.4698
C60 C 0.78077(18) 0.6312(2) 0.37143(14)
O4 O 0.35286(12) 0.85101(17) 0.58851(10)
N4 N 0.31237(14) 0.87438(18) 0.68287(12)
C46 C 0.24330(18) 0.8878(2) 0.72394(14)
C47 C 0.2642(2) 0.8985(2) 0.78807(14)
H40 H 0.3004 0.9544 0.7955
H41 H 0.3016 0.8470 0.8028
C48 C 0.1655(2) 0.9022(3) 0.81625(15)
H42 H 0.1623 0.9532 0.8436
H43 H 0.1533 0.8462 0.8379
C49 C 0.08874(18) 0.9142(2) 0.76758(12)
H44 H 0.0360 0.8703 0.7720
H45 H 0.0616 0.9755 0.7681
C50 C 0.14485(17) 0.89728(19) 0.71180(13)
C51 C 0.11482(17) 0.89048(18) 0.65440(12)
H46 H 0.0488 0.8964 0.6452
C52 C 0.18235(17) 0.87483(18) 0.60993(13)
C53 C 0.15844(18) 0.85888(18) 0.54813(13)
C54 C 0.06409(19) 0.8414(2) 0.52793(13)
H47 H 0.0120 0.8419 0.5543
C55 C 0.0472(2) 0.8234(2) 0.46937(15)
H48 H -0.0160 0.8121 0.4561
C56 C 0.1246(3) 0.8222(2) 0.43036(15)
H49 H 0.1134 0.8098 0.3908
C57 C 0.2178(3) 0.8392(2) 0.44952(15)
H50 H 0.2697 0.8379 0.4231
C58 C 0.2348(2) 0.8584(2) 0.50824(14)
C59 C 0.3347(2) 0.8838(3) 0.53053(16)
H51 H 0.3837 0.8589 0.5041
H52 H 0.3411 0.9499 0.5302
C60 C 0.28077(18) 0.8688(2) 0.62857(14)
O4 O 0.14714(12) 0.14899(17) 0.08851(10)
N4 N 0.18763(14) 0.12562(18) 0.18287(12)
C46 C 0.25670(18) 0.1122(2) 0.22394(14)
C47 C 0.2358(2) 0.1015(2) 0.28807(14)
H40 H 0.1996 0.0456 0.2955
H41 H 0.1984 0.1530 0.3028
C48 C 0.3345(2) 0.0978(3) 0.31625(15)
H42 H 0.3377 0.0468 0.3436
H43 H 0.3467 0.1538 0.3379
C49 C 0.41126(18) 0.0858(2) 0.26758(12)
H44 H 0.4640 0.1297 0.2720
H45 H 0.4384 0.0245 0.2681
C50 C 0.35515(17) 0.10272(19) 0.21180(13)
C51 C 0.38518(17) 0.10952(18) 0.15440(12)
H46 H 0.4512 0.1036 0.1452
C52 C 0.31765(17) 0.12517(18) 0.10993(13)
C53 C 0.34156(18) 0.14112(18) 0.04813(13)
C54 C 0.43591(19) 0.1586(2) 0.02793(13)
H47 H 0.4880 0.1581 0.0543
C55 C 0.4528(2) 0.1766(2) -0.03063(15)
H48 H 0.5160 0.1879 -0.0439
C56 C 0.3754(3) 0.1778(2) -0.06964(15)
H49 H 0.3866 0.1902 -0.1092
C57 C 0.2822(3) 0.1608(2) -0.05048(15)
H50 H 0.2303 0.1621 -0.0769
C58 C 0.2652(2) 0.1416(2) 0.00824(14)
C59 C 0.1653(2) 0.1162(3) 0.03053(16)
H51 H 0.1163 0.1411 0.0041
H52 H 0.1589 0.0501 0.0302
C60 C 0.21923(18) 0.1312(2) 0.12857(14)

#END
