./ABACUD_from_POSCAR.cif_generated_by_CrystalShift
_symmetry_cell_setting triclinic
_symmetry_space_group_name_H-M 'P 1'
loop_
_symmetry_equiv_pos_site_id
_symmetry_equiv_pos_as_xyz
1 x,y,z
_cell_length_a 7.910800
_cell_length_b 12.094300
_cell_length_c 12.949800
_cell_angle_alpha 69.253000
_cell_angle_beta 76.794000
_cell_angle_gamma 77.460000
_cell_volume 1115.303694
loop_
_atom_site_label
_atom_site_type_symbol
_atom_site_fract_x
_atom_site_fract_y
_atom_site_fract_z
H1 H 0.520700 0.320900 0.689400
H2 H 0.167900 0.395700 0.783700
H3 H 0.334000 0.463200 0.758000
H4 H 0.077800 0.708800 0.394900
H5 H 0.222600 0.523800 0.360400
H6 H 0.290500 0.290200 0.494900
H7 H 0.476300 0.321400 0.498000
H8 H 0.940000 0.026800 0.595400
H9 H 0.676600 0.167800 0.618100
H10 H -0.272700 -0.434300 0.957900
H11 H 1.505600 1.445400 -0.086900
H12 H 0.021800 -0.433800 0.877200
H13 H 1.798500 1.440900 -0.172400
H14 H -0.014300 -0.093400 0.876100
H15 H 1.980000 1.258200 -0.164300
H16 H -0.306100 -0.096100 0.960800
H17 H 1.871100 1.080100 -0.057900
H18 H -0.581600 -0.082700 0.967700
H19 H 1.581600 1.082700 0.032300
H20 H -0.871100 -0.080100 1.057900
H21 H -0.980000 -0.258200 1.164300
H22 H -0.798500 -0.440900 1.172400
H23 H 1.306100 1.096100 0.039200
H24 H -0.505600 -0.445400 1.086900
H25 H 1.014300 1.093400 0.123900
H26 H 0.479300 0.679100 0.310600
H27 H 0.596500 0.756400 0.201300
H28 H 0.978200 1.433800 0.122800
H29 H 0.832100 0.604300 0.216300
H30 H 1.272700 1.434300 0.042100
H31 H 0.666000 0.536800 0.242000
H32 H 0.922200 0.291200 0.605100
H33 H 0.777400 0.476200 0.639600
H34 H 0.709500 0.709800 0.505100
H35 H 0.523700 0.678600 0.502000
H36 H 0.323400 0.832200 0.381900
H37 H 0.060000 0.973200 0.404600
H38 H 0.403500 0.243600 0.798700
C39 C 0.648500 0.677070 0.466030
C40 C 0.323100 0.914960 0.367010
C41 C 0.476800 0.970000 0.328710
C42 C 0.732800 0.550510 0.473090
C43 C 0.792200 0.463360 0.569620
C44 C 0.439800 1.091540 0.313800
C45 C 0.873000 0.359160 0.550500
C46 C 0.553400 1.182530 0.268650
C47 C 0.766500 0.511080 0.383420
C48 C 0.723200 0.583630 0.269540
C49 C 0.784400 1.260860 0.185760
C50 C 1.220600 1.364950 0.058250
C51 C 0.599700 0.697650 0.277250
C52 C 1.045300 1.364630 0.106930
C53 C 0.967000 1.263330 0.132650
C54 C 0.400300 0.302350 0.722750
C55 C 0.276800 0.416370 0.730460
C56 C 0.233500 0.488920 0.616580
C57 C 0.127000 0.640840 0.449500
C58 C 0.207800 0.536640 0.430380
C59 C 0.267200 0.449490 0.526910
C60 C 0.351500 0.322930 0.533970
C61 C 0.825200 0.005610 0.620000
C62 C 0.676900 0.085040 0.632990
C63 C -0.579100 -0.370680 1.080770
C64 C 1.066500 1.162790 0.107010
C65 C -0.753200 -0.368060 1.132410
C66 C 1.240400 1.164510 0.057170
C67 C -0.862100 -0.259800 1.126250
C68 C 1.322400 1.265030 0.032470
C69 C -0.796600 -0.154420 1.064080
C70 C 1.510200 1.264320 -0.019670
C71 C -0.623900 -0.155970 1.010850
C72 C 1.623900 1.155970 -0.010850
C73 C -0.510200 -0.264320 1.019670
C74 C -0.322400 -0.265030 0.967530
C75 C -0.240400 -0.164510 0.942830
C76 C 1.796600 1.154420 -0.064080
C77 C -0.066500 -0.162790 0.892990
C78 C 1.862100 1.259800 -0.126250
C79 C 0.033000 -0.263330 0.867350
C80 C -0.045300 -0.364630 0.893070
C81 C 1.753200 1.368060 -0.132410
C82 C -0.220600 -0.364950 0.941750
C83 C 1.579100 1.370680 -0.080770
C84 C 0.215600 -0.260860 0.814240
C85 C 0.446600 -0.182530 0.731350
C86 C 0.560200 -0.091540 0.686200
C87 C 0.523200 0.030000 0.671290
C88 C 0.174800 0.994390 0.380000
N89 N 0.662040 0.748810 0.347210
N90 N 0.489510 -0.295480 0.742300
N91 N 0.510490 1.295480 0.257700
N92 N 0.336330 -0.347180 0.797320
N93 N 0.663670 1.347180 0.202680
N94 N 0.337960 0.251190 0.652790
O95 O 0.254370 0.079530 0.814490
O96 O 0.205910 0.098910 0.626020
O97 O 0.745630 0.920470 0.185510
O98 O 0.276200 -0.153300 0.773980
O99 O 0.723800 1.153300 0.226020
O100 O 0.794090 0.901090 0.373980
S101 S 0.874790 0.365890 0.415970
S102 S 0.218900 1.135550 0.347160
S103 S 0.311350 0.112720 0.696040
S104 S 0.125210 0.634110 0.584030
S105 S 0.781100 -0.135550 0.652840
S106 S 0.688650 0.887280 0.303960

#END
