
#######################################################################
#
#                 Cambridge Crystallographic Data Centre
#                                CCDC 
#
#######################################################################
#
# If this CIF has been generated from an entry in the Cambridge 
# Structural Database, then it will include bibliographic, chemical, 
# crystal, experimental, refinement or atomic coordinate data resulting 
# from the CCDC's data processing and validation procedures.
#
#######################################################################

data_ABADEP
_symmetry_cell_setting           monoclinic
_symmetry_space_group_name_H-M   'P 21/n'
_symmetry_Int_Tables_number      14
_space_group_name_Hall           '-P 2yn'
loop_
_symmetry_equiv_pos_site_id
_symmetry_equiv_pos_as_xyz
1 x,y,z
2 1/2-x,1/2+y,1/2-z
3 -x,-y,-z
4 1/2+x,1/2-y,1/2+z
_cell_length_a                   10.4883(3)
_cell_length_b                   13.9360(3)
_cell_length_c                   22.6144(7)
_cell_angle_alpha                90
_cell_angle_beta                 97.772(2)
_cell_angle_gamma                90
_cell_volume                     3275.07
loop_
_atom_site_label
_atom_site_type_symbol
_atom_site_fract_x
_atom_site_fract_y
_atom_site_fract_z
Cu1 Cu 0.37495(3) -0.12618(2) 0.06018(2)
P1 P 0.40511(6) -0.24655(4) -0.00294(3)
P2 P 0.26017(6) -0.10910(4) 0.13149(3)
O1 O 0.33360(14) -0.01906(11) -0.00503(7)
O2 O 0.44522(14) 0.06606(10) -0.06440(7)
O3 O 0.28365(15) -0.30326(12) -0.03733(7)
O4 O 0.46575(17) -0.19364(11) -0.05484(7)
O5 O 0.49528(17) -0.34015(12) 0.00834(8)
O6 O 0.32000(14) -0.05991(11) 0.19371(7)
O7 O 0.18728(15) -0.19926(11) 0.15636(7)
O8 O 0.14615(14) -0.03604(11) 0.11265(7)
C1 C 0.4354(2) 0.01324(15) -0.01969(10)
C2 C 0.1560(2) -0.27787(17) -0.03032(10)
C3 C 0.0756(2) -0.35170(18) -0.01870(11)
H1 H 0.1060 -0.4144 -0.0146
C4 C -0.0516(3) -0.3309(2) -0.01318(12)
H2 H -0.1073 -0.3800 -0.0056
C5 C -0.0959(3) -0.2375(2) -0.01886(11)
H3 H -0.1810 -0.2237 -0.0147
C6 C -0.0138(2) -0.16475(18) -0.03069(10)
H4 H -0.0438 -0.1019 -0.0344
C7 C 0.1133(2) -0.18478(17) -0.03705(10)
H5 H 0.1685 -0.1361 -0.0457
C8 C 0.4863(2) -0.22253(17) -0.11226(10)
C9 C 0.5223(2) -0.15029(17) -0.14795(11)
H6 H 0.5327 -0.0879 -0.1335
C10 C 0.5427(3) -0.17154(19) -0.20555(11)
H7 H 0.5673 -0.1232 -0.2300
C11 C 0.5267(2) -0.26437(18) -0.22702(11)
H8 H 0.5390 -0.2783 -0.2661
C12 C 0.4925(2) -0.33579(18) -0.19031(11)
H9 H 0.4828 -0.3983 -0.2046
C13 C 0.4723(2) -0.31574(17) -0.13225(11)
H10 H 0.4499 -0.3642 -0.1073
C14 C 0.5946(2) -0.35612(16) 0.05525(10)
C15 C 0.6445(2) -0.28559(17) 0.09450(11)
H11 H 0.6166 -0.2224 0.0895
C16 C 0.7374(2) -0.31094(18) 0.14171(11)
H12 H 0.7706 -0.2645 0.1691
C17 C 0.7809(2) -0.40411(18) 0.14847(11)
H13 H 0.8417 -0.4207 0.1807
C18 C 0.7337(2) -0.47272(17) 0.10712(11)
H14 H 0.7648 -0.5352 0.1109
C19 C 0.6406(2) -0.44911(16) 0.06007(11)
H15 H 0.6093 -0.4952 0.0321
C20 C 0.4176(2) -0.10716(16) 0.23168(10)
C21 C 0.3847(2) -0.15610(17) 0.28053(10)
H16 H 0.2991 -0.1609 0.2869
C22 C 0.4816(3) -0.19792(18) 0.31993(11)
H17 H 0.4611 -0.2313 0.3530
C23 C 0.6081(2) -0.19017(17) 0.31037(11)
H18 H 0.6727 -0.2178 0.3372
C24 C 0.6395(2) -0.14162(17) 0.26112(11)
H19 H 0.7250 -0.1372 0.2546
C25 C 0.5430(2) -0.09916(17) 0.22117(11)
H20 H 0.5632 -0.0660 0.1880
C26 C 0.2095(2) -0.29592(16) 0.14374(10)
C27 C 0.3323(2) -0.33177(17) 0.14558(11)
H21 H 0.4035 -0.2919 0.1542
C28 C 0.3477(3) -0.42862(18) 0.13430(11)
H22 H 0.4298 -0.4537 0.1341
C29 C 0.2420(3) -0.48775(18) 0.12334(11)
H23 H 0.2530 -0.5528 0.1162
C30 C 0.1199(3) -0.45085(18) 0.12290(12)
H24 H 0.0488 -0.4912 0.1160
C31 C 0.1029(2) -0.35363(17) 0.13269(11)
H25 H 0.0207 -0.3281 0.1318
C32 C 0.0444(2) -0.01349(16) 0.14540(10)
C33 C 0.0643(2) 0.04613(17) 0.19429(11)
H26 H 0.1465 0.0675 0.2090
C34 C -0.0414(2) 0.07338(17) 0.22097(11)
H27 H -0.0300 0.1134 0.2542
C35 C -0.1627(2) 0.04208(18) 0.19911(11)
H28 H -0.2330 0.0611 0.2173
C36 C -0.1801(2) -0.0176(2) 0.15008(11)
H29 H -0.2624 -0.0387 0.1353
C37 C -0.0763(2) -0.04648(19) 0.12260(11)
H30 H -0.0876 -0.0870 0.0897
O1B O 0.66640(14) 0.01906(11) 0.00503(7)
C1B C 0.5646(2) -0.01324(15) 0.01969(10)
O2B O 0.55478(14) -0.06606(10) 0.06440(7)
Cu1B Cu 0.62505(3) 0.12618(2) -0.06018(2)
P1B P 0.59489(6) 0.24655(4) 0.00294(3)
P2B P 0.73983(6) 0.10910(4) -0.13149(3)
O3B O 0.71635(15) 0.30326(12) 0.03733(7)
O4B O 0.53425(17) 0.19364(11) 0.05484(7)
O5B O 0.50472(17) 0.34015(12) -0.00834(8)
O6B O 0.68000(14) 0.05991(11) -0.19371(7)
O7B O 0.81272(15) 0.19926(11) -0.15636(7)
O8B O 0.85385(14) 0.03604(11) -0.11265(7)
C2B C 0.8440(2) 0.27787(17) 0.03032(10)
C3B C 0.9244(2) 0.35170(18) 0.01870(11)
H1B H 0.8940 0.4144 0.0146
C4B C 1.0516(3) 0.3309(2) 0.01318(12)
H2B H 1.1073 0.3800 0.0056
C5B C 1.0959(3) 0.2375(2) 0.01886(11)
H3B H 1.1810 0.2237 0.0147
C6B C 1.0138(2) 0.16475(18) 0.03069(10)
H4B H 1.0438 0.1019 0.0344
C7B C 0.8867(2) 0.18478(17) 0.03705(10)
H5B H 0.8315 0.1361 0.0457
C8B C 0.5137(2) 0.22253(17) 0.11226(10)
C9B C 0.4777(2) 0.15029(17) 0.14795(11)
H6B H 0.4673 0.0879 0.1335
C10B C 0.4573(3) 0.17154(19) 0.20555(11)
H7B H 0.4327 0.1232 0.2300
C11B C 0.4733(2) 0.26437(18) 0.22702(11)
H8B H 0.4610 0.2783 0.2661
C12B C 0.5075(2) 0.33579(18) 0.19031(11)
H9B H 0.5172 0.3983 0.2046
C13B C 0.5277(2) 0.31574(17) 0.13225(11)
H10B H 0.5501 0.3642 0.1073
C14B C 0.4054(2) 0.35612(16) -0.05525(10)
C15B C 0.3555(2) 0.28559(17) -0.09450(11)
H11B H 0.3834 0.2224 -0.0895
C16B C 0.2626(2) 0.31094(18) -0.14171(11)
H12B H 0.2294 0.2645 -0.1691
C17B C 0.2191(2) 0.40411(18) -0.14847(11)
H13B H 0.1583 0.4207 -0.1807
C18B C 0.2663(2) 0.47272(17) -0.10712(11)
H14B H 0.2352 0.5352 -0.1109
C19B C 0.3594(2) 0.44911(16) -0.06007(11)
H15B H 0.3907 0.4952 -0.0321
C20B C 0.5824(2) 0.10716(16) -0.23168(10)
C21B C 0.6153(2) 0.15610(17) -0.28053(10)
H16B H 0.7009 0.1609 -0.2869
C22B C 0.5184(3) 0.19792(18) -0.31993(11)
H17B H 0.5389 0.2313 -0.3530
C23B C 0.3919(2) 0.19017(17) -0.31037(11)
H18B H 0.3273 0.2178 -0.3372
C24B C 0.3605(2) 0.14162(17) -0.26112(11)
H19B H 0.2750 0.1372 -0.2546
C25B C 0.4570(2) 0.09916(17) -0.22117(11)
H20B H 0.4368 0.0660 -0.1880
C26B C 0.7905(2) 0.29592(16) -0.14374(10)
C27B C 0.6677(2) 0.33177(17) -0.14558(11)
H21B H 0.5965 0.2919 -0.1542
C28B C 0.6523(3) 0.42862(18) -0.13430(11)
H22B H 0.5702 0.4537 -0.1341
C29B C 0.7580(3) 0.48775(18) -0.12334(11)
H23B H 0.7470 0.5528 -0.1162
C30B C 0.8801(3) 0.45085(18) -0.12290(12)
H24B H 0.9512 0.4912 -0.1160
C31B C 0.8971(2) 0.35363(17) -0.13269(11)
H25B H 0.9793 0.3281 -0.1318
C32B C 0.9556(2) 0.01349(16) -0.14540(10)
C33B C 0.9357(2) -0.04613(17) -0.19429(11)
H26B H 0.8535 -0.0675 -0.2090
C34B C 1.0414(2) -0.07338(17) -0.22097(11)
H27B H 1.0300 -0.1134 -0.2542
C35B C 1.1627(2) -0.04208(18) -0.19911(11)
H28B H 1.2330 -0.0611 -0.2173
C36B C 1.1801(2) 0.0176(2) -0.15008(11)
H29B H 1.2624 0.0387 -0.1353
C37B C 1.0763(2) 0.04648(19) -0.12260(11)
H30B H 1.0876 0.0870 -0.0897
Cu1 Cu 0.37495(3) -0.12618(2) 1.06018(2)
P1 P 0.40511(6) -0.24655(4) 0.99706(3)
P2 P 0.26017(6) -0.10910(4) 1.13149(3)
O1 O 0.33360(14) -0.01906(11) 0.99497(7)
O2 O 0.44522(14) 0.06606(10) 0.93560(7)
O3 O 0.28365(15) -0.30326(12) 0.96267(7)
O4 O 0.46575(17) -0.19364(11) 0.94516(7)
O5 O 0.49528(17) -0.34015(12) 1.00834(8)
O6 O 0.32000(14) -0.05991(11) 1.19371(7)
O7 O 0.18728(15) -0.19926(11) 1.15636(7)
O8 O 0.14615(14) -0.03604(11) 1.11265(7)
C1 C 0.4354(2) 0.01324(15) 0.98031(10)
C2 C 0.1560(2) -0.27787(17) 0.96968(10)
C3 C 0.0756(2) -0.35170(18) 0.98130(11)
H1 H 0.1060 -0.4144 0.9854
C4 C -0.0516(3) -0.3309(2) 0.98682(12)
H2 H -0.1073 -0.3800 0.9944
C5 C -0.0959(3) -0.2375(2) 0.98114(11)
H3 H -0.1810 -0.2237 0.9853
C6 C -0.0138(2) -0.16475(18) 0.96931(10)
H4 H -0.0438 -0.1019 0.9656
C7 C 0.1133(2) -0.18478(17) 0.96295(10)
H5 H 0.1685 -0.1361 0.9543
C8 C 0.4863(2) -0.22253(17) 0.88774(10)
C9 C 0.5223(2) -0.15029(17) 0.85205(11)
H6 H 0.5327 -0.0879 0.8665
C10 C 0.5427(3) -0.17154(19) 0.79445(11)
H7 H 0.5673 -0.1232 0.7700
C11 C 0.5267(2) -0.26437(18) 0.77298(11)
H8 H 0.5390 -0.2783 0.7339
C12 C 0.4925(2) -0.33579(18) 0.80969(11)
H9 H 0.4828 -0.3983 0.7954
C13 C 0.4723(2) -0.31574(17) 0.86775(11)
H10 H 0.4499 -0.3642 0.8927
C14 C 0.5946(2) -0.35612(16) 1.05525(10)
C15 C 0.6445(2) -0.28559(17) 1.09450(11)
H11 H 0.6166 -0.2224 1.0895
C16 C 0.7374(2) -0.31094(18) 1.14171(11)
H12 H 0.7706 -0.2645 1.1691
C17 C 0.7809(2) -0.40411(18) 1.14847(11)
H13 H 0.8417 -0.4207 1.1807
C18 C 0.7337(2) -0.47272(17) 1.10712(11)
H14 H 0.7648 -0.5352 1.1109
C19 C 0.6406(2) -0.44911(16) 1.06007(11)
H15 H 0.6093 -0.4952 1.0321
C20 C 0.4176(2) -0.10716(16) 1.23168(10)
C21 C 0.3847(2) -0.15610(17) 1.28053(10)
H16 H 0.2991 -0.1609 1.2869
C22 C 0.4816(3) -0.19792(18) 1.31993(11)
H17 H 0.4611 -0.2313 1.3530
C23 C 0.6081(2) -0.19017(17) 1.31037(11)
H18 H 0.6727 -0.2178 1.3372
C24 C 0.6395(2) -0.14162(17) 1.26112(11)
H19 H 0.7250 -0.1372 1.2546
C25 C 0.5430(2) -0.09916(17) 1.22117(11)
H20 H 0.5632 -0.0660 1.1880
C26 C 0.2095(2) -0.29592(16) 1.14374(10)
C27 C 0.3323(2) -0.33177(17) 1.14558(11)
H21 H 0.4035 -0.2919 1.1542
C28 C 0.3477(3) -0.42862(18) 1.13430(11)
H22 H 0.4298 -0.4537 1.1341
C29 C 0.2420(3) -0.48775(18) 1.12334(11)
H23 H 0.2530 -0.5528 1.1162
C30 C 0.1199(3) -0.45085(18) 1.12290(12)
H24 H 0.0488 -0.4912 1.1160
C31 C 0.1029(2) -0.35363(17) 1.13269(11)
H25 H 0.0207 -0.3281 1.1318
C32 C 0.0444(2) -0.01349(16) 1.14540(10)
C33 C 0.0643(2) 0.04613(17) 1.19429(11)
H26 H 0.1465 0.0675 1.2090
C34 C -0.0414(2) 0.07338(17) 1.22097(11)
H27 H -0.0300 0.1134 1.2542
C35 C -0.1627(2) 0.04208(18) 1.19911(11)
H28 H -0.2330 0.0611 1.2173
C36 C -0.1801(2) -0.0176(2) 1.15008(11)
H29 H -0.2624 -0.0387 1.1353
C37 C -0.0763(2) -0.04648(19) 1.12260(11)
H30 H -0.0876 -0.0870 1.0897
O1B O 0.66640(14) 0.01906(11) 1.00503(7)
C1B C 0.5646(2) -0.01324(15) 1.01969(10)
O2B O 0.55478(14) -0.06606(10) 1.06440(7)
Cu1B Cu 0.62505(3) 0.12618(2) 0.93982(2)
P1B P 0.59489(6) 0.24655(4) 1.00294(3)
P2B P 0.73983(6) 0.10910(4) 0.86851(3)
O3B O 0.71635(15) 0.30326(12) 1.03733(7)
O4B O 0.53425(17) 0.19364(11) 1.05484(7)
O5B O 0.50472(17) 0.34015(12) 0.99166(8)
O6B O 0.68000(14) 0.05991(11) 0.80629(7)
O7B O 0.81272(15) 0.19926(11) 0.84364(7)
O8B O 0.85385(14) 0.03604(11) 0.88735(7)
C2B C 0.8440(2) 0.27787(17) 1.03032(10)
C3B C 0.9244(2) 0.35170(18) 1.01870(11)
H1B H 0.8940 0.4144 1.0146
C4B C 1.0516(3) 0.3309(2) 1.01318(12)
H2B H 1.1073 0.3800 1.0056
C5B C 1.0959(3) 0.2375(2) 1.01886(11)
H3B H 1.1810 0.2237 1.0147
C6B C 1.0138(2) 0.16475(18) 1.03069(10)
H4B H 1.0438 0.1019 1.0344
C7B C 0.8867(2) 0.18478(17) 1.03705(10)
H5B H 0.8315 0.1361 1.0457
C8B C 0.5137(2) 0.22253(17) 1.11226(10)
C9B C 0.4777(2) 0.15029(17) 1.14795(11)
H6B H 0.4673 0.0879 1.1335
C10B C 0.4573(3) 0.17154(19) 1.20555(11)
H7B H 0.4327 0.1232 1.2300
C11B C 0.4733(2) 0.26437(18) 1.22702(11)
H8B H 0.4610 0.2783 1.2661
C12B C 0.5075(2) 0.33579(18) 1.19031(11)
H9B H 0.5172 0.3983 1.2046
C13B C 0.5277(2) 0.31574(17) 1.13225(11)
H10B H 0.5501 0.3642 1.1073
C14B C 0.4054(2) 0.35612(16) 0.94475(10)
C15B C 0.3555(2) 0.28559(17) 0.90550(11)
H11B H 0.3834 0.2224 0.9105
C16B C 0.2626(2) 0.31094(18) 0.85829(11)
H12B H 0.2294 0.2645 0.8309
C17B C 0.2191(2) 0.40411(18) 0.85153(11)
H13B H 0.1583 0.4207 0.8193
C18B C 0.2663(2) 0.47272(17) 0.89288(11)
H14B H 0.2352 0.5352 0.8891
C19B C 0.3594(2) 0.44911(16) 0.93993(11)
H15B H 0.3907 0.4952 0.9679
C20B C 0.5824(2) 0.10716(16) 0.76832(10)
C21B C 0.6153(2) 0.15610(17) 0.71947(10)
H16B H 0.7009 0.1609 0.7131
C22B C 0.5184(3) 0.19792(18) 0.68007(11)
H17B H 0.5389 0.2313 0.6470
C23B C 0.3919(2) 0.19017(17) 0.68963(11)
H18B H 0.3273 0.2178 0.6628
C24B C 0.3605(2) 0.14162(17) 0.73888(11)
H19B H 0.2750 0.1372 0.7454
C25B C 0.4570(2) 0.09916(17) 0.77883(11)
H20B H 0.4368 0.0660 0.8120
C26B C 0.7905(2) 0.29592(16) 0.85626(10)
C27B C 0.6677(2) 0.33177(17) 0.85442(11)
H21B H 0.5965 0.2919 0.8458
C28B C 0.6523(3) 0.42862(18) 0.86570(11)
H22B H 0.5702 0.4537 0.8659
C29B C 0.7580(3) 0.48775(18) 0.87666(11)
H23B H 0.7470 0.5528 0.8838
C30B C 0.8801(3) 0.45085(18) 0.87710(12)
H24B H 0.9512 0.4912 0.8840
C31B C 0.8971(2) 0.35363(17) 0.86731(11)
H25B H 0.9793 0.3281 0.8682
C32B C 0.9556(2) 0.01349(16) 0.85460(10)
C33B C 0.9357(2) -0.04613(17) 0.80571(11)
H26B H 0.8535 -0.0675 0.7910
C34B C 1.0414(2) -0.07338(17) 0.77903(11)
H27B H 1.0300 -0.1134 0.7458
C35B C 1.1627(2) -0.04208(18) 0.80089(11)
H28B H 1.2330 -0.0611 0.7827
C36B C 1.1801(2) 0.0176(2) 0.84992(11)
H29B H 1.2624 0.0387 0.8647
C37B C 1.0763(2) 0.04648(19) 0.87740(11)
H30B H 1.0876 0.0870 0.9103
Cu1 Cu 0.37495(3) 0.87382(2) 0.06018(2)
P1 P 0.40511(6) 0.75345(4) -0.00294(3)
P2 P 0.26017(6) 0.89090(4) 0.13149(3)
O1 O 0.33360(14) 0.98094(11) -0.00503(7)
O2 O 0.44522(14) 1.06606(10) -0.06440(7)
O3 O 0.28365(15) 0.69674(12) -0.03733(7)
O4 O 0.46575(17) 0.80636(11) -0.05484(7)
O5 O 0.49528(17) 0.65985(12) 0.00834(8)
O6 O 0.32000(14) 0.94009(11) 0.19371(7)
O7 O 0.18728(15) 0.80074(11) 0.15636(7)
O8 O 0.14615(14) 0.96396(11) 0.11265(7)
C1 C 0.4354(2) 1.01324(15) -0.01969(10)
C2 C 0.1560(2) 0.72213(17) -0.03032(10)
C3 C 0.0756(2) 0.64830(18) -0.01870(11)
H1 H 0.1060 0.5856 -0.0146
C4 C -0.0516(3) 0.6691(2) -0.01318(12)
H2 H -0.1073 0.6200 -0.0056
C5 C -0.0959(3) 0.7625(2) -0.01886(11)
H3 H -0.1810 0.7763 -0.0147
C6 C -0.0138(2) 0.83525(18) -0.03069(10)
H4 H -0.0438 0.8981 -0.0344
C7 C 0.1133(2) 0.81522(17) -0.03705(10)
H5 H 0.1685 0.8639 -0.0457
C8 C 0.4863(2) 0.77747(17) -0.11226(10)
C9 C 0.5223(2) 0.84971(17) -0.14795(11)
H6 H 0.5327 0.9121 -0.1335
C10 C 0.5427(3) 0.82846(19) -0.20555(11)
H7 H 0.5673 0.8768 -0.2300
C11 C 0.5267(2) 0.73563(18) -0.22702(11)
H8 H 0.5390 0.7217 -0.2661
C12 C 0.4925(2) 0.66421(18) -0.19031(11)
H9 H 0.4828 0.6017 -0.2046
C13 C 0.4723(2) 0.68426(17) -0.13225(11)
H10 H 0.4499 0.6358 -0.1073
C14 C 0.5946(2) 0.64388(16) 0.05525(10)
C15 C 0.6445(2) 0.71441(17) 0.09450(11)
H11 H 0.6166 0.7776 0.0895
C16 C 0.7374(2) 0.68906(18) 0.14171(11)
H12 H 0.7706 0.7355 0.1691
C17 C 0.7809(2) 0.59589(18) 0.14847(11)
H13 H 0.8417 0.5793 0.1807
C18 C 0.7337(2) 0.52728(17) 0.10712(11)
H14 H 0.7648 0.4648 0.1109
C19 C 0.6406(2) 0.55089(16) 0.06007(11)
H15 H 0.6093 0.5048 0.0321
C20 C 0.4176(2) 0.89284(16) 0.23168(10)
C21 C 0.3847(2) 0.84390(17) 0.28053(10)
H16 H 0.2991 0.8391 0.2869
C22 C 0.4816(3) 0.80208(18) 0.31993(11)
H17 H 0.4611 0.7687 0.3530
C23 C 0.6081(2) 0.80983(17) 0.31037(11)
H18 H 0.6727 0.7822 0.3372
C24 C 0.6395(2) 0.85838(17) 0.26112(11)
H19 H 0.7250 0.8628 0.2546
C25 C 0.5430(2) 0.90084(17) 0.22117(11)
H20 H 0.5632 0.9340 0.1880
C26 C 0.2095(2) 0.70408(16) 0.14374(10)
C27 C 0.3323(2) 0.66823(17) 0.14558(11)
H21 H 0.4035 0.7081 0.1542
C28 C 0.3477(3) 0.57138(18) 0.13430(11)
H22 H 0.4298 0.5463 0.1341
C29 C 0.2420(3) 0.51225(18) 0.12334(11)
H23 H 0.2530 0.4472 0.1162
C30 C 0.1199(3) 0.54915(18) 0.12290(12)
H24 H 0.0488 0.5088 0.1160
C31 C 0.1029(2) 0.64637(17) 0.13269(11)
H25 H 0.0207 0.6719 0.1318
C32 C 0.0444(2) 0.98651(16) 0.14540(10)
C33 C 0.0643(2) 1.04613(17) 0.19429(11)
H26 H 0.1465 1.0675 0.2090
C34 C -0.0414(2) 1.07338(17) 0.22097(11)
H27 H -0.0300 1.1134 0.2542
C35 C -0.1627(2) 1.04208(18) 0.19911(11)
H28 H -0.2330 1.0611 0.2173
C36 C -0.1801(2) 0.9824(2) 0.15008(11)
H29 H -0.2624 0.9613 0.1353
C37 C -0.0763(2) 0.95352(19) 0.12260(11)
H30 H -0.0876 0.9130 0.0897
O1B O 0.66640(14) 1.01906(11) 0.00503(7)
C1B C 0.5646(2) 0.98676(15) 0.01969(10)
O2B O 0.55478(14) 0.93394(10) 0.06440(7)
Cu1B Cu 0.62505(3) 1.12618(2) -0.06018(2)
P1B P 0.59489(6) 1.24655(4) 0.00294(3)
P2B P 0.73983(6) 1.10910(4) -0.13149(3)
O3B O 0.71635(15) 1.30326(12) 0.03733(7)
O4B O 0.53425(17) 1.19364(11) 0.05484(7)
O5B O 0.50472(17) 1.34015(12) -0.00834(8)
O6B O 0.68000(14) 1.05991(11) -0.19371(7)
O7B O 0.81272(15) 1.19926(11) -0.15636(7)
O8B O 0.85385(14) 1.03604(11) -0.11265(7)
C2B C 0.8440(2) 1.27787(17) 0.03032(10)
C3B C 0.9244(2) 1.35170(18) 0.01870(11)
H1B H 0.8940 1.4144 0.0146
C4B C 1.0516(3) 1.3309(2) 0.01318(12)
H2B H 1.1073 1.3800 0.0056
C5B C 1.0959(3) 1.2375(2) 0.01886(11)
H3B H 1.1810 1.2237 0.0147
C6B C 1.0138(2) 1.16475(18) 0.03069(10)
H4B H 1.0438 1.1019 0.0344
C7B C 0.8867(2) 1.18478(17) 0.03705(10)
H5B H 0.8315 1.1361 0.0457
C8B C 0.5137(2) 1.22253(17) 0.11226(10)
C9B C 0.4777(2) 1.15029(17) 0.14795(11)
H6B H 0.4673 1.0879 0.1335
C10B C 0.4573(3) 1.17154(19) 0.20555(11)
H7B H 0.4327 1.1232 0.2300
C11B C 0.4733(2) 1.26437(18) 0.22702(11)
H8B H 0.4610 1.2783 0.2661
C12B C 0.5075(2) 1.33579(18) 0.19031(11)
H9B H 0.5172 1.3983 0.2046
C13B C 0.5277(2) 1.31574(17) 0.13225(11)
H10B H 0.5501 1.3642 0.1073
C14B C 0.4054(2) 1.35612(16) -0.05525(10)
C15B C 0.3555(2) 1.28559(17) -0.09450(11)
H11B H 0.3834 1.2224 -0.0895
C16B C 0.2626(2) 1.31094(18) -0.14171(11)
H12B H 0.2294 1.2645 -0.1691
C17B C 0.2191(2) 1.40411(18) -0.14847(11)
H13B H 0.1583 1.4207 -0.1807
C18B C 0.2663(2) 1.47272(17) -0.10712(11)
H14B H 0.2352 1.5352 -0.1109
C19B C 0.3594(2) 1.44911(16) -0.06007(11)
H15B H 0.3907 1.4952 -0.0321
C20B C 0.5824(2) 1.10716(16) -0.23168(10)
C21B C 0.6153(2) 1.15610(17) -0.28053(10)
H16B H 0.7009 1.1609 -0.2869
C22B C 0.5184(3) 1.19792(18) -0.31993(11)
H17B H 0.5389 1.2313 -0.3530
C23B C 0.3919(2) 1.19017(17) -0.31037(11)
H18B H 0.3273 1.2178 -0.3372
C24B C 0.3605(2) 1.14162(17) -0.26112(11)
H19B H 0.2750 1.1372 -0.2546
C25B C 0.4570(2) 1.09916(17) -0.22117(11)
H20B H 0.4368 1.0660 -0.1880
C26B C 0.7905(2) 1.29592(16) -0.14374(10)
C27B C 0.6677(2) 1.33177(17) -0.14558(11)
H21B H 0.5965 1.2919 -0.1542
C28B C 0.6523(3) 1.42862(18) -0.13430(11)
H22B H 0.5702 1.4537 -0.1341
C29B C 0.7580(3) 1.48775(18) -0.12334(11)
H23B H 0.7470 1.5528 -0.1162
C30B C 0.8801(3) 1.45085(18) -0.12290(12)
H24B H 0.9512 1.4912 -0.1160
C31B C 0.8971(2) 1.35363(17) -0.13269(11)
H25B H 0.9793 1.3281 -0.1318
C32B C 0.9556(2) 1.01349(16) -0.14540(10)
C33B C 0.9357(2) 0.95387(17) -0.19429(11)
H26B H 0.8535 0.9325 -0.2090
C34B C 1.0414(2) 0.92662(17) -0.22097(11)
H27B H 1.0300 0.8866 -0.2542
C35B C 1.1627(2) 0.95792(18) -0.19911(11)
H28B H 1.2330 0.9389 -0.2173
C36B C 1.1801(2) 1.0176(2) -0.15008(11)
H29B H 1.2624 1.0387 -0.1353
C37B C 1.0763(2) 1.04648(19) -0.12260(11)
H30B H 1.0876 1.0870 -0.0897
Cu1 Cu 0.37495(3) 0.87382(2) 1.06018(2)
P1 P 0.40511(6) 0.75345(4) 0.99706(3)
P2 P 0.26017(6) 0.89090(4) 1.13149(3)
O1 O 0.33360(14) 0.98094(11) 0.99497(7)
O2 O 0.44522(14) 1.06606(10) 0.93560(7)
O3 O 0.28365(15) 0.69674(12) 0.96267(7)
O4 O 0.46575(17) 0.80636(11) 0.94516(7)
O5 O 0.49528(17) 0.65985(12) 1.00834(8)
O6 O 0.32000(14) 0.94009(11) 1.19371(7)
O7 O 0.18728(15) 0.80074(11) 1.15636(7)
O8 O 0.14615(14) 0.96396(11) 1.11265(7)
C1 C 0.4354(2) 1.01324(15) 0.98031(10)
C2 C 0.1560(2) 0.72213(17) 0.96968(10)
C3 C 0.0756(2) 0.64830(18) 0.98130(11)
H1 H 0.1060 0.5856 0.9854
C4 C -0.0516(3) 0.6691(2) 0.98682(12)
H2 H -0.1073 0.6200 0.9944
C5 C -0.0959(3) 0.7625(2) 0.98114(11)
H3 H -0.1810 0.7763 0.9853
C6 C -0.0138(2) 0.83525(18) 0.96931(10)
H4 H -0.0438 0.8981 0.9656
C7 C 0.1133(2) 0.81522(17) 0.96295(10)
H5 H 0.1685 0.8639 0.9543
C8 C 0.4863(2) 0.77747(17) 0.88774(10)
C9 C 0.5223(2) 0.84971(17) 0.85205(11)
H6 H 0.5327 0.9121 0.8665
C10 C 0.5427(3) 0.82846(19) 0.79445(11)
H7 H 0.5673 0.8768 0.7700
C11 C 0.5267(2) 0.73563(18) 0.77298(11)
H8 H 0.5390 0.7217 0.7339
C12 C 0.4925(2) 0.66421(18) 0.80969(11)
H9 H 0.4828 0.6017 0.7954
C13 C 0.4723(2) 0.68426(17) 0.86775(11)
H10 H 0.4499 0.6358 0.8927
C14 C 0.5946(2) 0.64388(16) 1.05525(10)
C15 C 0.6445(2) 0.71441(17) 1.09450(11)
H11 H 0.6166 0.7776 1.0895
C16 C 0.7374(2) 0.68906(18) 1.14171(11)
H12 H 0.7706 0.7355 1.1691
C17 C 0.7809(2) 0.59589(18) 1.14847(11)
H13 H 0.8417 0.5793 1.1807
C18 C 0.7337(2) 0.52728(17) 1.10712(11)
H14 H 0.7648 0.4648 1.1109
C19 C 0.6406(2) 0.55089(16) 1.06007(11)
H15 H 0.6093 0.5048 1.0321
C20 C 0.4176(2) 0.89284(16) 1.23168(10)
C21 C 0.3847(2) 0.84390(17) 1.28053(10)
H16 H 0.2991 0.8391 1.2869
C22 C 0.4816(3) 0.80208(18) 1.31993(11)
H17 H 0.4611 0.7687 1.3530
C23 C 0.6081(2) 0.80983(17) 1.31037(11)
H18 H 0.6727 0.7822 1.3372
C24 C 0.6395(2) 0.85838(17) 1.26112(11)
H19 H 0.7250 0.8628 1.2546
C25 C 0.5430(2) 0.90084(17) 1.22117(11)
H20 H 0.5632 0.9340 1.1880
C26 C 0.2095(2) 0.70408(16) 1.14374(10)
C27 C 0.3323(2) 0.66823(17) 1.14558(11)
H21 H 0.4035 0.7081 1.1542
C28 C 0.3477(3) 0.57138(18) 1.13430(11)
H22 H 0.4298 0.5463 1.1341
C29 C 0.2420(3) 0.51225(18) 1.12334(11)
H23 H 0.2530 0.4472 1.1162
C30 C 0.1199(3) 0.54915(18) 1.12290(12)
H24 H 0.0488 0.5088 1.1160
C31 C 0.1029(2) 0.64637(17) 1.13269(11)
H25 H 0.0207 0.6719 1.1318
C32 C 0.0444(2) 0.98651(16) 1.14540(10)
C33 C 0.0643(2) 1.04613(17) 1.19429(11)
H26 H 0.1465 1.0675 1.2090
C34 C -0.0414(2) 1.07338(17) 1.22097(11)
H27 H -0.0300 1.1134 1.2542
C35 C -0.1627(2) 1.04208(18) 1.19911(11)
H28 H -0.2330 1.0611 1.2173
C36 C -0.1801(2) 0.9824(2) 1.15008(11)
H29 H -0.2624 0.9613 1.1353
C37 C -0.0763(2) 0.95352(19) 1.12260(11)
H30 H -0.0876 0.9130 1.0897
O1B O 0.66640(14) 1.01906(11) 1.00503(7)
C1B C 0.5646(2) 0.98676(15) 1.01969(10)
O2B O 0.55478(14) 0.93394(10) 1.06440(7)
Cu1B Cu 0.62505(3) 1.12618(2) 0.93982(2)
P1B P 0.59489(6) 1.24655(4) 1.00294(3)
P2B P 0.73983(6) 1.10910(4) 0.86851(3)
O3B O 0.71635(15) 1.30326(12) 1.03733(7)
O4B O 0.53425(17) 1.19364(11) 1.05484(7)
O5B O 0.50472(17) 1.34015(12) 0.99166(8)
O6B O 0.68000(14) 1.05991(11) 0.80629(7)
O7B O 0.81272(15) 1.19926(11) 0.84364(7)
O8B O 0.85385(14) 1.03604(11) 0.88735(7)
C2B C 0.8440(2) 1.27787(17) 1.03032(10)
C3B C 0.9244(2) 1.35170(18) 1.01870(11)
H1B H 0.8940 1.4144 1.0146
C4B C 1.0516(3) 1.3309(2) 1.01318(12)
H2B H 1.1073 1.3800 1.0056
C5B C 1.0959(3) 1.2375(2) 1.01886(11)
H3B H 1.1810 1.2237 1.0147
C6B C 1.0138(2) 1.16475(18) 1.03069(10)
H4B H 1.0438 1.1019 1.0344
C7B C 0.8867(2) 1.18478(17) 1.03705(10)
H5B H 0.8315 1.1361 1.0457
C8B C 0.5137(2) 1.22253(17) 1.11226(10)
C9B C 0.4777(2) 1.15029(17) 1.14795(11)
H6B H 0.4673 1.0879 1.1335
C10B C 0.4573(3) 1.17154(19) 1.20555(11)
H7B H 0.4327 1.1232 1.2300
C11B C 0.4733(2) 1.26437(18) 1.22702(11)
H8B H 0.4610 1.2783 1.2661
C12B C 0.5075(2) 1.33579(18) 1.19031(11)
H9B H 0.5172 1.3983 1.2046
C13B C 0.5277(2) 1.31574(17) 1.13225(11)
H10B H 0.5501 1.3642 1.1073
C14B C 0.4054(2) 1.35612(16) 0.94475(10)
C15B C 0.3555(2) 1.28559(17) 0.90550(11)
H11B H 0.3834 1.2224 0.9105
C16B C 0.2626(2) 1.31094(18) 0.85829(11)
H12B H 0.2294 1.2645 0.8309
C17B C 0.2191(2) 1.40411(18) 0.85153(11)
H13B H 0.1583 1.4207 0.8193
C18B C 0.2663(2) 1.47272(17) 0.89288(11)
H14B H 0.2352 1.5352 0.8891
C19B C 0.3594(2) 1.44911(16) 0.93993(11)
H15B H 0.3907 1.4952 0.9679
C20B C 0.5824(2) 1.10716(16) 0.76832(10)
C21B C 0.6153(2) 1.15610(17) 0.71947(10)
H16B H 0.7009 1.1609 0.7131
C22B C 0.5184(3) 1.19792(18) 0.68007(11)
H17B H 0.5389 1.2313 0.6470
C23B C 0.3919(2) 1.19017(17) 0.68963(11)
H18B H 0.3273 1.2178 0.6628
C24B C 0.3605(2) 1.14162(17) 0.73888(11)
H19B H 0.2750 1.1372 0.7454
C25B C 0.4570(2) 1.09916(17) 0.77883(11)
H20B H 0.4368 1.0660 0.8120
C26B C 0.7905(2) 1.29592(16) 0.85626(10)
C27B C 0.6677(2) 1.33177(17) 0.85442(11)
H21B H 0.5965 1.2919 0.8458
C28B C 0.6523(3) 1.42862(18) 0.86570(11)
H22B H 0.5702 1.4537 0.8659
C29B C 0.7580(3) 1.48775(18) 0.87666(11)
H23B H 0.7470 1.5528 0.8838
C30B C 0.8801(3) 1.45085(18) 0.87710(12)
H24B H 0.9512 1.4912 0.8840
C31B C 0.8971(2) 1.35363(17) 0.86731(11)
H25B H 0.9793 1.3281 0.8682
C32B C 0.9556(2) 1.01349(16) 0.85460(10)
C33B C 0.9357(2) 0.95387(17) 0.80571(11)
H26B H 0.8535 0.9325 0.7910
C34B C 1.0414(2) 0.92662(17) 0.77903(11)
H27B H 1.0300 0.8866 0.7458
C35B C 1.1627(2) 0.95792(18) 0.80089(11)
H28B H 1.2330 0.9389 0.7827
C36B C 1.1801(2) 1.0176(2) 0.84992(11)
H29B H 1.2624 1.0387 0.8647
C37B C 1.0763(2) 1.04648(19) 0.87740(11)
H30B H 1.0876 1.0870 0.9103
Cu1 Cu 0.12505(3) 0.37382(2) 0.43982(2)
P1 P 0.09489(6) 0.25345(4) 0.50294(3)
P2 P 0.23983(6) 0.39090(4) 0.36851(3)
O1 O 0.16640(14) 0.48094(11) 0.50503(7)
O2 O 0.05478(14) 0.56606(10) 0.56440(7)
O3 O 0.21635(15) 0.19674(12) 0.53733(7)
O4 O 0.03425(17) 0.30636(11) 0.55484(7)
O5 O 0.00472(17) 0.15985(12) 0.49166(8)
O6 O 0.18000(14) 0.44009(11) 0.30629(7)
O7 O 0.31272(15) 0.30074(11) 0.34364(7)
O8 O 0.35385(14) 0.46396(11) 0.38735(7)
C1 C 0.0646(2) 0.51324(15) 0.51969(10)
C2 C 0.3440(2) 0.22213(17) 0.53032(10)
C3 C 0.4244(2) 0.14830(18) 0.51870(11)
H1 H 0.3940 0.0856 0.5146
C4 C 0.5516(3) 0.1691(2) 0.51318(12)
H2 H 0.6073 0.1200 0.5056
C5 C 0.5959(3) 0.2625(2) 0.51886(11)
H3 H 0.6810 0.2763 0.5147
C6 C 0.5138(2) 0.33525(18) 0.53069(10)
H4 H 0.5438 0.3981 0.5344
C7 C 0.3867(2) 0.31522(17) 0.53705(10)
H5 H 0.3315 0.3639 0.5457
C8 C 0.0137(2) 0.27747(17) 0.61226(10)
C9 C -0.0223(2) 0.34971(17) 0.64795(11)
H6 H -0.0327 0.4121 0.6335
C10 C -0.0427(3) 0.32846(19) 0.70555(11)
H7 H -0.0673 0.3768 0.7300
C11 C -0.0267(2) 0.23563(18) 0.72702(11)
H8 H -0.0390 0.2217 0.7661
C12 C 0.0075(2) 0.16421(18) 0.69031(11)
H9 H 0.0172 0.1017 0.7046
C13 C 0.0277(2) 0.18426(17) 0.63225(11)
H10 H 0.0501 0.1358 0.6073
C14 C -0.0946(2) 0.14388(16) 0.44475(10)
C15 C -0.1445(2) 0.21441(17) 0.40550(11)
H11 H -0.1166 0.2776 0.4105
C16 C -0.2374(2) 0.18906(18) 0.35829(11)
H12 H -0.2706 0.2355 0.3309
C17 C -0.2809(2) 0.09589(18) 0.35153(11)
H13 H -0.3417 0.0793 0.3193
C18 C -0.2337(2) 0.02728(17) 0.39288(11)
H14 H -0.2648 -0.0352 0.3891
C19 C -0.1406(2) 0.05089(16) 0.43993(11)
H15 H -0.1093 0.0048 0.4679
C20 C 0.0824(2) 0.39284(16) 0.26832(10)
C21 C 0.1153(2) 0.34390(17) 0.21947(10)
H16 H 0.2009 0.3391 0.2131
C22 C 0.0184(3) 0.30208(18) 0.18007(11)
H17 H 0.0389 0.2687 0.1470
C23 C -0.1081(2) 0.30983(17) 0.18963(11)
H18 H -0.1727 0.2822 0.1628
C24 C -0.1395(2) 0.35838(17) 0.23888(11)
H19 H -0.2250 0.3628 0.2454
C25 C -0.0430(2) 0.40084(17) 0.27883(11)
H20 H -0.0632 0.4340 0.3120
C26 C 0.2905(2) 0.20408(16) 0.35626(10)
C27 C 0.1677(2) 0.16823(17) 0.35442(11)
H21 H 0.0965 0.2081 0.3458
C28 C 0.1523(3) 0.07138(18) 0.36570(11)
H22 H 0.0702 0.0463 0.3659
C29 C 0.2580(3) 0.01225(18) 0.37666(11)
H23 H 0.2470 -0.0528 0.3838
C30 C 0.3801(3) 0.04915(18) 0.37710(12)
H24 H 0.4512 0.0088 0.3840
C31 C 0.3971(2) 0.14637(17) 0.36731(11)
H25 H 0.4793 0.1719 0.3682
C32 C 0.4556(2) 0.48651(16) 0.35460(10)
C33 C 0.4357(2) 0.54613(17) 0.30571(11)
H26 H 0.3535 0.5675 0.2910
C34 C 0.5414(2) 0.57338(17) 0.27903(11)
H27 H 0.5300 0.6134 0.2458
C35 C 0.6627(2) 0.54208(18) 0.30089(11)
H28 H 0.7330 0.5611 0.2827
C36 C 0.6801(2) 0.4824(2) 0.34992(11)
H29 H 0.7624 0.4613 0.3647
C37 C 0.5763(2) 0.45352(19) 0.37740(11)
H30 H 0.5876 0.4130 0.4103
O1B O -0.16640(14) 0.51906(11) 0.49497(7)
C1B C -0.0646(2) 0.48676(15) 0.48031(10)
O2B O -0.05478(14) 0.43394(10) 0.43560(7)
Cu1B Cu -0.12505(3) 0.62618(2) 0.56018(2)
P1B P -0.09489(6) 0.74655(4) 0.49706(3)
P2B P -0.23983(6) 0.60910(4) 0.63149(3)
O3B O -0.21635(15) 0.80326(12) 0.46267(7)
O4B O -0.03425(17) 0.69364(11) 0.44516(7)
O5B O -0.00472(17) 0.84015(12) 0.50834(8)
O6B O -0.18000(14) 0.55991(11) 0.69371(7)
O7B O -0.31272(15) 0.69926(11) 0.65636(7)
O8B O -0.35385(14) 0.53604(11) 0.61265(7)
C2B C -0.3440(2) 0.77787(17) 0.46968(10)
C3B C -0.4244(2) 0.85170(18) 0.48130(11)
H1B H -0.3940 0.9144 0.4854
C4B C -0.5516(3) 0.8309(2) 0.48682(12)
H2B H -0.6073 0.8800 0.4944
C5B C -0.5959(3) 0.7375(2) 0.48114(11)
H3B H -0.6810 0.7237 0.4853
C6B C -0.5138(2) 0.66475(18) 0.46931(10)
H4B H -0.5438 0.6019 0.4656
C7B C -0.3867(2) 0.68478(17) 0.46295(10)
H5B H -0.3315 0.6361 0.4543
C8B C -0.0137(2) 0.72253(17) 0.38774(10)
C9B C 0.0223(2) 0.65029(17) 0.35205(11)
H6B H 0.0327 0.5879 0.3665
C10B C 0.0427(3) 0.67154(19) 0.29445(11)
H7B H 0.0673 0.6232 0.2700
C11B C 0.0267(2) 0.76437(18) 0.27298(11)
H8B H 0.0390 0.7783 0.2339
C12B C -0.0075(2) 0.83579(18) 0.30969(11)
H9B H -0.0172 0.8983 0.2954
C13B C -0.0277(2) 0.81574(17) 0.36775(11)
H10B H -0.0501 0.8642 0.3927
C14B C 0.0946(2) 0.85612(16) 0.55525(10)
C15B C 0.1445(2) 0.78559(17) 0.59450(11)
H11B H 0.1166 0.7224 0.5895
C16B C 0.2374(2) 0.81094(18) 0.64171(11)
H12B H 0.2706 0.7645 0.6691
C17B C 0.2809(2) 0.90411(18) 0.64847(11)
H13B H 0.3417 0.9207 0.6807
C18B C 0.2337(2) 0.97272(17) 0.60712(11)
H14B H 0.2648 1.0352 0.6109
C19B C 0.1406(2) 0.94911(16) 0.56007(11)
H15B H 0.1093 0.9952 0.5321
C20B C -0.0824(2) 0.60716(16) 0.73168(10)
C21B C -0.1153(2) 0.65610(17) 0.78053(10)
H16B H -0.2009 0.6609 0.7869
C22B C -0.0184(3) 0.69792(18) 0.81993(11)
H17B H -0.0389 0.7313 0.8530
C23B C 0.1081(2) 0.69017(17) 0.81037(11)
H18B H 0.1727 0.7178 0.8372
C24B C 0.1395(2) 0.64162(17) 0.76112(11)
H19B H 0.2250 0.6372 0.7546
C25B C 0.0430(2) 0.59916(17) 0.72117(11)
H20B H 0.0632 0.5660 0.6880
C26B C -0.2905(2) 0.79592(16) 0.64374(10)
C27B C -0.1677(2) 0.83177(17) 0.64558(11)
H21B H -0.0965 0.7919 0.6542
C28B C -0.1523(3) 0.92862(18) 0.63430(11)
H22B H -0.0702 0.9537 0.6341
C29B C -0.2580(3) 0.98775(18) 0.62334(11)
H23B H -0.2470 1.0528 0.6162
C30B C -0.3801(3) 0.95085(18) 0.62290(12)
H24B H -0.4512 0.9912 0.6160
C31B C -0.3971(2) 0.85363(17) 0.63269(11)
H25B H -0.4793 0.8281 0.6318
C32B C -0.4556(2) 0.51349(16) 0.64540(10)
C33B C -0.4357(2) 0.45387(17) 0.69429(11)
H26B H -0.3535 0.4325 0.7090
C34B C -0.5414(2) 0.42662(17) 0.72097(11)
H27B H -0.5300 0.3866 0.7542
C35B C -0.6627(2) 0.45792(18) 0.69911(11)
H28B H -0.7330 0.4389 0.7173
C36B C -0.6801(2) 0.5176(2) 0.65008(11)
H29B H -0.7624 0.5387 0.6353
C37B C -0.5763(2) 0.54648(19) 0.62260(11)
H30B H -0.5876 0.5870 0.5897
Cu1 Cu 1.12505(3) 0.37382(2) 0.43982(2)
P1 P 1.09489(6) 0.25345(4) 0.50294(3)
P2 P 1.23983(6) 0.39090(4) 0.36851(3)
O1 O 1.16640(14) 0.48094(11) 0.50503(7)
O2 O 1.05478(14) 0.56606(10) 0.56440(7)
O3 O 1.21635(15) 0.19674(12) 0.53733(7)
O4 O 1.03425(17) 0.30636(11) 0.55484(7)
O5 O 1.00472(17) 0.15985(12) 0.49166(8)
O6 O 1.18000(14) 0.44009(11) 0.30629(7)
O7 O 1.31272(15) 0.30074(11) 0.34364(7)
O8 O 1.35385(14) 0.46396(11) 0.38735(7)
C1 C 1.0646(2) 0.51324(15) 0.51969(10)
C2 C 1.3440(2) 0.22213(17) 0.53032(10)
C3 C 1.4244(2) 0.14830(18) 0.51870(11)
H1 H 1.3940 0.0856 0.5146
C4 C 1.5516(3) 0.1691(2) 0.51318(12)
H2 H 1.6073 0.1200 0.5056
C5 C 1.5959(3) 0.2625(2) 0.51886(11)
H3 H 1.6810 0.2763 0.5147
C6 C 1.5138(2) 0.33525(18) 0.53069(10)
H4 H 1.5438 0.3981 0.5344
C7 C 1.3867(2) 0.31522(17) 0.53705(10)
H5 H 1.3315 0.3639 0.5457
C8 C 1.0137(2) 0.27747(17) 0.61226(10)
C9 C 0.9777(2) 0.34971(17) 0.64795(11)
H6 H 0.9673 0.4121 0.6335
C10 C 0.9573(3) 0.32846(19) 0.70555(11)
H7 H 0.9327 0.3768 0.7300
C11 C 0.9733(2) 0.23563(18) 0.72702(11)
H8 H 0.9610 0.2217 0.7661
C12 C 1.0075(2) 0.16421(18) 0.69031(11)
H9 H 1.0172 0.1017 0.7046
C13 C 1.0277(2) 0.18426(17) 0.63225(11)
H10 H 1.0501 0.1358 0.6073
C14 C 0.9054(2) 0.14388(16) 0.44475(10)
C15 C 0.8555(2) 0.21441(17) 0.40550(11)
H11 H 0.8834 0.2776 0.4105
C16 C 0.7626(2) 0.18906(18) 0.35829(11)
H12 H 0.7294 0.2355 0.3309
C17 C 0.7191(2) 0.09589(18) 0.35153(11)
H13 H 0.6583 0.0793 0.3193
C18 C 0.7663(2) 0.02728(17) 0.39288(11)
H14 H 0.7352 -0.0352 0.3891
C19 C 0.8594(2) 0.05089(16) 0.43993(11)
H15 H 0.8907 0.0048 0.4679
C20 C 1.0824(2) 0.39284(16) 0.26832(10)
C21 C 1.1153(2) 0.34390(17) 0.21947(10)
H16 H 1.2009 0.3391 0.2131
C22 C 1.0184(3) 0.30208(18) 0.18007(11)
H17 H 1.0389 0.2687 0.1470
C23 C 0.8919(2) 0.30983(17) 0.18963(11)
H18 H 0.8273 0.2822 0.1628
C24 C 0.8605(2) 0.35838(17) 0.23888(11)
H19 H 0.7750 0.3628 0.2454
C25 C 0.9570(2) 0.40084(17) 0.27883(11)
H20 H 0.9368 0.4340 0.3120
C26 C 1.2905(2) 0.20408(16) 0.35626(10)
C27 C 1.1677(2) 0.16823(17) 0.35442(11)
H21 H 1.0965 0.2081 0.3458
C28 C 1.1523(3) 0.07138(18) 0.36570(11)
H22 H 1.0702 0.0463 0.3659
C29 C 1.2580(3) 0.01225(18) 0.37666(11)
H23 H 1.2470 -0.0528 0.3838
C30 C 1.3801(3) 0.04915(18) 0.37710(12)
H24 H 1.4512 0.0088 0.3840
C31 C 1.3971(2) 0.14637(17) 0.36731(11)
H25 H 1.4793 0.1719 0.3682
C32 C 1.4556(2) 0.48651(16) 0.35460(10)
C33 C 1.4357(2) 0.54613(17) 0.30571(11)
H26 H 1.3535 0.5675 0.2910
C34 C 1.5414(2) 0.57338(17) 0.27903(11)
H27 H 1.5300 0.6134 0.2458
C35 C 1.6627(2) 0.54208(18) 0.30089(11)
H28 H 1.7330 0.5611 0.2827
C36 C 1.6801(2) 0.4824(2) 0.34992(11)
H29 H 1.7624 0.4613 0.3647
C37 C 1.5763(2) 0.45352(19) 0.37740(11)
H30 H 1.5876 0.4130 0.4103
O1B O 0.83360(14) 0.51906(11) 0.49497(7)
C1B C 0.9354(2) 0.48676(15) 0.48031(10)
O2B O 0.94522(14) 0.43394(10) 0.43560(7)
Cu1B Cu 0.87495(3) 0.62618(2) 0.56018(2)
P1B P 0.90511(6) 0.74655(4) 0.49706(3)
P2B P 0.76017(6) 0.60910(4) 0.63149(3)
O3B O 0.78365(15) 0.80326(12) 0.46267(7)
O4B O 0.96575(17) 0.69364(11) 0.44516(7)
O5B O 0.99528(17) 0.84015(12) 0.50834(8)
O6B O 0.82000(14) 0.55991(11) 0.69371(7)
O7B O 0.68728(15) 0.69926(11) 0.65636(7)
O8B O 0.64615(14) 0.53604(11) 0.61265(7)
C2B C 0.6560(2) 0.77787(17) 0.46968(10)
C3B C 0.5756(2) 0.85170(18) 0.48130(11)
H1B H 0.6060 0.9144 0.4854
C4B C 0.4484(3) 0.8309(2) 0.48682(12)
H2B H 0.3927 0.8800 0.4944
C5B C 0.4041(3) 0.7375(2) 0.48114(11)
H3B H 0.3190 0.7237 0.4853
C6B C 0.4862(2) 0.66475(18) 0.46931(10)
H4B H 0.4562 0.6019 0.4656
C7B C 0.6133(2) 0.68478(17) 0.46295(10)
H5B H 0.6685 0.6361 0.4543
C8B C 0.9863(2) 0.72253(17) 0.38774(10)
C9B C 1.0223(2) 0.65029(17) 0.35205(11)
H6B H 1.0327 0.5879 0.3665
C10B C 1.0427(3) 0.67154(19) 0.29445(11)
H7B H 1.0673 0.6232 0.2700
C11B C 1.0267(2) 0.76437(18) 0.27298(11)
H8B H 1.0390 0.7783 0.2339
C12B C 0.9925(2) 0.83579(18) 0.30969(11)
H9B H 0.9828 0.8983 0.2954
C13B C 0.9723(2) 0.81574(17) 0.36775(11)
H10B H 0.9499 0.8642 0.3927
C14B C 1.0946(2) 0.85612(16) 0.55525(10)
C15B C 1.1445(2) 0.78559(17) 0.59450(11)
H11B H 1.1166 0.7224 0.5895
C16B C 1.2374(2) 0.81094(18) 0.64171(11)
H12B H 1.2706 0.7645 0.6691
C17B C 1.2809(2) 0.90411(18) 0.64847(11)
H13B H 1.3417 0.9207 0.6807
C18B C 1.2337(2) 0.97272(17) 0.60712(11)
H14B H 1.2648 1.0352 0.6109
C19B C 1.1406(2) 0.94911(16) 0.56007(11)
H15B H 1.1093 0.9952 0.5321
C20B C 0.9176(2) 0.60716(16) 0.73168(10)
C21B C 0.8847(2) 0.65610(17) 0.78053(10)
H16B H 0.7991 0.6609 0.7869
C22B C 0.9816(3) 0.69792(18) 0.81993(11)
H17B H 0.9611 0.7313 0.8530
C23B C 1.1081(2) 0.69017(17) 0.81037(11)
H18B H 1.1727 0.7178 0.8372
C24B C 1.1395(2) 0.64162(17) 0.76112(11)
H19B H 1.2250 0.6372 0.7546
C25B C 1.0430(2) 0.59916(17) 0.72117(11)
H20B H 1.0632 0.5660 0.6880
C26B C 0.7095(2) 0.79592(16) 0.64374(10)
C27B C 0.8323(2) 0.83177(17) 0.64558(11)
H21B H 0.9035 0.7919 0.6542
C28B C 0.8477(3) 0.92862(18) 0.63430(11)
H22B H 0.9298 0.9537 0.6341
C29B C 0.7420(3) 0.98775(18) 0.62334(11)
H23B H 0.7530 1.0528 0.6162
C30B C 0.6199(3) 0.95085(18) 0.62290(12)
H24B H 0.5488 0.9912 0.6160
C31B C 0.6029(2) 0.85363(17) 0.63269(11)
H25B H 0.5207 0.8281 0.6318
C32B C 0.5444(2) 0.51349(16) 0.64540(10)
C33B C 0.5643(2) 0.45387(17) 0.69429(11)
H26B H 0.6465 0.4325 0.7090
C34B C 0.4586(2) 0.42662(17) 0.72097(11)
H27B H 0.4700 0.3866 0.7542
C35B C 0.3373(2) 0.45792(18) 0.69911(11)
H28B H 0.2670 0.4389 0.7173
C36B C 0.3199(2) 0.5176(2) 0.65008(11)
H29B H 0.2376 0.5387 0.6353
C37B C 0.4237(2) 0.54648(19) 0.62260(11)
H30B H 0.4124 0.5870 0.5897

#END
