./ABAFOA_from_POSCAR.cif_generated_by_CrystalShift
_symmetry_cell_setting triclinic
_symmetry_space_group_name_H-M 'P 1'
loop_
_symmetry_equiv_pos_site_id
_symmetry_equiv_pos_as_xyz
1 x,y,z
_cell_length_a 8.603100
_cell_length_b 8.824700
_cell_length_c 10.460900
_cell_angle_alpha 80.514000
_cell_angle_beta 87.499000
_cell_angle_gamma 72.114000
_cell_volume 745.450044
loop_
_atom_site_label
_atom_site_type_symbol
_atom_site_fract_x
_atom_site_fract_y
_atom_site_fract_z
H1 H 0.281800 1.004100 0.516800
H2 H -0.004700 0.868700 0.225500
H3 H 1.264100 0.196900 0.685100
H4 H 0.111700 1.000100 0.348800
H5 H 1.526700 0.181400 0.740800
H6 H 0.331200 0.581900 0.571800
H7 H 1.575500 0.368400 0.850300
H8 H 0.206200 0.451300 0.456900
H9 H 1.362200 0.577400 0.908700
H10 H 0.334700 0.377200 0.240100
H11 H 0.417100 0.156900 0.133000
H12 H -0.050500 0.210100 0.043900
H13 H 1.050500 0.789900 0.956100
H14 H -0.362200 0.422600 0.091300
H15 H -0.575500 0.631600 0.149700
H16 H 0.582900 0.843100 0.867000
H17 H -0.526700 0.818600 0.259200
H18 H 0.665300 0.622800 0.759900
H19 H -0.264100 0.803100 0.314900
H20 H 0.283700 0.875100 0.639700
H21 H 0.431800 0.848000 0.544300
H22 H 0.793800 0.548700 0.543100
H23 H 0.716300 0.124900 0.360300
H24 H 0.668800 0.418100 0.428200
H25 H 0.718200 -0.004100 0.483200
H26 H 0.568200 0.152000 0.455700
H27 H 0.888300 -0.000100 0.651200
H28 H 1.004700 0.131300 0.774500
C29 C 0.938970 0.189140 0.703590
C30 C 0.684700 0.109100 0.449500
C31 C 0.867230 0.110990 0.630190
C32 C 0.765140 0.194300 0.526620
C33 C 0.738210 0.359400 0.496790
C34 C 0.811660 0.438350 0.566260
C35 C 0.243550 0.028010 0.009720
C36 C 0.912380 0.353560 0.670850
C37 C -0.154820 0.602430 0.233840
C38 C -0.282830 0.727610 0.270010
C39 C 0.908150 0.573630 0.795340
C40 C -0.438940 0.735530 0.236700
C41 C 0.741550 0.655800 0.799290
C42 C -0.468750 0.622730 0.170430
C43 C 0.693390 0.786830 0.862970
C44 C -0.342070 0.498210 0.135220
C45 C 0.808480 0.836800 0.921880
C46 C -0.182940 0.487770 0.166790
C47 C -0.024930 0.376080 0.146800
C48 C 0.025280 0.244110 0.082880
C49 C 0.974720 0.755890 0.917120
C50 C 0.191520 0.163200 0.078120
C51 C 0.306610 0.213170 0.137030
C52 C 1.024930 0.623920 0.853200
C53 C 0.258450 0.344200 0.200710
C54 C 1.182940 0.512230 0.833210
C55 C 0.091850 0.426370 0.204660
C56 C 0.087620 0.646440 0.329150
C57 C 0.188340 0.561650 0.433740
C58 C 1.342070 0.501790 0.864780
C59 C 0.261790 0.640600 0.503210
C60 C 1.468750 0.377270 0.829570
C61 C 0.234860 0.805700 0.473380
C62 C 0.132770 0.889010 0.369810
C63 C 1.438940 0.264470 0.763300
C64 C 0.061030 0.810860 0.296410
C65 C 1.282830 0.272390 0.729990
C66 C 0.315300 0.890900 0.550500
C67 C 0.756450 0.971990 0.990280
C68 C 1.154820 0.397570 0.766160
N69 N 0.987050 0.435890 0.743280
N70 N 0.012950 0.564110 0.256720
N71 N 0.279160 -0.077840 -0.046140
N72 N 0.720840 1.077840 1.046140

#END
