./ABAFER_from_POSCAR.cif_generated_by_CrystalShift
_symmetry_cell_setting triclinic
_symmetry_space_group_name_H-M 'P 1'
loop_
_symmetry_equiv_pos_site_id
_symmetry_equiv_pos_as_xyz
1 x,y,z
_cell_length_a 10.318900
_cell_length_b 10.484500
_cell_length_c 10.995600
_cell_angle_alpha 67.786000
_cell_angle_beta 75.402000
_cell_angle_gamma 85.248000
_cell_volume 1065.648398
loop_
_atom_site_label
_atom_site_type_symbol
_atom_site_fract_x
_atom_site_fract_y
_atom_site_fract_z
H1 H -0.135000 0.455000 0.958000
H2 H 0.053500 -0.174500 1.199900
H3 H 0.217800 -0.158300 1.007000
H4 H 1.135000 0.545000 0.042000
H5 H 0.623200 -0.092900 0.830000
H6 H 0.726400 -0.304300 0.869000
H7 H 0.491900 0.738900 0.506500
H8 H 0.616600 -0.487200 0.860300
H9 H 0.313700 0.583600 0.602000
H10 H 0.401100 -0.451100 0.820500
H11 H 0.195600 0.546400 0.461800
H12 H 0.305700 -0.236000 0.783200
H13 H 0.267000 0.662500 0.227200
H14 H 0.202500 0.272500 0.629300
H15 H 0.446000 0.816400 0.141000
H16 H 0.059200 0.325900 0.485100
H17 H 0.678900 1.061900 0.446600
H18 H 0.044100 0.176800 0.374800
H19 H 0.822200 1.020600 0.588600
H20 H 0.177800 -0.020600 0.411400
H21 H 0.955900 0.823200 0.625200
H22 H 0.321100 -0.061900 0.553400
H23 H 0.940800 0.674100 0.514900
H24 H 0.554000 0.183600 0.859000
H25 H 0.797500 0.727500 0.370700
H26 H 0.733000 0.337500 0.772800
H27 H 0.694300 1.236000 0.216800
H28 H 0.804400 0.453600 0.538200
H29 H 0.598900 1.451100 0.179500
H30 H 0.686300 0.416400 0.398000
H31 H 0.383400 1.487200 0.139700
H32 H 0.508100 0.261100 0.493500
H33 H 0.273600 1.304300 0.131000
H34 H 0.069600 0.240800 1.077500
H35 H 0.376800 1.092900 0.170000
H36 H 0.235800 0.245000 0.890500
H37 H 0.782200 1.158300 -0.007000
H38 H 0.764200 0.755000 0.109500
H39 H 0.946500 1.174500 -0.199900
H40 H -0.023200 0.028100 1.237700
H41 H 1.023200 0.971900 -0.237700
H42 H 0.930400 0.759200 -0.077500
C43 C 0.900700 0.842780 -0.065390
C44 C 0.955760 0.967870 -0.159450
C45 C 0.910590 1.087010 -0.137220
C46 C 1.009500 0.533720 0.199630
C47 C 0.812250 1.076170 -0.022050
C48 C 0.197880 0.158730 0.953890
C49 C 0.422110 1.166370 0.173270
C50 C 0.099300 0.157220 1.065390
C51 C 0.555220 0.275640 0.551180
C52 C 0.359820 1.292120 0.149680
C53 C 0.661270 0.368760 0.493260
C54 C 0.424670 1.400050 0.153580
C55 C 0.730060 0.391550 0.575600
C56 C 0.550980 1.378230 0.178100
C57 C 0.688760 0.322390 0.713320
C58 C 0.607070 1.249560 0.200630
C59 C 0.581860 0.230600 0.763800
C60 C 0.802520 0.787720 0.415810
C61 C 0.266120 0.017120 0.540530
C62 C 0.888620 0.755110 0.501420
C63 C 0.181750 0.041390 0.454910
C64 C 0.897070 0.842440 0.566630
C65 C 0.102930 0.157560 0.433370
C66 C 0.818250 0.958610 0.545090
C67 C 0.111380 0.244890 0.498580
C68 C 0.733880 0.982880 0.459470
C69 C 0.197480 0.212280 0.584190
C70 C 0.418140 0.769400 0.236200
C71 C 0.392930 -0.249560 0.799370
C72 C 0.311240 0.677610 0.286680
C73 C 0.449020 -0.378230 0.821900
C74 C 0.269940 0.608450 0.424400
C75 C 0.575330 -0.400050 0.846420
C76 C 0.338730 0.631240 0.506740
C77 C 0.640180 -0.292120 0.850320
C78 C 0.444780 0.724360 0.448820
C79 C 0.577890 -0.166370 0.826730
C80 C 0.916200 0.448180 0.169530
C81 C 0.187750 -0.076170 1.022050
C82 C -0.009500 0.466280 0.800370
C83 C 0.089410 -0.087010 1.137220
C84 C 0.083800 0.551820 0.830470
C85 C 0.044240 0.032130 1.159450
C86 C 0.802120 0.841270 0.046110
N87 N 0.243090 0.044300 0.930250
N88 N 0.456420 -0.142460 0.799360
N89 N 0.274220 0.099550 0.606440
N90 N 0.515470 0.204720 0.684840
N91 N 0.484530 0.795280 0.315160
N92 N 0.725780 0.900450 0.393560
N93 N 0.543580 1.142460 0.200640
N94 N 0.756910 0.955700 0.069750
O95 O 0.093620 0.676290 0.762880
O96 O 0.857310 0.517310 0.077110
O97 O 0.906380 0.323710 0.237120
O98 O 0.020690 0.436820 0.700390
O99 O -0.125160 0.425730 0.889870
O100 O 1.125160 0.574270 0.110130
O101 O 0.142690 0.482690 0.922890
O102 O 0.979310 0.563180 0.299610
Cu103 Cu 0.376240 0.049440 0.756680
Cu104 Cu 0.623760 0.950560 0.243320

#END
