./ABAFIV_from_POSCAR.cif_generated_by_CrystalShift
_symmetry_cell_setting triclinic
_symmetry_space_group_name_H-M 'P 1'
loop_
_symmetry_equiv_pos_site_id
_symmetry_equiv_pos_as_xyz
1 x,y,z
_cell_length_a 18.880000
_cell_length_b 9.662100
_cell_length_c 20.257600
_cell_angle_alpha 90.000000
_cell_angle_beta 90.000000
_cell_angle_gamma 90.000000
_cell_volume 3695.400467
loop_
_atom_site_label
_atom_site_type_symbol
_atom_site_fract_x
_atom_site_fract_y
_atom_site_fract_z
H1 H 0.853900 0.172300 0.251800
H2 H 0.854000 0.023300 0.286400
H3 H 0.915300 0.063500 0.235300
H4 H 1.198600 0.562900 0.688700
H5 H 0.959700 0.083400 0.343000
H6 H 1.210500 0.411500 0.719200
H7 H 1.182700 0.468600 0.582300
H8 H 1.257000 0.415600 0.611000
H9 H 0.580400 -0.008700 0.337900
H10 H 1.192700 0.228700 0.562700
H11 H 0.601800 0.258100 0.278400
H12 H 0.528100 0.203600 0.308000
H13 H 1.206500 0.200600 0.639600
H14 H 0.575600 0.200400 0.415300
H15 H 0.587300 0.351700 0.384800
H16 H 1.087300 0.148300 0.615200
H17 H 0.706500 0.299400 0.360400
H18 H 0.692700 0.271300 0.437300
H19 H 1.075600 0.299600 0.584700
H20 H 0.757000 0.084400 0.389000
H21 H 0.682700 0.031400 0.417700
H22 H 1.028100 0.296400 0.692000
H23 H 0.710500 0.088500 0.280800
H24 H 0.698600 -0.062900 0.311300
H25 H 1.101800 0.241900 0.721600
H26 H 1.080400 0.508700 0.662100
H27 H 0.656900 -0.525500 -0.025200
H28 H 1.258600 0.968400 0.959500
H29 H 0.758600 -0.468400 0.040500
H30 H 0.752000 -0.631500 0.027700
H31 H 1.252000 1.131500 0.972300
H32 H 0.778500 -0.596300 0.139800
H33 H 0.712600 -0.493100 0.147700
H34 H 1.278500 1.096300 0.860200
H35 H 0.681600 -0.710400 0.190700
H36 H 0.701900 -0.783900 0.122400
H37 H 1.212600 0.993100 0.852300
H38 H 0.578300 -0.760300 0.127000
H39 H 0.585200 -0.597600 0.140900
H40 H 0.879600 -0.234000 0.019900
H41 H 0.557000 -0.626200 0.029800
H42 H 0.620400 -0.734000 0.019900
H43 H 0.956700 0.234400 0.310000
H44 H 0.943000 -0.126200 0.029800
H45 H 0.914800 -0.097600 0.140900
H46 H 0.904600 0.255000 0.400200
H47 H 0.646100 0.327700 0.751800
H48 H 0.646000 0.476700 0.786400
H49 H 0.921700 -0.260300 0.127000
H50 H 0.798100 -0.283900 0.122400
H51 H 0.419600 0.008700 -0.337900
H52 H 0.818400 -0.210400 0.190700
H53 H 0.398200 -0.258100 -0.278400
H54 H 0.471900 -0.203600 -0.308000
H55 H 0.787400 0.006900 0.147700
H56 H 0.424400 -0.200400 -0.415300
H57 H 0.412700 -0.351700 -0.384800
H58 H 0.721500 -0.096300 0.139800
H59 H 0.293500 -0.299400 -0.360400
H60 H 0.307300 -0.271300 -0.437300
H61 H 0.748000 -0.131500 0.027700
H62 H 0.243000 -0.084400 -0.389000
H63 H 0.317300 -0.031400 -0.417700
H64 H 0.741400 0.031600 0.040500
H65 H 0.289500 -0.088500 -0.280800
H66 H 0.301400 0.062900 -0.311300
H67 H 0.843100 -0.025500 -0.025200
H68 H 0.801400 0.437100 0.311300
H69 H 0.343100 0.525500 0.025200
H70 H 0.789500 0.588500 0.280800
H71 H 0.241400 0.468400 -0.040500
H72 H 0.248000 0.631500 -0.027700
H73 H 0.817300 0.531400 0.417700
H74 H 0.221500 0.596300 -0.139800
H75 H 0.287400 0.493100 -0.147700
H76 H 0.743000 0.584400 0.389000
H77 H 0.318400 0.710400 -0.190700
H78 H 0.298100 0.783900 -0.122400
H79 H 0.807300 0.771300 0.437300
H80 H 0.421700 0.760300 -0.127000
H81 H 0.414800 0.597600 -0.140900
H82 H 0.793500 0.799400 0.360400
H83 H 0.443000 0.626200 -0.029800
H84 H 0.379600 0.734000 -0.019900
H85 H 0.584700 0.436500 0.735300
H86 H 0.912700 0.851700 0.384800
H87 H 0.540300 0.416600 0.843000
H88 H 0.543300 0.265600 0.810000
H89 H 0.924400 0.700400 0.415300
H90 H 0.971900 0.703600 0.308000
H91 H 0.898200 0.758100 0.278400
H92 H 0.919600 0.491300 0.337900
H93 H 0.580400 -0.008700 1.337900
H94 H 1.181600 1.210400 0.809300
H95 H 0.601800 0.258100 1.278400
H96 H 0.528100 0.203600 1.308000
H97 H 1.201900 1.283900 0.877600
H98 H 0.575600 0.200400 1.415300
H99 H 0.587300 0.351700 1.384800
H100 H 1.078300 1.260300 0.873000
H101 H 0.706500 0.299400 1.360400
H102 H 0.692700 0.271300 1.437300
H103 H 1.120400 1.234000 -0.019900
H104 H 0.757000 0.084400 1.389000
H105 H 0.682700 0.031400 1.417700
H106 H 1.057000 1.126200 -0.029800
H107 H 0.710500 0.088500 1.280800
H108 H 0.698600 -0.062900 1.311300
H109 H 1.085200 1.097600 -0.140900
H110 H 1.078300 1.260300 -0.127000
H111 H 0.656900 -0.525500 0.974800
H112 H 1.201900 1.283900 -0.122400
H113 H 0.758600 -0.468400 1.040500
H114 H 0.752000 -0.631500 1.027700
H115 H 1.181600 1.210400 -0.190700
H116 H 0.778500 -0.596300 1.139800
H117 H 0.712600 -0.493100 1.147700
H118 H 1.212600 0.993100 -0.147700
H119 H 0.681600 -0.710400 1.190700
H120 H 0.701900 -0.783900 1.122400
H121 H 1.278500 1.096300 -0.139800
H122 H 0.578300 -0.760300 1.127000
H123 H 0.585200 -0.597600 1.140900
H124 H 1.252000 1.131500 -0.027700
H125 H 0.557000 -0.626200 1.029800
H126 H 0.620400 -0.734000 1.019900
H127 H 0.595400 0.245000 0.900200
H128 H 1.258600 0.968400 -0.040500
H129 H 0.146100 0.172300 0.248200
H130 H 0.146000 0.023300 0.213600
H131 H 0.084700 0.063500 0.264700
H132 H 1.156900 1.025500 0.025200
H133 H 1.198600 0.562900 -0.311300
H134 H 1.210500 0.411500 -0.280800
H135 H 0.419600 0.008700 0.662100
H136 H 1.182700 0.468600 -0.417700
H137 H 0.398200 -0.258100 0.721600
H138 H 0.471900 -0.203600 0.692000
H139 H 1.257000 0.415600 -0.389000
H140 H 0.424400 -0.200400 0.584700
H141 H 0.412700 -0.351700 0.615200
H142 H 1.192700 0.228700 -0.437300
H143 H 0.293500 -0.299400 0.639600
H144 H 0.307300 -0.271300 0.562700
H145 H 1.206500 0.200600 -0.360400
H146 H 0.243000 -0.084400 0.611000
H147 H 0.317300 -0.031400 0.582300
H148 H 1.087300 0.148300 -0.384800
H149 H 0.289500 -0.088500 0.719200
H150 H 0.301400 0.062900 0.688700
H151 H 1.075600 0.299600 -0.415300
H152 H 1.028100 0.296400 -0.308000
H153 H 0.343100 0.525500 1.025200
H154 H 1.101800 0.241900 -0.278400
H155 H 0.241400 0.468400 0.959500
H156 H 0.248000 0.631500 0.972300
H157 H 1.080400 0.508700 -0.337900
H158 H 0.221500 0.596300 0.860200
H159 H 0.287400 0.493100 0.852300
H160 H 1.085200 1.097600 0.859100
H161 H 0.318400 0.710400 0.809300
H162 H 0.298100 0.783900 0.877600
H163 H 1.057000 1.126200 0.970200
H164 H 0.421700 0.760300 0.873000
H165 H 0.414800 0.597600 0.859100
H166 H 1.120400 1.234000 0.980100
H167 H 0.443000 0.626200 0.970200
H168 H 0.379600 0.734000 0.980100
H169 H 0.040300 0.083400 0.157000
H170 H 0.043300 0.234400 0.190000
H171 H -0.120400 -0.234000 1.019900
H172 H 0.095400 0.255000 0.099800
H173 H 0.353900 0.327700 0.748200
H174 H -0.057000 -0.126200 1.029800
H175 H -0.085200 -0.097600 1.140900
H176 H -0.078300 -0.260300 1.127000
H177 H 0.580400 0.991300 0.337900
H178 H -0.201900 -0.283900 1.122400
H179 H 0.601800 1.258100 0.278400
H180 H 0.528100 1.203600 0.308000
H181 H -0.181600 -0.210400 1.190700
H182 H 0.575600 1.200400 0.415300
H183 H 0.587300 1.351700 0.384800
H184 H -0.212600 0.006900 1.147700
H185 H 0.706500 1.299400 0.360400
H186 H 0.692700 1.271300 0.437300
H187 H -0.278500 -0.096300 1.139800
H188 H 0.757000 1.084400 0.389000
H189 H 0.682700 1.031400 0.417700
H190 H -0.252000 -0.131500 1.027700
H191 H 0.710500 1.088500 0.280800
H192 H 0.698600 0.937100 0.311300
H193 H -0.258600 0.031600 1.040500
H194 H -0.156900 -0.025500 0.974800
H195 H 0.656900 0.474500 -0.025200
H196 H -0.198600 0.437100 1.311300
H197 H 0.758600 0.531600 0.040500
H198 H 0.752000 0.368500 0.027700
H199 H -0.210500 0.588500 1.280800
H200 H 0.778500 0.403700 0.139800
H201 H 0.712600 0.506900 0.147700
H202 H -0.182700 0.531400 1.417700
H203 H 0.681600 0.289600 0.190700
H204 H 0.701900 0.216100 0.122400
H205 H -0.257000 0.584400 1.389000
H206 H 0.578300 0.239700 0.127000
H207 H 0.585200 0.402400 0.140900
H208 H -0.192700 0.771300 1.437300
H209 H 0.557000 0.373800 0.029800
H210 H 0.620400 0.266000 0.019900
H211 H 0.354000 0.476700 0.713600
H212 H -0.206500 0.799400 1.360400
H213 H 0.415300 0.436500 0.764700
H214 H -0.087300 0.851700 1.384800
H215 H 0.459700 0.416600 0.657000
H216 H 0.456700 0.265600 0.690000
H217 H -0.075600 0.700400 1.415300
H218 H -0.028100 0.703600 1.308000
H219 H 0.419600 1.008700 -0.337900
H220 H -0.101800 0.758100 1.278400
H221 H 0.398200 0.741900 -0.278400
H222 H 0.471900 0.796400 -0.308000
H223 H -0.080400 0.491300 1.337900
H224 H 0.424400 0.799600 -0.415300
H225 H 0.412700 0.648300 -0.384800
H226 H 0.919600 0.491300 1.337900
H227 H 0.293500 0.700600 -0.360400
H228 H 0.307300 0.728700 -0.437300
H229 H 0.898200 0.758100 1.278400
H230 H 0.243000 0.915600 -0.389000
H231 H 0.317300 0.968600 -0.417700
H232 H 0.120400 1.234000 0.980100
H233 H 0.289500 0.911500 -0.280800
H234 H 0.301400 1.062900 -0.311300
H235 H 0.057000 1.126200 0.970200
H236 H 0.085200 1.097600 0.859100
H237 H 0.343100 1.525500 0.025200
H238 H 0.078300 1.260300 0.873000
H239 H 0.241400 1.468400 -0.040500
H240 H 0.248000 1.631500 -0.027700
H241 H 0.201900 1.283900 0.877600
H242 H 0.221500 1.596300 -0.139800
H243 H 0.287400 1.493100 -0.147700
H244 H 0.181600 1.210400 0.809300
H245 H 0.318400 1.710400 -0.190700
H246 H 0.298100 1.783900 -0.122400
H247 H 0.212600 0.993100 0.852300
H248 H 0.421700 1.760300 -0.127000
H249 H 0.414800 1.597600 -0.140900
H250 H 0.278500 1.096300 0.860200
H251 H 0.443000 1.626200 -0.029800
H252 H 0.379600 1.734000 -0.019900
H253 H 0.252000 1.131500 0.972300
H254 H 0.404600 0.245000 0.599800
H255 H 0.146100 0.827700 0.748200
H256 H 0.146000 0.976700 0.713600
H257 H 0.084700 0.936500 0.764700
H258 H 0.258600 0.968400 0.959500
H259 H 0.156900 1.025500 1.025200
H260 H 0.198600 0.562900 0.688700
H261 H 0.580400 0.991300 1.337900
H262 H 0.210500 0.411500 0.719200
H263 H 0.601800 1.258100 1.278400
H264 H 0.528100 1.203600 1.308000
H265 H 0.182700 0.468600 0.582300
H266 H 0.575600 1.200400 1.415300
H267 H 0.587300 1.351700 1.384800
H268 H 0.257000 0.415600 0.611000
H269 H 0.706500 1.299400 1.360400
H270 H 0.692700 1.271300 1.437300
H271 H 0.192700 0.228700 0.562700
H272 H 0.757000 1.084400 1.389000
H273 H 0.682700 1.031400 1.417700
H274 H 0.206500 0.200600 0.639600
H275 H 0.710500 1.088500 1.280800
H276 H 0.698600 0.937100 1.311300
H277 H 0.087300 0.148300 0.615200
H278 H 0.075600 0.299600 0.584700
H279 H 0.656900 0.474500 0.974800
H280 H 0.028100 0.296400 0.692000
H281 H 0.758600 0.531600 1.040500
H282 H 0.752000 0.368500 1.027700
H283 H 0.101800 0.241900 0.721600
H284 H 0.778500 0.403700 1.139800
H285 H 0.712600 0.506900 1.147700
H286 H 0.080400 0.508700 0.662100
H287 H 0.681600 0.289600 1.190700
H288 H 0.701900 0.216100 1.122400
H289 H 0.971900 0.703600 1.308000
H290 H 0.578300 0.239700 1.127000
H291 H 0.585200 0.402400 1.140900
H292 H 0.924400 0.700400 1.415300
H293 H 0.557000 0.373800 1.029800
H294 H 0.620400 0.266000 1.019900
H295 H 0.912700 0.851700 1.384800
H296 H -0.120400 -0.234000 0.019900
H297 H 0.040300 0.916600 0.657000
H298 H 0.043300 0.765600 0.690000
H299 H -0.057000 -0.126200 0.029800
H300 H 0.095400 0.745000 0.599800
H301 H -0.085200 -0.097600 0.140900
H302 H -0.078300 -0.260300 0.127000
H303 H 0.419600 1.008700 0.662100
H304 H -0.201900 -0.283900 0.122400
H305 H 0.398200 0.741900 0.721600
H306 H 0.471900 0.796400 0.692000
H307 H -0.181600 -0.210400 0.190700
H308 H 0.424400 0.799600 0.584700
H309 H 0.412700 0.648300 0.615200
H310 H -0.212600 0.006900 0.147700
H311 H 0.293500 0.700600 0.639600
H312 H 0.307300 0.728700 0.562700
H313 H -0.278500 -0.096300 0.139800
H314 H 0.243000 0.915600 0.611000
H315 H 0.317300 0.968600 0.582300
H316 H -0.252000 -0.131500 0.027700
H317 H 0.289500 0.911500 0.719200
H318 H 0.301400 1.062900 0.688700
H319 H -0.258600 0.031600 0.040500
H320 H -0.156900 -0.025500 -0.025200
H321 H 0.343100 1.525500 1.025200
H322 H -0.198600 0.437100 0.311300
H323 H 0.241400 1.468400 0.959500
H324 H 0.248000 1.631500 0.972300
H325 H -0.210500 0.588500 0.280800
H326 H 0.221500 1.596300 0.860200
H327 H 0.287400 1.493100 0.852300
H328 H -0.182700 0.531400 0.417700
H329 H 0.318400 1.710400 0.809300
H330 H 0.298100 1.783900 0.877600
H331 H -0.257000 0.584400 0.389000
H332 H 0.421700 1.760300 0.873000
H333 H 0.414800 1.597600 0.859100
H334 H -0.192700 0.771300 0.437300
H335 H 0.443000 1.626200 0.970200
H336 H 0.379600 1.734000 0.980100
H337 H 0.353900 0.672300 0.248200
H338 H 0.354000 0.523300 0.213600
H339 H 0.415300 0.563500 0.264700
H340 H -0.206500 0.799400 0.360400
H341 H 0.459700 0.583400 0.157000
H342 H -0.087300 0.851700 0.384800
H343 H -0.075600 0.700400 0.415300
H344 H -0.028100 0.703600 0.308000
H345 H -0.080400 0.508700 0.837900
H346 H -0.101800 0.758100 0.278400
H347 H -0.101800 0.241900 0.778400
H348 H -0.028100 0.296400 0.808000
H349 H -0.080400 0.491300 0.337900
H350 H -0.075600 0.299600 0.915300
H351 H -0.087300 0.148300 0.884800
H352 H 0.793500 0.799400 1.360400
H353 H -0.206500 0.200600 0.860400
H354 H -0.192700 0.228700 0.937300
H355 H 0.807300 0.771300 1.437300
H356 H -0.257000 0.415600 0.889000
H357 H -0.182700 0.468600 0.917700
H358 H 0.743000 0.584400 1.389000
H359 H -0.210500 0.411500 0.780800
H360 H -0.198600 0.562900 0.811300
H361 H 0.817300 0.531400 1.417700
H362 H 0.120400 1.234000 -0.019900
H363 H -0.156900 1.025500 0.474800
H364 H 0.057000 1.126200 -0.029800
H365 H -0.258600 0.968400 0.540500
H366 H -0.252000 1.131500 0.527700
H367 H 0.085200 1.097600 -0.140900
H368 H -0.278500 1.096300 0.639800
H369 H -0.212600 0.993100 0.647700
H370 H 0.078300 1.260300 -0.127000
H371 H -0.181600 1.210400 0.690700
H372 H -0.201900 1.283900 0.622400
H373 H 0.201900 1.283900 -0.122400
H374 H -0.078300 1.260300 0.627000
H375 H -0.085200 1.097600 0.640900
H376 H 0.181600 1.210400 -0.190700
H377 H -0.057000 1.126200 0.529800
H378 H -0.120400 1.234000 0.519900
H379 H 0.456700 0.734400 0.190000
H380 H 0.212600 0.993100 -0.147700
H381 H 0.278500 1.096300 -0.139800
H382 H 0.404600 0.755000 0.099800
H383 H 0.853900 0.827700 0.751800
H384 H 0.854000 0.976700 0.786400
H385 H 0.252000 1.131500 -0.027700
H386 H 0.258600 0.968400 -0.040500
H387 H 0.080400 0.491300 0.162100
H388 H 0.156900 1.025500 0.025200
H389 H 0.101800 0.758100 0.221600
H390 H 0.028100 0.703600 0.192000
H391 H 0.198600 0.562900 -0.311300
H392 H 0.075600 0.700400 0.084700
H393 H 0.087300 0.851700 0.115200
H394 H 0.210500 0.411500 -0.280800
H395 H 0.206500 0.799400 0.139600
H396 H 0.192700 0.771300 0.062700
H397 H 0.182700 0.468600 -0.417700
H398 H 0.257000 0.584400 0.111000
H399 H 0.182700 0.531400 0.082300
H400 H 0.257000 0.415600 -0.389000
H401 H 0.210500 0.588500 0.219200
H402 H 0.198600 0.437100 0.188700
H403 H 0.192700 0.228700 -0.437300
H404 H 0.206500 0.200600 -0.360400
H405 H 0.156900 -0.025500 0.525200
H406 H 0.087300 0.148300 -0.384800
H407 H 0.258600 0.031600 0.459500
H408 H 0.252000 -0.131500 0.472300
H409 H 0.075600 0.299600 -0.415300
H410 H 0.278500 -0.096300 0.360200
H411 H 0.212600 0.006900 0.352300
H412 H 0.028100 0.296400 -0.308000
H413 H 0.181600 -0.210400 0.309300
H414 H 0.201900 -0.283900 0.377600
H415 H 0.101800 0.241900 -0.278400
H416 H 0.078300 -0.260300 0.373000
H417 H 0.085200 -0.097600 0.359100
H418 H 0.080400 0.508700 -0.337900
H419 H 0.057000 -0.126200 0.470200
H420 H 0.120400 -0.234000 0.480100
H421 H 0.915300 0.936500 0.735300
H422 H 0.789500 0.588500 1.280800
H423 H 0.959700 0.916600 0.843000
H424 H 0.956700 0.765600 0.810000
H425 H 0.801400 0.437100 1.311300
H426 H 0.620400 1.734000 0.519900
H427 H 0.557000 1.626200 0.529800
H428 H 0.585200 1.597600 0.640900
H429 H 0.919600 0.508700 0.837900
H430 H 0.578300 1.760300 0.627000
H431 H 0.898200 0.241900 0.778400
H432 H 0.971900 0.296400 0.808000
H433 H 0.701900 1.783900 0.622400
H434 H 0.924400 0.299600 0.915300
H435 H 0.912700 0.148300 0.884800
H436 H 0.681600 1.710400 0.690700
H437 H 0.793500 0.200600 0.860400
H438 H 0.807300 0.228700 0.937300
H439 H 0.712600 1.493100 0.647700
H440 H 0.743000 0.415600 0.889000
H441 H 0.817300 0.468600 0.917700
H442 H 0.778500 1.596300 0.639800
H443 H 0.789500 0.411500 0.780800
H444 H 0.801400 0.562900 0.811300
H445 H 0.752000 1.631500 0.527700
H446 H 0.758600 1.468400 0.540500
H447 H 0.843100 1.025500 0.474800
H448 H 0.656900 1.525500 0.474800
H449 H 0.741400 0.968400 0.540500
H450 H 0.748000 1.131500 0.527700
H451 H 0.698600 1.062900 0.811300
H452 H 0.721500 1.096300 0.639800
H453 H 0.787400 0.993100 0.647700
H454 H 0.710500 0.911500 0.780800
H455 H 0.818400 1.210400 0.690700
H456 H 0.798100 1.283900 0.622400
H457 H 0.682700 0.968600 0.917700
H458 H 0.921700 1.260300 0.627000
H459 H 0.914800 1.097600 0.640900
H460 H 0.757000 0.915600 0.889000
H461 H 0.943000 1.126200 0.529800
H462 H 0.879600 1.234000 0.519900
H463 H 0.904600 0.745000 0.900200
H464 H 0.692700 0.728700 0.937300
H465 H 0.646100 0.672300 0.251800
H466 H 0.646000 0.523300 0.286400
H467 H 0.584700 0.563500 0.235300
H468 H 0.706500 0.700600 0.860400
H469 H 0.587300 0.648300 0.884800
H470 H 0.575600 0.799600 0.915300
H471 H 1.080400 0.491300 0.162100
H472 H 0.528100 0.796400 0.808000
H473 H 1.101800 0.758100 0.221600
H474 H 1.028100 0.703600 0.192000
H475 H 0.601800 0.741900 0.778400
H476 H 1.075600 0.700400 0.084700
H477 H 1.087300 0.851700 0.115200
H478 H 0.580400 1.008700 0.837900
H479 H 1.206500 0.799400 0.139600
H480 H 1.192700 0.771300 0.062700
H481 H 0.843100 -0.025500 0.974800
H482 H 1.257000 0.584400 0.111000
H483 H 1.182700 0.531400 0.082300
H484 H 0.741400 0.031600 1.040500
H485 H 1.210500 0.588500 0.219200
H486 H 1.198600 0.437100 0.188700
H487 H 0.748000 -0.131500 1.027700
H488 H 0.379600 0.266000 0.480100
H489 H 1.156900 -0.025500 0.525200
H490 H 0.443000 0.373800 0.470200
H491 H 1.258600 0.031600 0.459500
H492 H 1.252000 -0.131500 0.472300
H493 H 0.414800 0.402400 0.359100
H494 H 1.278500 -0.096300 0.360200
H495 H 1.212600 0.006900 0.352300
H496 H 0.421700 0.239700 0.373000
H497 H 1.181600 -0.210400 0.309300
H498 H 1.201900 -0.283900 0.377600
H499 H 0.298100 0.216100 0.377600
H500 H 1.078300 -0.260300 0.373000
H501 H 1.085200 -0.097600 0.359100
H502 H 0.318400 0.289600 0.309300
H503 H 1.057000 -0.126200 0.470200
H504 H 1.120400 -0.234000 0.480100
H505 H 0.540300 0.583400 0.343000
H506 H 0.543300 0.734400 0.310000
H507 H 0.287400 0.506900 0.352300
H508 H 0.595400 0.755000 0.400200
H509 H 0.879600 -0.234000 1.019900
H510 H 0.221500 0.403700 0.360200
H511 H 0.248000 0.368500 0.472300
H512 H 0.241400 0.531600 0.459500
H513 H 0.419600 -0.008700 0.162100
H514 H 0.343100 0.474500 0.525200
H515 H 0.398200 0.258100 0.221600
H516 H 0.471900 0.203600 0.192000
H517 H 0.301400 0.937100 0.188700
H518 H 0.424400 0.200400 0.084700
H519 H 0.412700 0.351700 0.115200
H520 H 0.289500 1.088500 0.219200
H521 H 0.293500 0.299400 0.139600
H522 H 0.307300 0.271300 0.062700
H523 H 0.317300 1.031400 0.082300
H524 H 0.243000 0.084400 0.111000
H525 H 0.317300 0.031400 0.082300
H526 H 0.243000 1.084400 0.111000
H527 H 0.289500 0.088500 0.219200
H528 H 0.301400 -0.062900 0.188700
H529 H 0.307300 1.271300 0.062700
H530 H 0.293500 1.299400 0.139600
H531 H 0.343100 -0.525500 0.525200
H532 H 0.412700 1.351700 0.115200
H533 H 0.241400 -0.468400 0.459500
H534 H 0.248000 -0.631500 0.472300
H535 H 0.424400 1.200400 0.084700
H536 H 0.221500 -0.596300 0.360200
H537 H 0.287400 -0.493100 0.352300
H538 H 0.471900 1.203600 0.192000
H539 H 0.318400 -0.710400 0.309300
H540 H 0.298100 -0.783900 0.377600
H541 H 0.398200 1.258100 0.221600
H542 H 0.421700 -0.760300 0.373000
H543 H 0.414800 -0.597600 0.359100
H544 H 0.419600 0.991300 0.162100
H545 H 0.443000 -0.626200 0.470200
H546 H 0.379600 -0.734000 0.480100
H547 H 0.943000 -0.126200 1.029800
H548 H 0.721500 -0.096300 1.139800
H549 H 0.787400 0.006900 1.147700
H550 H 0.914800 -0.097600 1.140900
H551 H 0.921700 -0.260300 1.127000
H552 H 0.818400 -0.210400 1.190700
H553 H 0.798100 -0.283900 1.122400
H554 H 0.620400 0.734000 0.519900
H555 H 0.580400 0.008700 0.837900
H556 H 0.557000 0.626200 0.529800
H557 H 0.601800 -0.258100 0.778400
H558 H 0.528100 -0.203600 0.808000
H559 H 0.585200 0.597600 0.640900
H560 H 0.575600 -0.200400 0.915300
H561 H 0.587300 -0.351700 0.884800
H562 H 0.578300 0.760300 0.627000
H563 H 0.706500 -0.299400 0.860400
H564 H 0.692700 -0.271300 0.937300
H565 H 0.701900 0.783900 0.622400
H566 H 0.757000 -0.084400 0.889000
H567 H 0.682700 -0.031400 0.917700
H568 H 0.681600 0.710400 0.690700
H569 H 0.710500 -0.088500 0.780800
H570 H 0.698600 0.062900 0.811300
H571 H 0.712600 0.493100 0.647700
H572 H 0.778500 0.596300 0.639800
H573 H 0.656900 0.525500 0.474800
H574 H 0.752000 0.631500 0.527700
H575 H 0.758600 0.468400 0.540500
H576 H 1.156900 1.025500 1.025200
C577 C 0.729620 0.577200 0.624700
C578 C 0.654950 0.531000 0.524020
C579 C 0.605950 0.299000 0.571460
C580 C 0.682320 0.698300 0.642130
C581 C 0.684790 -0.035700 0.815160
C582 C 0.704970 -0.090000 0.883390
C583 C 0.606880 0.676800 0.617350
C584 C 0.680910 -0.239600 0.892120
C585 C 0.601240 -0.253200 0.880880
C586 C 0.605940 0.649000 0.543550
C587 C 0.580260 -0.199300 0.813010
C588 C 0.605320 -0.050200 0.804630
C589 C 0.579370 0.045100 0.686670
C590 C 0.893120 -0.176800 1.117350
C591 C 0.817680 -0.198300 1.142130
C592 C 0.894060 -0.149000 1.043550
C593 C 0.464650 0.035100 0.510780
C594 C 0.535350 0.964900 0.489220
C595 C 0.420630 0.954900 0.313330
C596 C 0.394680 1.050200 0.195370
C597 C 0.394060 -0.649000 0.456450
C598 C 0.419740 1.199300 0.186990
C599 C 0.393120 -0.676800 0.382650
C600 C 0.317680 -0.698300 0.357870
C601 C 0.398760 1.253200 0.119120
C602 C 0.270380 -0.577200 0.375300
C603 C 0.270160 -0.551600 0.449660
C604 C 0.319090 1.239600 0.107880
C605 C 0.345050 -0.531000 0.475980
C606 C 0.394050 -0.299000 0.428540
C607 C 0.295030 1.090000 0.116610
C608 C 0.315210 0.035700 0.184840
C609 C 0.295030 0.090000 0.116610
C610 C 0.315210 1.035700 0.184840
C611 C 0.319090 0.239600 0.107880
C612 C 0.398760 0.253200 0.119120
C613 C 0.394050 0.701000 0.428540
C614 C 0.345050 0.469000 0.475980
C615 C 0.419740 0.199300 0.186990
C616 C 0.270160 0.448400 0.449660
C617 C 0.394680 0.050200 0.195370
C618 C 0.420630 -0.045100 0.313330
C619 C 0.270380 0.422800 0.375300
C620 C 0.535350 -0.035100 0.489220
C621 C 0.572380 0.655800 0.325690
C622 C 0.317680 0.301700 0.357870
C623 C 1.105940 -0.149000 0.456450
C624 C 1.106880 -0.176800 0.382650
C625 C 0.393120 0.323200 0.382650
C626 C 1.182320 -0.198300 0.357870
C627 C 1.229620 -0.077200 0.375300
C628 C 0.394060 0.351000 0.456450
C629 C 1.229840 -0.051600 0.449660
C630 C 1.154950 -0.031000 0.475980
C631 C 0.770380 -0.077200 1.124700
C632 C 0.464650 1.035100 0.510780
C633 C 1.105950 0.201000 0.428540
C634 C 1.184790 0.535700 0.184840
C635 C 0.770160 -0.051600 1.050340
C636 C 1.204970 0.590000 0.116610
C637 C 0.579370 1.045100 0.686670
C638 C 0.605320 0.949800 0.804630
C639 C 1.180910 0.739600 0.107880
C640 C 0.580260 0.800700 0.813010
C641 C 1.101240 0.753200 0.119120
C642 C 1.080260 0.699300 0.186990
C643 C 0.601240 0.746800 0.880880
C644 C 1.105320 0.550200 0.195370
C645 C 1.079370 0.454900 0.313330
C646 C 0.680910 0.760400 0.892120
C647 C 0.616090 0.598800 0.269930
C648 C 0.964650 0.464900 0.489220
C649 C 0.704970 0.910000 0.883390
C650 C 0.894060 1.149000 0.543550
C651 C 0.893120 1.176800 0.617350
C652 C 0.684790 0.964300 0.815160
C653 C 0.817680 1.198300 0.642130
C654 C 0.770380 1.077200 0.624700
C655 C 0.605950 1.299000 0.571460
C656 C 0.654950 1.531000 0.524020
C657 C 0.770160 1.051600 0.550340
C658 C 0.729840 1.551600 0.550340
C659 C 0.845050 1.031000 0.524020
C660 C 0.894050 0.799000 0.571460
C661 C 0.729620 1.577200 0.624700
C662 C 0.815210 0.464300 0.815160
C663 C 0.795030 0.410000 0.883390
C664 C 0.682320 1.698300 0.642130
C665 C 0.819090 0.260400 0.892120
C666 C 0.898760 0.246800 0.880880
C667 C 0.606880 1.676800 0.617350
C668 C 0.919740 0.300700 0.813010
C669 C 0.894680 0.449800 0.804630
C670 C 0.605940 1.649000 0.543550
C671 C 0.920630 0.545100 0.686670
C672 C 1.035350 0.535100 0.510780
C673 C 0.845050 -0.031000 1.024020
C674 C 0.894050 0.201000 1.071460
C675 C 0.927620 0.844200 0.825690
C676 C 0.883910 0.901200 0.769930
C677 C 0.815210 0.535700 1.315160
C678 C -0.035350 0.535100 -0.010780
C679 C 0.079370 0.545100 -0.186670
C680 C 0.105320 0.449800 -0.304630
C681 C 0.105940 -0.149000 0.456450
C682 C 0.080260 0.300700 -0.313010
C683 C 0.106880 -0.176800 0.382650
C684 C 0.182320 -0.198300 0.357870
C685 C 0.101240 0.246800 -0.380880
C686 C 0.229620 -0.077200 0.375300
C687 C 0.229840 -0.051600 0.449660
C688 C 0.180910 0.260400 -0.392120
C689 C 0.154950 -0.031000 0.475980
C690 C 0.105950 0.201000 0.428540
C691 C 0.204970 0.410000 -0.383390
C692 C 0.184790 0.535700 0.184840
C693 C 0.204970 0.590000 0.116610
C694 C 0.184790 0.464300 -0.315160
C695 C 0.180910 0.739600 0.107880
C696 C 0.101240 0.753200 0.119120
C697 C 0.105950 0.799000 -0.071460
C698 C 0.154950 1.031000 -0.024020
C699 C 0.080260 0.699300 0.186990
C700 C 0.229840 1.051600 -0.050340
C701 C 0.105320 0.550200 0.195370
C702 C 0.079370 0.454900 0.313330
C703 C 0.229620 1.077200 -0.124700
C704 C 0.427620 0.655800 0.174310
C705 C -0.035350 0.464900 0.489220
C706 C 0.182320 1.198300 -0.142130
C707 C -0.105940 1.149000 0.543550
C708 C -0.106880 1.176800 0.617350
C709 C 0.106880 1.176800 -0.117350
C710 C -0.182320 1.198300 0.642130
C711 C -0.229620 1.077200 0.624700
C712 C 0.105940 1.149000 -0.043550
C713 C -0.229840 1.051600 0.550340
C714 C -0.154950 1.031000 0.524020
C715 C -0.105950 0.799000 0.571460
C716 C 0.035350 0.464900 0.010780
C717 C -0.184790 0.464300 0.815160
C718 C 0.795030 0.590000 1.383390
C719 C -0.204970 0.410000 0.883390
C720 C -0.180910 0.260400 0.892120
C721 C -0.079370 0.454900 0.186670
C722 C -0.105320 0.550200 0.304630
C723 C -0.101240 0.246800 0.880880
C724 C -0.080260 0.699300 0.313010
C725 C -0.080260 0.300700 0.813010
C726 C -0.105320 0.449800 0.804630
C727 C -0.101240 0.753200 0.380880
C728 C -0.079370 0.545100 0.686670
C729 C 0.035350 0.535100 0.510780
C730 C -0.180910 0.739600 0.392120
C731 C 0.383910 0.598800 0.230070
C732 C 0.394060 1.649000 0.956450
C733 C -0.204970 0.590000 0.383390
C734 C 0.393120 1.676800 0.882650
C735 C 0.317680 1.698300 0.857870
C736 C -0.184790 0.535700 0.315160
C737 C 0.270380 1.577200 0.875300
C738 C 0.270160 1.551600 0.949660
C739 C -0.105950 0.201000 0.071460
C740 C -0.154950 -0.031000 0.024020
C741 C 0.345050 1.531000 0.975980
C742 C -0.229840 -0.051600 0.050340
C743 C 0.394050 1.299000 0.928540
C744 C 0.315210 0.964300 0.684840
C745 C -0.229620 -0.077200 0.124700
C746 C 0.295030 0.910000 0.616610
C747 C 0.319090 0.760400 0.607880
C748 C -0.182320 -0.198300 0.142130
C749 C 0.398760 0.746800 0.619120
C750 C 0.419740 0.800700 0.686990
C751 C -0.106880 -0.176800 0.117350
C752 C 0.394680 0.949800 0.695370
C753 C 0.420630 1.045100 0.813330
C754 C -0.105940 -0.149000 0.043550
C755 C 0.072380 0.844200 0.674310
C756 C 0.535350 1.035100 0.989220
C757 C 0.819090 0.739600 1.392120
C758 C 0.116090 0.901200 0.730070
C759 C 0.605940 0.351000 1.043550
C760 C 0.898760 0.753200 1.380880
C761 C 0.606880 0.323200 1.117350
C762 C -0.035350 0.535100 0.989220
C763 C 0.079370 0.545100 0.813330
C764 C 0.105320 0.449800 0.695370
C765 C 0.682320 0.301700 1.142130
C766 C 0.080260 0.300700 0.686990
C767 C 0.729620 0.422800 1.124700
C768 C 0.729840 0.448400 1.050340
C769 C 0.101240 0.246800 0.619120
C770 C 0.654950 0.469000 1.024020
C771 C 0.605950 0.701000 1.071460
C772 C 0.180910 0.260400 0.607880
C773 C 0.684790 1.035700 1.315160
C774 C 0.704970 1.090000 1.383390
C775 C 0.204970 0.410000 0.616610
C776 C 0.680910 1.239600 1.392120
C777 C 0.601240 1.253200 1.380880
C778 C 0.184790 0.464300 0.684840
C779 C 0.580260 1.199300 1.313010
C780 C 0.605320 1.050200 1.304630
C781 C 0.105950 0.799000 0.928540
C782 C 0.154950 1.031000 0.975980
C783 C 0.579370 0.954900 1.186670
C784 C 0.229840 1.051600 0.949660
C785 C 0.464650 0.964900 1.010780
C786 C 0.427620 0.344200 0.674310
C787 C 0.229620 1.077200 0.875300
C788 C 0.394060 1.649000 -0.043550
C789 C 0.393120 1.676800 -0.117350
C790 C 0.182320 1.198300 0.857870
C791 C 0.317680 1.698300 -0.142130
C792 C 0.270380 1.577200 -0.124700
C793 C 0.106880 1.176800 0.882650
C794 C 0.270160 1.551600 -0.050340
C795 C 0.345050 1.531000 -0.024020
C796 C 0.105940 1.149000 0.956450
C797 C 0.394050 1.299000 -0.071460
C798 C 0.315210 0.964300 -0.315160
C799 C 0.295030 0.910000 -0.383390
C800 C 0.035350 0.464900 1.010780
C801 C 0.919740 0.699300 1.313010
C802 C 0.319090 0.760400 -0.392120
C803 C 0.894680 0.550200 1.304630
C804 C 0.920630 0.454900 1.186670
C805 C -0.079370 0.454900 1.186670
C806 C -0.105320 0.550200 1.304630
C807 C 0.398760 0.746800 -0.380880
C808 C -0.080260 0.699300 1.313010
C809 C 0.419740 0.800700 -0.313010
C810 C 0.394680 0.949800 -0.304630
C811 C -0.101240 0.753200 1.380880
C812 C 0.420630 1.045100 -0.186670
C813 C 0.383910 0.401200 0.730070
C814 C -0.180910 0.739600 1.392120
C815 C 0.535350 1.035100 -0.010780
C816 C 0.605940 0.351000 0.043550
C817 C -0.204970 0.590000 1.383390
C818 C 0.606880 0.323200 0.117350
C819 C 0.682320 0.301700 0.142130
C820 C -0.184790 0.535700 1.315160
C821 C 0.729620 0.422800 0.124700
C822 C 0.729840 0.448400 0.050340
C823 C -0.105950 0.201000 1.071460
C824 C -0.154950 -0.031000 1.024020
C825 C 0.654950 0.469000 0.024020
C826 C -0.229840 -0.051600 1.050340
C827 C 0.605950 0.701000 0.071460
C828 C 0.684790 1.035700 0.315160
C829 C -0.229620 -0.077200 1.124700
C830 C 0.704970 1.090000 0.383390
C831 C 0.680910 1.239600 0.392120
C832 C -0.182320 -0.198300 1.142130
C833 C 0.601240 1.253200 0.380880
C834 C 0.580260 1.199300 0.313010
C835 C -0.106880 -0.176800 1.117350
C836 C 0.605320 1.050200 0.304630
C837 C 0.579370 0.954900 0.186670
C838 C -0.105940 -0.149000 1.043550
C839 C 0.464650 0.964900 0.010780
C840 C 0.072380 0.155800 0.174310
C841 C 1.035350 0.464900 1.010780
C842 C 0.394060 0.649000 0.956450
C843 C 0.393120 0.676800 0.882650
C844 C 1.105940 1.149000 0.956450
C845 C 0.317680 0.698300 0.857870
C846 C 0.964650 0.535100 -0.010780
C847 C 1.079370 0.545100 -0.186670
C848 C 1.105320 0.449800 -0.304630
C849 C 0.270380 0.577200 0.875300
C850 C 1.080260 0.300700 -0.313010
C851 C 0.270160 0.551600 0.949660
C852 C 0.345050 0.531000 0.975980
C853 C 1.101240 0.246800 -0.380880
C854 C 0.394050 0.299000 0.928540
C855 C 0.315210 -0.035700 0.684840
C856 C 1.180910 0.260400 -0.392120
C857 C 0.295030 -0.090000 0.616610
C858 C 0.319090 -0.239600 0.607880
C859 C 1.204970 0.410000 -0.383390
C860 C 0.398760 -0.253200 0.619120
C861 C 0.419740 -0.199300 0.686990
C862 C 1.184790 0.464300 -0.315160
C863 C 0.394680 -0.050200 0.695370
C864 C 0.420630 0.045100 0.813330
C865 C 1.105950 0.799000 -0.071460
C866 C 1.154950 1.031000 -0.024020
C867 C 0.116090 0.098800 0.230070
C868 C 1.229840 1.051600 -0.050340
C869 C 0.535350 0.035100 0.989220
C870 C 0.605940 -0.649000 1.043550
C871 C 1.229620 1.077200 -0.124700
C872 C 0.606880 -0.676800 1.117350
C873 C 0.682320 -0.698300 1.142130
C874 C 1.182320 1.198300 -0.142130
C875 C 0.729620 -0.577200 1.124700
C876 C 0.729840 -0.551600 1.050340
C877 C 1.106880 1.176800 -0.117350
C878 C 0.654950 -0.531000 1.024020
C879 C 0.605950 -0.299000 1.071460
C880 C 1.105940 1.149000 -0.043550
C881 C 0.684790 0.035700 1.315160
C882 C 0.704970 0.090000 1.383390
C883 C 0.680910 0.239600 1.392120
C884 C 1.035350 0.464900 0.010780
C885 C 1.106880 1.176800 0.882650
C886 C 0.601240 0.253200 1.380880
C887 C 0.580260 0.199300 1.313010
C888 C 1.182320 1.198300 0.857870
C889 C 0.920630 0.454900 0.186670
C890 C 0.894680 0.550200 0.304630
C891 C 0.605320 0.050200 1.304630
C892 C 0.919740 0.699300 0.313010
C893 C 0.579370 -0.045100 1.186670
C894 C 0.464650 -0.035100 1.010780
C895 C 0.898760 0.753200 0.380880
C896 C 0.572380 0.344200 0.825690
C897 C 0.616090 0.401200 0.769930
C898 C 0.819090 0.739600 0.392120
C899 C 0.394060 0.649000 -0.043550
C900 C 0.393120 0.676800 -0.117350
C901 C 0.795030 0.590000 0.383390
C902 C 0.317680 0.698300 -0.142130
C903 C 0.270380 0.577200 -0.124700
C904 C 0.815210 0.535700 0.315160
C905 C 0.270160 0.551600 -0.050340
C906 C 0.345050 0.531000 -0.024020
C907 C 0.894050 0.201000 0.071460
C908 C 0.845050 -0.031000 0.024020
C909 C 0.394050 0.299000 -0.071460
C910 C 0.770160 -0.051600 0.050340
C911 C 0.315210 -0.035700 -0.315160
C912 C 0.295030 -0.090000 -0.383390
C913 C 0.770380 -0.077200 0.124700
C914 C 0.319090 -0.239600 -0.392120
C915 C 0.398760 -0.253200 -0.380880
C916 C 0.817680 -0.198300 0.142130
C917 C 0.419740 -0.199300 -0.313010
C918 C 0.394680 -0.050200 -0.304630
C919 C 0.893120 -0.176800 0.117350
C920 C 0.420630 0.045100 -0.186670
C921 C 0.927620 0.155800 0.325690
C922 C 0.894060 -0.149000 0.043550
C923 C 0.535350 0.035100 -0.010780
C924 C 0.605940 -0.649000 0.043550
C925 C 0.606880 -0.676800 0.117350
C926 C 0.682320 -0.698300 0.142130
C927 C 1.229620 1.077200 0.875300
C928 C 0.729620 -0.577200 0.124700
C929 C 0.729840 -0.551600 0.050340
C930 C 0.964650 0.535100 0.989220
C931 C 1.079370 0.545100 0.813330
C932 C 1.105320 0.449800 0.695370
C933 C 0.654950 -0.531000 0.024020
C934 C 1.080260 0.300700 0.686990
C935 C 0.605950 -0.299000 0.071460
C936 C 0.684790 0.035700 0.315160
C937 C 1.101240 0.246800 0.619120
C938 C 0.704970 0.090000 0.383390
C939 C 0.680910 0.239600 0.392120
C940 C 1.180910 0.260400 0.607880
C941 C 0.601240 0.253200 0.380880
C942 C 0.580260 0.199300 0.313010
C943 C 1.204970 0.410000 0.616610
C944 C 0.605320 0.050200 0.304630
C945 C 0.579370 -0.045100 0.186670
C946 C 1.184790 0.464300 0.684840
C947 C 0.464650 -0.035100 0.010780
C948 C 0.883910 0.098800 0.269930
C949 C 1.105950 0.799000 0.928540
C950 C 1.154950 1.031000 0.975980
C951 C 0.729840 0.551600 0.550340
C952 C 1.229840 1.051600 0.949660
N953 N 1.126800 0.900980 0.950400
N954 N 1.087870 0.500610 0.760960
N955 N 0.626800 0.599020 0.049600
N956 N 0.412130 1.000610 -0.239040
N957 N 0.373200 1.400980 -0.049600
N958 N 0.873200 0.099020 0.049600
N959 N 0.912130 0.499390 0.239040
N960 N 0.373200 0.400980 0.950400
N961 N 0.587870 0.999390 1.239040
N962 N 0.626800 0.599020 1.049600
N963 N 1.126800 0.900980 -0.049600
N964 N 1.087870 0.500610 -0.239040
N965 N 0.412130 0.000610 0.760960
N966 N 0.412130 1.000610 0.760960
N967 N 0.373200 1.400980 0.950400
N968 N 0.587870 -0.000610 0.239040
N969 N -0.087870 0.500610 0.739040
N970 N 0.626800 -0.400980 0.049600
N971 N 0.912130 0.499390 1.239040
N972 N 0.873200 0.099020 1.049600
N973 N -0.126800 0.099020 1.049600
N974 N -0.087870 0.499390 1.239040
N975 N -0.126800 0.900980 0.549600
N976 N 0.087870 0.499390 0.260960
N977 N 0.126800 0.099020 0.450400
N978 N 0.126800 0.900980 0.950400
N979 N 0.087870 0.500610 0.760960
N980 N 0.912130 0.500610 0.739040
N981 N 0.873200 0.900980 0.549600
N982 N 0.626800 -0.400980 1.049600
N983 N -0.126800 0.099020 0.049600
N984 N -0.087870 0.499390 0.239040
N985 N 1.087870 0.499390 0.260960
N986 N 1.126800 0.099020 0.450400
N987 N 0.587870 -0.000610 1.239040
N988 N 0.126800 0.900980 -0.049600
N989 N 0.087870 0.500610 -0.239040
N990 N 0.412130 -0.000610 0.260960
N991 N 0.373200 -0.400980 0.450400
N992 N 0.412130 0.000610 -0.239040
N993 N 0.626800 1.400980 0.549600
N994 N 0.587870 1.000610 0.739040
N995 N 0.373200 0.400980 -0.049600
N996 N 0.587870 0.000610 0.739040
N997 N 0.626800 0.400980 0.549600
N998 N 0.373200 0.599020 0.450400
N999 N 0.412130 0.999390 0.260960
N1000 N 0.587870 0.999390 0.239040
O1001 O 0.532590 0.891000 0.437860
O1002 O 0.467410 -0.109000 1.062140
O1003 O 0.467410 1.109000 0.562140
O1004 O 0.411170 1.014490 0.476140
O1005 O 0.411170 -0.014490 0.976140
O1006 O 0.411170 0.014490 0.476140
O1007 O 0.467410 0.109000 0.562140
O1008 O -0.032590 0.609000 -0.062140
O1009 O 0.619160 0.700400 0.375750
O1010 O -0.088830 0.514490 0.023860
O1011 O 0.588830 -0.014490 0.523860
O1012 O 0.532590 -0.109000 0.437860
O1013 O 0.032590 0.391000 0.062140
O1014 O 0.088830 0.485510 -0.023860
O1015 O 0.880840 0.200400 0.375750
O1016 O 0.588830 0.014490 0.023860
O1017 O 0.911170 0.485510 0.523860
O1018 O 0.880840 0.799600 0.875750
O1019 O 0.967410 0.391000 0.437860
O1020 O -0.032590 0.609000 0.937860
O1021 O -0.088830 0.514490 1.023860
O1022 O 1.088830 0.514490 0.476140
O1023 O 1.032590 0.609000 0.562140
O1024 O 0.532590 0.109000 0.937860
O1025 O 0.032590 0.391000 1.062140
O1026 O 0.088830 0.485510 0.976140
O1027 O 0.380840 0.700400 0.124250
O1028 O 0.619160 0.299600 0.875750
O1029 O -0.088830 0.485510 0.523860
O1030 O -0.032590 0.391000 0.437860
O1031 O 0.532590 0.109000 -0.062140
O1032 O 1.088830 0.485510 0.976140
O1033 O 0.088830 0.514490 0.476140
O1034 O 0.032590 0.609000 0.562140
O1035 O 0.588830 0.014490 1.023860
O1036 O 0.119160 0.799600 0.624250
O1037 O 1.032590 0.391000 1.062140
O1038 O 0.967410 0.609000 -0.062140
O1039 O 0.911170 0.514490 0.023860
O1040 O 0.588830 1.014490 1.023860
O1041 O 0.532590 1.109000 0.937860
O1042 O 1.032590 0.391000 0.062140
O1043 O 1.088830 0.485510 -0.023860
O1044 O 0.411170 0.985510 0.976140
O1045 O 0.380840 0.299600 0.624250
O1046 O 0.467410 0.891000 1.062140
O1047 O 0.411170 -0.014490 -0.023860
O1048 O 0.467410 -0.109000 0.062140
O1049 O 0.967410 0.609000 0.937860
O1050 O 0.467410 0.891000 0.062140
O1051 O 0.588830 1.014490 0.023860
O1052 O 0.532590 1.109000 -0.062140
O1053 O 0.911170 0.514490 1.023860
O1054 O 0.119160 0.200400 0.124250
O1055 O 0.588830 0.985510 0.523860
O1056 O 0.411170 0.985510 -0.023860
Cu1057 Cu 0.428914 1.125710 -0.102375
Cu1058 Cu 0.571086 0.874290 0.102375
Cu1059 Cu 0.571086 0.874290 1.102375
Cu1060 Cu 0.428914 1.125710 0.897625
Cu1061 Cu 0.428914 0.125710 0.897625
Cu1062 Cu -0.071086 0.625710 0.602375
Cu1063 Cu 0.071086 0.374290 0.397625
Cu1064 Cu 0.928914 0.625710 0.602375
Cu1065 Cu 1.071086 0.374290 0.397625
Cu1066 Cu 0.428914 -0.125710 0.397625
Cu1067 Cu 0.571086 0.125710 0.602375
Cu1068 Cu 0.428914 0.874290 0.397625
Cu1069 Cu 0.571086 -0.125710 1.102375
Cu1070 Cu 0.571086 1.125710 0.602375
Cu1071 Cu 0.071086 0.625710 -0.102375
Cu1072 Cu -0.071086 0.374290 0.102375
Cu1073 Cu 0.428914 0.125710 -0.102375
Cu1074 Cu 0.071086 0.625710 0.897625
Cu1075 Cu -0.071086 0.374290 1.102375
Cu1076 Cu 0.928914 0.374290 1.102375
Cu1077 Cu 1.071086 0.625710 -0.102375
Cu1078 Cu 0.928914 0.374290 0.102375
Cu1079 Cu 1.071086 0.625710 0.897625
Cu1080 Cu 0.571086 -0.125710 0.102375

#END
