./ABAGEQ_from_POSCAR.cif_generated_by_CrystalShift
_symmetry_cell_setting triclinic
_symmetry_space_group_name_H-M 'P 1'
loop_
_symmetry_equiv_pos_site_id
_symmetry_equiv_pos_as_xyz
1 x,y,z
_cell_length_a 12.278400
_cell_length_b 14.849800
_cell_length_c 14.488300
_cell_angle_alpha 90.000000
_cell_angle_beta 102.044000
_cell_angle_gamma 90.000000
_cell_volume 2583.528053
loop_
_atom_site_label
_atom_site_type_symbol
_atom_site_fract_x
_atom_site_fract_y
_atom_site_fract_z
H1 H -0.257700 0.374100 -0.497500
H2 H 0.565000 0.674100 1.015900
H3 H 0.641800 0.752300 1.071000
H4 H 0.673300 0.553100 1.265600
H5 H 0.640600 0.657400 1.253200
H6 H 0.561700 0.582800 1.193700
H7 H 0.938300 0.082800 0.306300
H8 H 0.859400 0.157400 0.246800
H9 H 0.826700 0.053100 0.234400
H10 H 0.908600 0.577900 1.375600
H11 H 0.858200 0.252300 0.429000
H12 H 0.935000 0.174100 0.484100
H13 H 0.821400 0.201100 0.514800
H14 H 0.947000 0.671000 1.428200
H15 H 0.738200 -0.008900 0.482700
H16 H 0.861500 -0.024300 0.465800
H17 H 0.756300 -0.054500 0.386900
H18 H 0.818200 0.653600 1.383300
H19 H 0.777900 0.809200 1.252900
H20 H 0.627500 0.217900 0.560900
H21 H 0.693800 0.226700 0.671600
H22 H 0.894000 0.842400 1.315700
H23 H 0.875500 0.842500 1.203100
H24 H 1.083500 0.740100 1.220400
H25 H 0.862200 -0.042400 0.867100
H26 H 1.100800 0.731600 1.332700
H27 H 1.100200 0.643100 1.269500
H28 H 0.567900 0.027100 0.927200
H29 H 0.761800 0.491100 1.017300
H30 H 0.638500 0.475700 1.034200
H31 H 0.874500 0.092200 0.697000
H32 H 0.810900 0.011500 0.634900
H33 H 0.909200 -0.010000 0.723600
H34 H 0.743700 0.445500 1.113100
H35 H 0.757700 -0.125900 0.997500
H36 H 0.699600 -0.047100 1.045200
H37 H 0.827600 -0.038400 1.038300
H38 H 1.091400 0.422100 0.624400
H39 H 0.415400 0.061200 0.737800
H40 H 0.470600 0.156700 0.724900
H41 H 0.445500 0.129100 0.825200
H42 H 1.053000 0.329000 0.571800
H43 H 1.181800 0.346400 0.616700
H44 H 0.415800 0.195100 0.564700
H45 H 0.287600 0.224800 0.543100
H46 H 1.222100 0.190800 0.747100
H47 H 0.331200 0.355800 0.465400
H48 H 0.458700 0.325300 0.481200
H49 H 0.406900 0.353100 0.569700
H50 H 1.106000 0.157600 0.684300
H51 H 0.231200 0.167600 0.305400
H52 H 0.254000 0.269000 0.341100
H53 H 1.124500 0.157500 0.796900
H54 H 0.129300 0.149300 0.429400
H55 H 0.072200 0.213200 0.343900
H56 H 0.136300 0.256400 0.441300
H57 H 0.916500 0.259900 0.779600
H58 H 0.399800 0.143100 0.230500
H59 H 0.399200 0.231600 0.167300
H60 H 0.416500 0.240100 0.279600
H61 H 0.899200 0.268400 0.667300
H62 H 0.624500 0.342500 0.296900
H63 H 0.606000 0.342400 0.184300
H64 H 0.722100 0.309200 0.247100
H65 H 0.899800 0.356900 0.730500
H66 H 0.681800 0.153600 0.116700
H67 H 0.553000 0.171000 0.071800
H68 H 0.591400 0.077900 0.124400
H69 H 0.636300 0.243600 0.941300
H70 H 0.572200 0.286800 0.843900
H71 H 0.629300 0.350700 0.929400
H72 H 0.754000 0.231000 0.841100
H73 H 0.600200 -0.143100 0.769500
H74 H 0.600800 -0.231600 0.832700
H75 H 0.583500 -0.240100 0.720400
H76 H 0.731200 0.332400 0.805400
H77 H 0.375500 -0.342500 0.703100
H78 H 0.394000 -0.342400 0.815700
H79 H 0.277900 -0.309200 0.752900
H80 H 0.906900 0.146900 1.069700
H81 H 0.318200 -0.153600 0.883300
H82 H 0.447000 -0.171000 0.928200
H83 H 0.408600 -0.077900 0.875600
H84 H 0.958700 0.174700 0.981200
H85 H 0.831200 0.144200 0.965400
H86 H 0.061700 -0.082800 0.693700
H87 H 0.140600 -0.157400 0.753200
H88 H 0.173300 -0.053100 0.765600
H89 H 0.787600 0.275200 1.043100
H90 H 0.141800 -0.252300 0.571000
H91 H 0.065000 -0.174100 0.515900
H92 H 0.178600 -0.201100 0.485200
H93 H 0.915800 0.304900 1.064700
H94 H 0.261800 0.008900 0.517300
H95 H 0.138500 0.024300 0.534200
H96 H 0.243700 0.054500 0.613100
H97 H 0.945500 0.370900 1.325200
H98 H 0.970600 0.343300 1.224900
H99 H 0.915400 0.438800 1.237800
H100 H 0.372500 -0.217900 0.439100
H101 H 0.306200 -0.226700 0.328400
H102 H 1.327600 0.538400 1.538300
H103 H 1.199600 0.547100 1.545200
H104 H 1.257700 0.625900 1.497500
H105 H 0.137800 0.042400 0.132900
H106 H 1.409200 0.510000 1.223600
H107 H 1.310900 0.488500 1.134900
H108 H 0.432100 -0.027100 0.072800
H109 H 1.374500 0.407800 1.197000
H110 H 1.067900 0.472900 1.427200
H111 H 0.584600 -0.061200 0.262200
H112 H 0.529400 -0.156700 0.275100
H113 H 0.554500 -0.129100 0.174800
H114 H 1.362200 0.542400 1.367100
H115 H 0.242300 0.125900 0.002500
H116 H 0.300400 0.047100 -0.045200
H117 H 0.172400 0.038400 -0.038300
H118 H 1.193800 0.273300 1.171600
H119 H 0.125500 -0.092200 0.303000
H120 H 0.189100 -0.011500 0.365100
H121 H 0.090800 0.010000 0.276400
H122 H 1.127500 0.282100 1.060900
H123 H 1.256300 0.554500 0.886900
H124 H 0.584200 -0.195100 0.435300
H125 H 0.712400 -0.224800 0.456900
H126 H 1.361500 0.524300 0.965800
H127 H 0.668800 -0.355800 0.534600
H128 H 0.541300 -0.325300 0.518800
H129 H 0.593100 -0.353100 0.430300
H130 H 1.238200 0.508900 0.982700
H131 H 0.768800 -0.167600 0.694600
H132 H 0.746000 -0.269000 0.658900
H133 H 1.321400 0.298900 1.014800
H134 H 0.870700 -0.149300 0.570600
H135 H 0.927800 -0.213200 0.656100
H136 H 0.863700 -0.256400 0.558700
H137 H 1.435000 0.325900 0.984100
H138 H 1.358200 0.247700 0.929000
H139 H 1.326700 0.446900 0.734400
H140 H 1.359400 0.342600 0.746800
H141 H 1.438300 0.417200 0.806300
H142 H 0.872500 0.717900 0.939100
H143 H 0.938300 1.082800 0.306300
H144 H 0.859400 1.157400 0.246800
H145 H 0.826700 1.053100 0.234400
H146 H 0.806200 0.726700 0.828400
H147 H 0.858200 1.252300 0.429000
H148 H 0.935000 1.174100 0.484100
H149 H 0.821400 1.201100 0.514800
H150 H 1.363700 0.756400 0.058700
H151 H 0.738200 0.991100 0.482700
H152 H 0.861500 0.975700 0.465800
H153 H 0.756300 0.945500 0.386900
H154 H 1.427800 0.713200 0.156100
H155 H 1.370700 0.649300 0.070600
H156 H 0.627500 1.217900 0.560900
H157 H 0.693800 1.226700 0.671600
H158 H 1.246000 0.769000 0.158900
H159 H 1.268800 0.667600 0.194600
H160 H 1.093100 0.853100 -0.069700
H161 H 0.862200 0.957600 0.867100
H162 H 1.041300 0.825300 0.018800
H163 H 1.168800 0.855800 0.034600
H164 H 0.567900 1.027100 0.927200
H165 H 1.212400 0.724800 -0.043100
H166 H 1.084200 0.695100 -0.064700
H167 H 0.874500 1.092200 0.697000
H168 H 0.810900 1.011500 0.634900
H169 H 0.909200 0.990000 0.723600
H170 H 0.590800 0.490000 -0.223600
H171 H 0.757700 0.874100 0.997500
H172 H 0.699600 0.952900 1.045200
H173 H 0.827600 0.961600 1.038300
H174 H 0.689100 0.511500 -0.134900
H175 H 0.415400 1.061200 0.737800
H176 H 0.470600 1.156700 0.724900
H177 H 0.445500 1.129100 0.825200
H178 H 0.625500 0.592200 -0.197000
H179 H 0.672400 0.461600 -0.538300
H180 H 0.415800 1.195100 0.564700
H181 H 0.287600 1.224800 0.543100
H182 H 0.800400 0.452900 -0.545200
H183 H 0.331200 1.355800 0.465400
H184 H 0.458700 1.325300 0.481200
H185 H 0.406900 1.353100 0.569700
H186 H 0.742300 0.374100 -0.497500
H187 H 0.231200 1.167600 0.305400
H188 H 0.254000 1.269000 0.341100
H189 H 1.054500 0.629100 -0.325200
H190 H 0.129300 1.149300 0.429400
H191 H 0.072200 1.213200 0.343900
H192 H 0.136300 1.256400 0.441300
H193 H 1.029400 0.656700 -0.224900
H194 H 0.399800 1.143100 0.230500
H195 H 0.399200 1.231600 0.167300
H196 H 0.416500 1.240100 0.279600
H197 H 1.084600 0.561200 -0.237800
H198 H 0.624500 1.342500 0.296900
H199 H 0.606000 1.342400 0.184300
H200 H 0.722100 1.309200 0.247100
H201 H 0.932100 0.527100 -0.427200
H202 H 0.681800 1.153600 0.116700
H203 H 0.553000 1.171000 0.071800
H204 H 0.591400 1.077900 0.124400
H205 H 0.637800 0.457600 -0.367100
H206 H 0.806200 0.726700 -0.171600
H207 H 0.872500 0.717900 -0.060900
H208 H 0.637800 0.457600 0.632900
H209 H 0.600200 0.856900 0.769500
H210 H 0.600800 0.768400 0.832700
H211 H 0.583500 0.759900 0.720400
H212 H 0.743700 0.445500 0.113100
H213 H 0.375500 0.657500 0.703100
H214 H 0.394000 0.657600 0.815700
H215 H 0.277900 0.690800 0.752900
H216 H 0.638500 0.475700 0.034200
H217 H 0.318200 0.846400 0.883300
H218 H 0.447000 0.829000 0.928200
H219 H 0.408600 0.922100 0.875600
H220 H 0.761800 0.491100 0.017300
H221 H 0.678600 0.701100 -0.014800
H222 H 0.061700 0.917200 0.693700
H223 H 0.140600 0.842600 0.753200
H224 H 0.173300 0.946900 0.765600
H225 H 0.565000 0.674100 0.015900
H226 H 0.141800 0.747700 0.571000
H227 H 0.065000 0.825900 0.515900
H228 H 0.178600 0.798900 0.485200
H229 H 0.641800 0.752300 0.071000
H230 H 0.261800 1.008900 0.517300
H231 H 0.138500 1.024300 0.534200
H232 H 0.243700 1.054500 0.613100
H233 H 0.673300 0.553100 0.265600
H234 H 0.640600 0.657400 0.253200
H235 H 0.561700 0.582800 0.193700
H236 H 0.372500 0.782100 0.439100
H237 H 0.306200 0.773300 0.328400
H238 H 0.908600 0.577900 0.375600
H239 H 0.947000 0.671000 0.428200
H240 H 0.818200 0.653600 0.383300
H241 H 0.137800 1.042400 0.132900
H242 H 0.777900 0.809200 0.252900
H243 H 0.894000 0.842400 0.315700
H244 H 0.432100 0.972900 0.072800
H245 H 0.875500 0.842500 0.203100
H246 H 1.083500 0.740100 0.220400
H247 H 0.584600 0.938800 0.262200
H248 H 0.529400 0.843300 0.275100
H249 H 0.554500 0.870900 0.174800
H250 H 1.100800 0.731600 0.332700
H251 H 0.242300 1.125900 0.002500
H252 H 0.300400 1.047100 -0.045200
H253 H 0.172400 1.038400 -0.038300
H254 H 1.100200 0.643100 0.269500
H255 H 0.125500 0.907800 0.303000
H256 H 0.189100 0.988500 0.365100
H257 H 0.090800 1.010000 0.276400
H258 H 0.932100 0.527100 0.572800
H259 H 1.091400 0.422100 -0.375600
H260 H 0.584200 0.804900 0.435300
H261 H 0.712400 0.775200 0.456900
H262 H 1.053000 0.329000 -0.428200
H263 H 0.668800 0.644200 0.534600
H264 H 0.541300 0.674700 0.518800
H265 H 0.593100 0.646900 0.430300
H266 H 1.181800 0.346400 -0.383300
H267 H 0.768800 0.832400 0.694600
H268 H 0.746000 0.731000 0.658900
H269 H 1.222100 0.190800 -0.252900
H270 H 0.870700 0.850700 0.570600
H271 H 0.927800 0.786800 0.656100
H272 H 0.863700 0.743600 0.558700
H273 H 1.106000 0.157600 -0.315700
H274 H 1.124500 0.157500 -0.203100
H275 H 0.916500 0.259900 -0.220400
H276 H 0.899200 0.268400 -0.332700
H277 H 1.363700 0.756400 1.058700
H278 H 0.899800 0.356900 -0.269500
H279 H 0.438300 0.417200 -0.193700
H280 H 0.359400 0.342600 -0.253200
H281 H 0.326700 0.446900 -0.265600
H282 H 0.636300 0.243600 -0.058700
H283 H 0.358200 0.247700 -0.071000
H284 H 0.435000 0.325900 -0.015900
H285 H 0.321400 0.298900 0.014800
H286 H 0.572200 0.286800 -0.156100
H287 H 0.238200 0.508900 -0.017300
H288 H 0.361500 0.524300 -0.034200
H289 H 0.256300 0.554500 -0.113100
H290 H 0.629300 0.350700 -0.070600
H291 H 0.754000 0.231000 -0.158900
H292 H 0.127500 0.282100 0.060900
H293 H 0.193800 0.273300 0.171600
H294 H 0.731200 0.332400 -0.194600
H295 H 0.906900 0.146900 0.069700
H296 H 0.958700 0.174700 -0.018800
H297 H 0.362200 0.542400 0.367100
H298 H 0.831200 0.144200 -0.034600
H299 H 0.787600 0.275200 0.043100
H300 H 0.067900 0.472900 0.427200
H301 H 0.915800 0.304900 0.064700
H302 H 0.945500 0.370900 0.325200
H303 H 0.374500 0.407800 0.197000
H304 H 0.310900 0.488500 0.134900
H305 H 0.409200 0.510000 0.223600
H306 H 0.970600 0.343300 0.224900
H307 H 0.257700 0.625900 0.497500
H308 H 0.199600 0.547100 0.545200
H309 H 0.327600 0.538400 0.538300
H310 H 0.915400 0.438800 0.237800
H311 H -0.084600 0.438800 0.237800
H312 H -0.029400 0.343300 0.224900
H313 H -0.054500 0.370900 0.325200
H314 H 1.427800 0.713200 1.156100
H315 H 1.327600 0.538400 0.538300
H316 H -0.084200 0.304900 0.064700
H317 H -0.212400 0.275200 0.043100
H318 H 1.199600 0.547100 0.545200
H319 H -0.168800 0.144200 -0.034600
H320 H -0.041300 0.174700 -0.018800
H321 H -0.093100 0.146900 0.069700
H322 H 1.257700 0.625900 0.497500
H323 H -0.268800 0.332400 -0.194600
H324 H -0.246000 0.231000 -0.158900
H325 H 1.409200 0.510000 0.223600
H326 H -0.370700 0.350700 -0.070600
H327 H -0.427800 0.286800 -0.156100
H328 H -0.363700 0.243600 -0.058700
H329 H 1.310900 0.488500 0.134900
H330 H -0.100200 0.356900 -0.269500
H331 H -0.100800 0.268400 -0.332700
H332 H -0.083500 0.259900 -0.220400
H333 H 1.374500 0.407800 0.197000
H334 H 0.124500 0.157500 -0.203100
H335 H 0.106000 0.157600 -0.315700
H336 H 0.222100 0.190800 -0.252900
H337 H 1.067900 0.472900 0.427200
H338 H 0.181800 0.346400 -0.383300
H339 H 0.053000 0.329000 -0.428200
H340 H 0.091400 0.422100 -0.375600
H341 H 1.370700 0.649300 1.070600
H342 H 1.362200 0.542400 0.367100
H343 H 1.246000 0.769000 1.158900
H344 H 1.193800 0.273300 0.171600
H345 H 0.100200 0.643100 0.269500
H346 H 0.100800 0.731600 0.332700
H347 H 0.083500 0.740100 0.220400
H348 H 1.127500 0.282100 0.060900
H349 H -0.124500 0.842500 0.203100
H350 H -0.106000 0.842400 0.315700
H351 H -0.222100 0.809200 0.252900
H352 H 1.256300 0.554500 -0.113100
H353 H -0.181800 0.653600 0.383300
H354 H -0.053000 0.671000 0.428200
H355 H -0.091400 0.577900 0.375600
H356 H 1.268800 0.667600 1.194600
H357 H 1.361500 0.524300 -0.034200
H358 H -0.438300 0.582800 0.193700
H359 H -0.359400 0.657400 0.253200
H360 H -0.326700 0.553100 0.265600
H361 H 1.238200 0.508900 -0.017300
H362 H -0.358200 0.752300 0.071000
H363 H -0.435000 0.674100 0.015900
H364 H -0.321400 0.701100 -0.014800
H365 H 1.321400 0.298900 0.014800
H366 H -0.238200 0.491100 0.017300
H367 H -0.361500 0.475700 0.034200
H368 H -0.256300 0.445500 0.113100
H369 H 1.435000 0.325900 -0.015900
H370 H 1.358200 0.247700 -0.071000
H371 H 1.326700 0.446900 -0.265600
H372 H -0.127500 0.717900 -0.060900
H373 H -0.193800 0.726700 -0.171600
H374 H 1.359400 0.342600 -0.253200
H375 H 1.438300 0.417200 -0.193700
H376 H 1.084600 0.561200 0.762200
H377 H -0.362200 0.457600 -0.367100
H378 H 1.029400 0.656700 0.775100
H379 H 1.054500 0.629100 0.674800
H380 H -0.067900 0.527100 -0.427200
H381 H 0.742300 0.374100 0.502500
H382 H 0.363700 0.756400 1.058700
H383 H 0.084600 0.561200 -0.237800
H384 H 0.029400 0.656700 -0.224900
H385 H 0.054500 0.629100 -0.325200
H386 H 0.427800 0.713200 1.156100
H387 H 0.678600 0.701100 0.985200
H388 H -0.199600 0.452900 -0.545200
H389 H -0.327600 0.461600 -0.538300
H390 H 0.370700 0.649300 1.070600
H391 H -0.374500 0.592200 -0.197000
H392 H -0.310900 0.511500 -0.134900
H393 H -0.409200 0.490000 -0.223600
H394 H 1.093100 0.853100 0.930300
H395 H 0.246000 0.769000 1.158900
H396 H 0.084200 0.695100 -0.064700
H397 H 0.212400 0.724800 -0.043100
H398 H 0.268800 0.667600 1.194600
H399 H 0.168800 0.855800 0.034600
H400 H 0.041300 0.825300 0.018800
H401 H 0.093100 0.853100 -0.069700
H402 H 0.093100 0.853100 0.930300
H403 H 0.268800 0.667600 0.194600
H404 H 0.246000 0.769000 0.158900
H405 H 0.041300 0.825300 1.018800
H406 H 0.370700 0.649300 0.070600
H407 H 0.427800 0.713200 0.156100
H408 H 0.363700 0.756400 0.058700
H409 H 1.041300 0.825300 1.018800
H410 H 1.168800 0.855800 1.034600
H411 H 0.168800 0.855800 1.034600
H412 H 1.212400 0.724800 0.956900
H413 H 1.084200 0.695100 0.935300
H414 H 0.212400 0.724800 0.956900
H415 H 0.438300 0.417200 0.806300
H416 H 0.359400 0.342600 0.746800
H417 H 0.326700 0.446900 0.734400
H418 H 0.084200 0.695100 0.935300
H419 H 0.358200 0.247700 0.929000
H420 H 0.435000 0.325900 0.984100
H421 H 0.321400 0.298900 1.014800
H422 H 0.800400 0.452900 0.454800
H423 H 0.238200 0.508900 0.982700
H424 H 0.361500 0.524300 0.965800
H425 H 0.256300 0.554500 0.886900
H426 H -0.409200 0.490000 0.776400
H427 H -0.310900 0.511500 0.865100
H428 H 0.127500 0.282100 1.060900
H429 H 0.193800 0.273300 1.171600
H430 H -0.374500 0.592200 0.803000
H431 H -0.327600 0.461600 0.461700
H432 H -0.199600 0.452900 0.454800
H433 H 0.362200 0.542400 1.367100
H434 H -0.257700 0.374100 0.502500
H435 H 0.054500 0.629100 0.674800
H436 H 0.067900 0.472900 1.427200
H437 H 0.029400 0.656700 0.775100
H438 H 0.084600 0.561200 0.762200
H439 H 0.374500 0.407800 1.197000
H440 H 0.310900 0.488500 1.134900
H441 H 0.409200 0.510000 1.223600
H442 H -0.067900 0.527100 0.572800
H443 H 0.257700 0.625900 1.497500
H444 H 0.199600 0.547100 1.545200
H445 H 0.327600 0.538400 1.538300
H446 H -0.362200 0.457600 0.632900
H447 H -0.084600 0.438800 1.237800
H448 H -0.029400 0.343300 1.224900
H449 H -0.054500 0.370900 1.325200
H450 H -0.193800 0.726700 0.828400
H451 H -0.127500 0.717900 0.939100
H452 H -0.084200 0.304900 1.064700
H453 H -0.212400 0.275200 1.043100
H454 H 0.672400 0.461600 0.461700
H455 H -0.168800 0.144200 0.965400
H456 H -0.041300 0.174700 0.981200
H457 H -0.093100 0.146900 1.069700
H458 H -0.256300 0.445500 1.113100
H459 H -0.268800 0.332400 0.805400
H460 H -0.246000 0.231000 0.841100
H461 H -0.361500 0.475700 1.034200
H462 H -0.370700 0.350700 0.929400
H463 H -0.427800 0.286800 0.843900
H464 H -0.363700 0.243600 0.941300
H465 H -0.238200 0.491100 1.017300
H466 H -0.100200 0.356900 0.730500
H467 H -0.100800 0.268400 0.667300
H468 H -0.083500 0.259900 0.779600
H469 H -0.321400 0.701100 0.985200
H470 H 0.124500 0.157500 0.796900
H471 H 0.106000 0.157600 0.684300
H472 H 0.222100 0.190800 0.747100
H473 H -0.435000 0.674100 1.015900
H474 H 0.181800 0.346400 0.616700
H475 H 0.053000 0.329000 0.571800
H476 H 0.091400 0.422100 0.624400
H477 H 0.590800 0.490000 0.776400
H478 H 0.689100 0.511500 0.865100
H479 H 0.625500 0.592200 0.803000
H480 H -0.358200 0.752300 1.071000
H481 H 0.100200 0.643100 1.269500
H482 H 0.100800 0.731600 1.332700
H483 H 0.083500 0.740100 1.220400
H484 H -0.326700 0.553100 1.265600
H485 H -0.124500 0.842500 1.203100
H486 H -0.106000 0.842400 1.315700
H487 H -0.222100 0.809200 1.252900
H488 H -0.359400 0.657400 1.253200
H489 H -0.181800 0.653600 1.383300
H490 H -0.053000 0.671000 1.428200
H491 H -0.091400 0.577900 1.375600
H492 H -0.438300 0.582800 1.193700
C493 C -0.360900 0.599400 1.220600
C494 C 0.653200 0.530400 0.801200
C495 C -0.105400 0.642900 1.375800
C496 C -0.141300 0.810800 1.257800
C497 C -0.358100 0.694300 1.038700
C498 C 0.067900 0.703100 1.272200
C499 C 0.105400 0.357100 0.624200
C500 C 0.141300 0.189200 0.742200
C501 C -0.284700 0.490600 1.064700
C502 C -0.067900 0.296900 0.727800
C503 C -0.364300 0.293500 0.897100
C504 C -0.259300 0.292900 0.861600
C505 C -0.108500 0.176100 1.007700
C506 C -0.122500 0.607700 0.862100
C507 C -0.150600 0.692200 0.878100
C508 C -0.143100 0.274100 1.018300
C509 C 1.143100 0.725900 0.981700
C510 C -0.157200 0.565600 0.765800
C511 C -0.262800 0.526700 0.737700
C512 C -0.291500 0.485800 0.650500
C513 C -0.031400 0.393300 1.268600
C514 C -0.220000 0.484600 0.587700
C515 C -0.116900 0.525800 0.615500
C516 C 0.254200 0.560600 1.506500
C517 C -0.082800 0.565100 0.703900
C518 C 0.031400 0.606700 0.731400
C519 C 0.346800 0.469600 1.198800
C520 C 0.082800 0.434900 1.296100
C521 C 0.116900 0.474200 1.384500
C522 C -0.254200 0.439400 0.493500
C523 C 0.220000 0.515400 1.412300
C524 C 0.291500 0.514200 1.349500
C525 C 0.262800 0.473300 1.262300
C526 C -0.346800 0.530400 0.801200
C527 C 0.157200 0.434400 1.234200
C528 C 1.289500 0.716700 0.074600
C529 C 0.122500 0.392300 1.137900
C530 C 0.284700 0.509400 0.935300
C531 C 0.143100 0.725900 0.981700
C532 C 0.358100 0.305700 0.961300
C533 C 0.360900 0.400600 0.779400
C534 C 0.108500 0.823900 0.992300
C535 C 1.108500 0.823900 0.992300
C536 C 0.364300 0.706500 0.102900
C537 C 0.259300 0.707100 0.138400
C538 C 0.259300 0.707100 1.138400
C539 C 0.108500 0.823900 -0.007700
C540 C 0.143100 0.725900 -0.018300
C541 C 0.364300 0.706500 1.102900
C542 C -0.346800 0.530400 -0.198800
C543 C -0.254200 0.439400 -0.506500
C544 C 0.031400 0.606700 -0.268600
C545 C -0.082800 0.565100 -0.296100
C546 C 0.745800 0.439400 0.493500
C547 C -0.116900 0.525800 -0.384500
C548 C -0.220000 0.484600 -0.412300
C549 C -0.291500 0.485800 -0.349500
C550 C 1.360900 0.400600 -0.220600
C551 C -0.262800 0.526700 -0.262300
C552 C -0.157200 0.565600 -0.234200
C553 C -0.150600 0.692200 -0.121900
C554 C 1.358100 0.305700 -0.038700
C555 C -0.122500 0.607700 -0.137900
C556 C 1.259300 0.707100 1.138400
C557 C -0.284700 0.490600 0.064700
C558 C 1.284700 0.509400 -0.064700
C559 C -0.358100 0.694300 0.038700
C560 C -0.360900 0.599400 0.220600
C561 C -0.105400 0.642900 0.375800
C562 C 1.122500 0.392300 0.137900
C563 C 1.150600 0.307800 0.121900
C564 C -0.141300 0.810800 0.257800
C565 C 0.067900 0.703100 0.272200
C566 C 1.157200 0.434400 0.234200
C567 C 1.262800 0.473300 0.262300
C568 C 1.291500 0.514200 0.349500
C569 C 1.364300 0.706500 1.102900
C570 C 1.220000 0.515400 0.412300
C571 C 1.116900 0.474200 0.384500
C572 C 0.105400 0.357100 -0.375800
C573 C 1.082800 0.434900 0.296100
C574 C 1.346800 0.469600 0.198800
C575 C 0.141300 0.189200 -0.257800
C576 C -0.067900 0.296900 -0.272200
C577 C -0.364300 0.293500 -0.102900
C578 C 1.254200 0.560600 0.506500
C579 C -0.259300 0.292900 -0.138400
C580 C -0.108500 0.176100 0.007700
C581 C -0.143100 0.274100 0.018300
C582 C 0.968600 0.393300 0.268600
C583 C -0.031400 0.393300 0.268600
C584 C 0.254200 0.560600 0.506500
C585 C 0.346800 0.469600 0.198800
C586 C 1.031400 0.606700 0.731400
C587 C 0.856900 0.274100 0.018300
C588 C 0.082800 0.434900 0.296100
C589 C 0.116900 0.474200 0.384500
C590 C 0.891500 0.176100 0.007700
C591 C 0.220000 0.515400 0.412300
C592 C 0.291500 0.514200 0.349500
C593 C 0.262800 0.473300 0.262300
C594 C 0.740700 0.292900 -0.138400
C595 C 0.157200 0.434400 0.234200
C596 C 0.150600 0.307800 0.121900
C597 C 0.635700 0.293500 -0.102900
C598 C 0.122500 0.392300 0.137900
C599 C 0.284700 0.509400 -0.064700
C600 C 0.358100 0.305700 -0.038700
C601 C 0.932100 0.296900 -0.272200
C602 C 0.360900 0.400600 -0.220600
C603 C 0.823000 0.079000 0.258000
C604 C 0.825000 0.173000 0.437500
C605 C 1.141300 0.189200 -0.257800
C606 C 0.820000 0.019400 0.432000
C607 C 0.434700 0.307800 0.455200
C608 C 0.864300 0.793500 0.602900
C609 C 1.105400 0.357100 -0.375800
C610 C 0.759300 0.792900 0.638400
C611 C 0.608500 0.676100 0.492300
C612 C 0.643100 0.774100 0.481700
C613 C 0.917200 0.565100 0.703900
C614 C 0.448100 0.357300 0.549600
C615 C 0.883100 0.525800 0.615500
C616 C 1.067900 0.703100 0.272200
C617 C 0.153200 0.969600 0.301200
C618 C 0.245800 1.060600 -0.006500
C619 C 0.531400 0.893300 0.231400
C620 C 0.858700 0.810800 0.257800
C621 C 0.417200 0.934900 0.203900
C622 C 0.383100 0.974200 0.115500
C623 C 0.280000 1.015400 0.087700
C624 C 0.894600 0.642900 0.375800
C625 C 0.208500 1.014200 0.150500
C626 C 0.237200 0.973300 0.237700
C627 C 0.342800 0.934400 0.265800
C628 C 0.780000 0.484600 0.587700
C629 C 0.639100 0.599400 0.220600
C630 C 0.349400 0.807800 0.378100
C631 C 0.377500 0.892300 0.362100
C632 C 0.312400 0.188800 0.493500
C633 C 0.641900 0.694300 0.038700
C634 C 0.215300 1.009400 0.564700
C635 C 0.141900 0.805700 0.538700
C636 C 0.139100 0.900600 0.720600
C637 C 0.715300 0.490600 0.064700
C638 C 0.210500 0.216700 0.425400
C639 C 0.394600 0.857100 0.875800
C640 C 0.358700 0.689200 0.757800
C641 C 0.567900 0.796900 0.772200
C642 C 0.877500 0.607700 -0.137900
C643 C 0.849400 0.692200 -0.121900
C644 C 0.323000 0.421000 0.758000
C645 C 0.325000 0.327000 0.937500
C646 C 0.842800 0.565600 -0.234200
C647 C 0.737200 0.526700 -0.262300
C648 C 0.708500 0.485800 -0.349500
C649 C 0.320000 0.480600 0.932000
C650 C 0.780000 0.484600 -0.412300
C651 C 0.883100 0.525800 -0.384500
C652 C 0.605400 1.142900 0.124200
C653 C 0.917200 0.565100 -0.296100
C654 C 1.031400 0.606700 -0.268600
C655 C 0.641300 1.310800 0.242200
C656 C 0.432100 1.203100 0.227800
C657 C 0.135700 1.206500 0.397100
C658 C 0.745800 0.439400 -0.506500
C659 C 0.240700 1.207100 0.361600
C660 C 0.391500 1.323900 0.507700
C661 C 0.356900 1.225900 0.518300
C662 C 0.653200 0.530400 -0.198800
C663 C -0.065300 0.192200 0.955200
C664 C 0.468600 1.106700 0.768600
C665 C 0.754200 0.939400 1.006500
C666 C 0.708500 0.485800 0.650500
C667 C 1.143100 0.725900 -0.018300
C668 C 0.846800 1.030400 0.698800
C669 C 0.582800 1.065100 0.796100
C670 C 1.108500 0.823900 -0.007700
C671 C 0.616900 1.025800 0.884500
C672 C 0.720000 0.984600 0.912300
C673 C 0.791500 0.985800 0.849500
C674 C 1.259300 0.707100 0.138400
C675 C 0.762800 1.026700 0.762300
C676 C 0.657200 1.065600 0.734200
C677 C 1.364300 0.706500 0.102900
C678 C 0.650600 1.192200 0.621900
C679 C 0.622500 1.107700 0.637900
C680 C 0.784700 0.990600 0.435300
C681 C 0.737200 0.526700 0.737700
C682 C 0.842800 0.565600 0.765800
C683 C 0.858100 1.194300 0.461300
C684 C 0.860900 1.099400 0.279400
C685 C 0.849400 0.692200 0.878100
C686 C 1.360900 0.400600 0.779400
C687 C -0.051900 0.142700 1.049600
C688 C -0.187600 0.311200 0.993500
C689 C -0.289500 0.283300 0.925400
C690 C 1.358100 0.305700 0.961300
C691 C 0.177000 0.921000 0.742000
C692 C 0.175000 0.827000 0.562500
C693 C 0.864300 -0.206500 0.602900
C694 C 1.284700 0.509400 0.935300
C695 C 0.759300 -0.207100 0.638400
C696 C 0.608500 -0.323900 0.492300
C697 C 0.643100 -0.225900 0.481700
C698 C 1.122500 0.392300 1.137900
C699 C 1.150600 0.307800 1.121900
C700 C 0.180000 0.980600 0.568000
C701 C 0.153200 -0.030400 0.301200
C702 C 1.157200 0.434400 1.234200
C703 C 1.262800 0.473300 1.262300
C704 C 1.291500 0.514200 1.349500
C705 C 0.245800 0.060600 -0.006500
C706 C 1.220000 0.515400 1.412300
C707 C 1.116900 0.474200 1.384500
C708 C 0.531400 -0.106700 0.231400
C709 C 1.082800 0.434900 1.296100
C710 C 1.346800 0.469600 1.198800
C711 C 0.417200 -0.065100 0.203900
C712 C 0.383100 -0.025800 0.115500
C713 C 0.280000 0.015400 0.087700
C714 C 1.254200 0.560600 1.506500
C715 C 0.208500 0.014200 0.150500
C716 C 0.237200 -0.026700 0.237700
C717 C 0.342800 -0.065600 0.265800
C718 C 0.968600 0.393300 1.268600
C719 C 0.349400 -0.192200 0.378100
C720 C 0.377500 -0.107700 0.362100
C721 C 0.565300 0.692200 0.544800
C722 C 0.877500 0.607700 0.862100
C723 C 0.856900 0.274100 1.018300
C724 C 0.215300 0.009400 0.564700
C725 C 0.141900 -0.194300 0.538700
C726 C 0.891500 0.176100 1.007700
C727 C 0.139100 -0.099400 0.720600
C728 C 0.551900 0.642700 0.450400
C729 C 0.394600 -0.142900 0.875800
C730 C 0.740700 0.292900 0.861600
C731 C 0.358700 -0.310800 0.757800
C732 C 0.567900 -0.203100 0.772200
C733 C 0.635700 0.293500 0.897100
C734 C 0.687600 0.811200 0.506500
C735 C 0.789500 0.783300 0.574600
C736 C 0.677000 0.579000 0.242000
C737 C 0.932100 0.296900 0.727800
C738 C 0.605400 0.142900 0.124200
C739 C 0.641300 0.310800 0.242200
C740 C 0.432100 0.203100 0.227800
C741 C 1.141300 0.189200 0.742200
C742 C 0.135700 0.206500 0.397100
C743 C 0.240700 0.207100 0.361600
C744 C 0.391500 0.323900 0.507700
C745 C 1.105400 0.357100 0.624200
C746 C 0.356900 0.225900 0.518300
C747 C 0.675000 0.673000 0.062500
C748 C 0.468600 0.106700 0.768600
C749 C 0.754200 -0.060600 1.006500
C750 C 0.846800 0.030400 0.698800
C751 C 0.582800 0.065100 0.796100
C752 C 1.067900 0.703100 1.272200
C753 C 0.616900 0.025800 0.884500
C754 C 0.720000 -0.015400 0.912300
C755 C 0.791500 -0.014200 0.849500
C756 C 0.858700 0.810800 1.257800
C757 C 0.762800 0.026700 0.762300
C758 C 0.657200 0.065600 0.734200
C759 C 0.650600 0.192200 0.621900
C760 C 0.894600 0.642900 1.375800
C761 C 0.622500 0.107700 0.637900
C762 C 0.784700 -0.009400 0.435300
C763 C 0.858100 0.194300 0.461300
C764 C 0.715300 0.490600 1.064700
C765 C 0.639100 0.599400 1.220600
C766 C 0.860900 0.099400 0.279400
C767 C 0.680000 0.519400 0.068000
C768 C 1.065300 0.807800 0.044800
C769 C 0.641900 0.694300 1.038700
C770 C 1.051900 0.857300 -0.049600
C771 C 1.187600 0.688800 0.006500
C772 C 0.150600 0.307800 1.121900
N773 N -0.138900 0.631700 0.163100
N774 N 0.638900 1.131700 0.336900
N775 N 0.861100 0.631700 1.163100
N776 N 0.638900 0.131700 0.336900
N777 N 0.361100 0.868300 0.663100
N778 N 0.361100 -0.131700 0.663100
N779 N 0.138900 0.368300 -0.163100
N780 N 0.138900 0.368300 0.836900
N781 N -0.138900 0.631700 1.163100
N782 N 1.138900 0.368300 0.836900
N783 N 1.138900 0.368300 -0.163100
N784 N 0.861100 0.631700 0.163100
O785 O 0.938500 0.554370 -0.071250
O786 O 0.584300 0.787900 0.534800
O787 O 0.661200 -0.177500 0.570000
O788 O 1.161200 0.677500 0.070000
O789 O 0.561500 1.054370 0.571250
O790 O 0.838800 0.322500 -0.070000
O791 O 0.338800 1.177500 0.430000
O792 O -0.084300 0.287900 0.965200
O793 O 1.061500 0.445630 0.071250
O794 O 0.561500 0.054370 0.571250
O795 O 1.084300 0.712100 0.034800
O796 O 0.161200 0.677500 1.070000
O797 O -0.061500 0.554370 0.928750
O798 O 0.938500 0.554370 0.928750
O799 O 0.438500 0.945630 0.428750
O800 O 1.061500 0.445630 1.071250
O801 O 0.661200 0.822500 0.570000
O802 O 1.161200 0.677500 1.070000
O803 O -0.161200 0.322500 0.930000
O804 O 0.838800 0.322500 0.930000
O805 O 0.415700 0.212100 0.465200
O806 O 0.061500 0.445630 1.071250
O807 O 0.061500 0.445630 0.071250
O808 O 0.338800 0.177500 0.430000
O809 O 0.161200 0.677500 0.070000
O810 O -0.061500 0.554370 -0.071250
O811 O -0.161200 0.322500 -0.070000
O812 O 0.438500 -0.054370 0.428750
Si813 Si -0.086260 0.692980 0.260990
Si814 Si 0.760200 0.593300 0.146000
Si815 Si -0.280980 0.609110 0.123130
Si816 Si 0.280980 0.390890 -0.123130
Si817 Si 0.739800 0.093300 0.354000
Si818 Si 0.086260 0.307020 -0.260990
Si819 Si 1.086260 0.307020 0.739010
Si820 Si 1.280980 0.390890 0.876870
Si821 Si 0.086260 0.307020 0.739010
Si822 Si 0.280980 0.390890 0.876870
Si823 Si 0.780980 0.109110 0.376870
Si824 Si -0.086260 0.692980 1.260990
Si825 Si 0.219020 0.890890 0.623130
Si826 Si 0.239800 0.406700 0.854000
Si827 Si 0.413740 0.807020 0.760990
Si828 Si -0.280980 0.609110 1.123130
Si829 Si 0.413740 -0.192980 0.760990
Si830 Si 1.086260 0.307020 -0.260990
Si831 Si 1.280980 0.390890 -0.123130
Si832 Si 0.780980 1.109110 0.376870
Si833 Si 0.586260 1.192980 0.239010
Si834 Si 0.586260 0.192980 0.239010
Si835 Si 0.260200 0.906700 0.646000
Si836 Si 0.913740 0.692980 1.260990
Si837 Si 0.219020 -0.109110 0.623130
Si838 Si 0.913740 0.692980 0.260990
Si839 Si 0.719020 0.609110 0.123130
Si840 Si 0.719020 0.609110 1.123130
Ca841 Ca 0.503490 1.087430 0.415330
Ca842 Ca 0.496510 0.912570 0.584670
Ca843 Ca 0.003490 0.412570 -0.084670
Ca844 Ca -0.003490 0.587430 0.084670
Ca845 Ca 0.496510 -0.087430 0.584670
Ca846 Ca 0.003490 0.412570 0.915330
Ca847 Ca -0.003490 0.587430 1.084670
Ca848 Ca 1.003490 0.412570 -0.084670
Ca849 Ca 0.996510 0.587430 0.084670
Ca850 Ca 1.003490 0.412570 0.915330
Ca851 Ca 0.996510 0.587430 1.084670
Ca852 Ca 0.503490 0.087430 0.415330

#END
