
#######################################################################
#
#                 Cambridge Crystallographic Data Centre
#                                CCDC 
#
#######################################################################
#
# If this CIF has been generated from an entry in the Cambridge 
# Structural Database, then it will include bibliographic, chemical, 
# crystal, experimental, refinement or atomic coordinate data resulting 
# from the CCDC's data processing and validation procedures.
#
#######################################################################

data_ABAHIW
_symmetry_cell_setting           triclinic
_symmetry_space_group_name_H-M   'P -1'
_symmetry_Int_Tables_number      2
_space_group_name_Hall           '-P 1'
loop_
_symmetry_equiv_pos_site_id
_symmetry_equiv_pos_as_xyz
1 x,y,z
2 -x,-y,-z
_cell_length_a                   6.729(4)
_cell_length_b                   7.192(4)
_cell_length_c                   10.388(6)
_cell_angle_alpha                94.751(9)
_cell_angle_beta                 92.503(7)
_cell_angle_gamma                95.901(10)
_cell_volume                     497.654
loop_
_atom_site_label
_atom_site_type_symbol
_atom_site_fract_x
_atom_site_fract_y
_atom_site_fract_z
O1 O 0.24504(18) 0.35230(15) 0.12880(10)
O2 O 0.3016(2) 0.12996(17) 0.26213(12)
O3 O 0.2023(2) 0.79014(18) 0.77175(11)
O4 O 0.2382(3) 1.00939(19) 0.64283(13)
N1 N 0.2278(2) 0.8444(2) 0.66434(13)
C1 C 0.2535(2) 0.3845(2) 0.47750(14)
H1 H 0.2540 0.2559 0.4922
C2 C 0.2421(2) 0.5176(2) 0.58075(14)
H2 H 0.2325 0.4818 0.6665
C3 C 0.2450(2) 0.7032(2) 0.55569(14)
C4 C 0.2586(2) 0.7627(2) 0.43241(14)
H3 H 0.2618 0.8919 0.4186
C5 C 0.2672(2) 0.6275(2) 0.32976(14)
H4 H 0.2752 0.6638 0.2441
C6 C 0.2642(2) 0.4393(2) 0.35198(14)
C7 C 0.2732(2) 0.2890(2) 0.24432(14)
C8 C 0.2391(2) 0.2167(2) 0.01385(15)
H5 H 0.2027 0.0870 0.0392
C9 C 0.4432(3) 0.2293(3) -0.04028(18)
H6 H 0.4766 0.3551 -0.0682
H7 H 0.4435 0.1358 -0.1145
H8 H 0.5424 0.2052 0.0265
C10 C 0.0769(3) 0.2689(3) -0.07652(17)
H9 H -0.0497 0.2638 -0.0331
H10 H 0.0624 0.1806 -0.1543
H11 H 0.1125 0.3963 -0.1010
O1 O 0.75496(18) 0.64770(15) 0.87120(10)
O2 O 0.6984(2) 0.87004(17) 0.73787(12)
O3 O 0.7977(2) 0.20986(18) 0.22825(11)
O4 O 0.7618(3) -0.00939(19) 0.35717(13)
N1 N 0.7722(2) 0.1556(2) 0.33566(13)
C1 C 0.7465(2) 0.6155(2) 0.52250(14)
H1 H 0.7460 0.7441 0.5078
C2 C 0.7579(2) 0.4824(2) 0.41925(14)
H2 H 0.7675 0.5182 0.3335
C3 C 0.7550(2) 0.2968(2) 0.44431(14)
C4 C 0.7414(2) 0.2373(2) 0.56759(14)
H3 H 0.7382 0.1081 0.5814
C5 C 0.7328(2) 0.3725(2) 0.67024(14)
H4 H 0.7248 0.3362 0.7559
C6 C 0.7358(2) 0.5607(2) 0.64802(14)
C7 C 0.7268(2) 0.7110(2) 0.75568(14)
C8 C 0.7609(2) 0.7833(2) 0.98615(15)
H5 H 0.7973 0.9130 0.9608
C9 C 0.5568(3) 0.7707(3) 1.04028(18)
H6 H 0.5234 0.6449 1.0682
H7 H 0.5565 0.8642 1.1145
H8 H 0.4576 0.7948 0.9735
C10 C 0.9231(3) 0.7311(3) 1.07652(17)
H9 H 1.0497 0.7362 1.0331
H10 H 0.9376 0.8194 1.1543
H11 H 0.8875 0.6037 1.1010

#END
