./ABAJIZ_from_POSCAR.cif_generated_by_CrystalShift
_symmetry_cell_setting triclinic
_symmetry_space_group_name_H-M 'P 1'
loop_
_symmetry_equiv_pos_site_id
_symmetry_equiv_pos_as_xyz
1 x,y,z
_cell_length_a 16.699600
_cell_length_b 8.944300
_cell_length_c 25.906000
_cell_angle_alpha 90.000000
_cell_angle_beta 119.151000
_cell_angle_gamma 90.000000
_cell_volume 3379.369130
loop_
_atom_site_label
_atom_site_type_symbol
_atom_site_fract_x
_atom_site_fract_y
_atom_site_fract_z
H1 H 0.922700 0.397400 0.987900
H2 H -0.066200 0.550600 0.715200
H3 H 0.734000 1.280300 0.432200
H4 H 0.096200 0.433200 0.728000
H5 H 0.617500 1.234400 0.327700
H6 H 0.138500 0.676100 0.779700
H7 H 0.880600 0.949000 0.495700
H8 H 0.855400 1.103500 0.515500
H9 H 0.922700 1.102600 0.487900
H10 H 0.057400 0.649100 0.794800
H11 H 0.662200 0.868000 0.277900
H12 H 0.640100 1.030400 0.247900
H13 H 0.413300 0.403900 0.982000
H14 H 0.525900 0.889300 0.288400
H15 H 0.359900 0.453800 1.016400
H16 H 0.485000 1.087000 0.195400
H17 H 0.411100 1.010900 0.212300
H18 H 0.394300 0.577300 0.986900
H19 H 0.772200 0.474300 0.329400
H20 H 0.094500 0.326800 0.839500
H21 H 0.837800 0.240100 0.334000
H22 H 0.226800 0.267000 0.936400
H23 H 0.995000 0.206300 0.400800
H24 H 0.251500 1.064700 0.826600
H25 H 1.081300 0.407900 0.458800
H26 H 0.312000 1.294800 0.821400
H27 H 1.007600 0.639300 0.448200
H28 H 0.502000 0.403900 0.567900
H29 H 0.469300 1.328700 0.872800
H30 H 0.437500 0.636400 0.570500
H31 H 0.498000 0.596100 0.432100
H32 H 0.530700 0.828700 0.627200
H33 H 0.562500 0.363600 0.429500
H34 H 0.469300 0.171300 0.372800
H35 H 0.312000 0.205200 0.321400
H36 H 0.266000 0.780300 0.067800
H37 H 0.251500 0.435300 0.326600
H38 H 0.382500 0.734400 0.172300
H39 H -0.055900 1.078300 0.173500
H40 H 0.119400 0.449000 0.004300
H41 H 0.144600 0.603500 -0.015500
H42 H 0.077300 0.602600 0.012100
H43 H -0.066200 0.949400 0.215200
H44 H 0.337800 0.368000 0.222100
H45 H 0.359900 0.530400 0.252100
H46 H 0.096200 1.066800 0.228000
H47 H 0.474100 0.389300 0.211600
H48 H 0.138500 0.823900 0.279700
H49 H 0.515000 0.587000 0.304600
H50 H 0.588900 0.510900 0.287700
H51 H 0.057400 0.850900 0.294800
H52 H 0.227800 -0.025700 0.170600
H53 H 0.413300 1.096100 0.482000
H54 H 0.162200 -0.259900 0.166000
H55 H 0.359900 1.046200 0.516400
H56 H 0.005000 -0.293700 0.099200
H57 H 0.394300 0.922700 0.486900
H58 H -0.081300 -0.092100 0.041200
H59 H 0.094500 1.173200 0.339500
H60 H -0.007600 0.139300 0.051800
H61 H 0.688000 0.794800 0.678600
H62 H 0.226800 1.233000 0.436400
H63 H 0.748500 0.564700 0.673400
H64 H 0.562500 1.136400 0.929500
H65 H 1.055900 -0.078300 0.826500
H66 H 1.066200 0.050600 0.784800
H67 H 0.498000 0.903900 0.932100
H68 H 0.773200 -0.233000 0.563600
H69 H 0.266000 -0.280300 0.567800
H70 H 0.502000 0.096100 0.067900
H71 H 0.382500 -0.234400 0.672300
H72 H 0.437500 -0.136400 0.070500
H73 H 0.119400 0.051000 0.504300
H74 H 0.144600 -0.103500 0.484500
H75 H 0.077300 -0.102600 0.512100
H76 H 0.530700 -0.328700 0.127200
H77 H 0.337800 0.132000 0.722100
H78 H 0.359900 -0.030400 0.752100
H79 H 0.688000 -0.294800 0.178600
H80 H 0.474100 0.110700 0.711600
H81 H 0.748500 -0.064700 0.173400
H82 H 0.515000 -0.087000 0.804600
H83 H 0.588900 -0.010900 0.787700
H84 H 1.055900 0.578300 0.326500
H85 H 0.227800 0.525700 0.670600
H86 H 1.066200 0.449400 0.284800
H87 H 0.162200 0.759900 0.666000
H88 H 0.903800 0.566800 0.272000
H89 H 0.005000 0.793700 0.599200
H90 H 0.861500 0.323900 0.220300
H91 H -0.081300 0.592100 0.541200
H92 H 0.942600 0.350900 0.205200
H93 H -0.007600 0.360700 0.551800
H94 H 0.586700 0.596100 0.018000
H95 H 0.903800 -0.066800 0.772000
H96 H 0.640100 0.546200 -0.016400
H97 H 0.861500 0.176100 0.720300
H98 H 0.942600 0.149100 0.705200
H99 H 0.605700 0.422700 0.013100
H100 H 0.905500 0.673200 0.160500
H101 H 0.773200 0.733000 0.063600
H102 H 0.734000 0.219700 0.932200
H103 H 0.905500 -0.173200 0.660500
H104 H 0.617500 0.265600 0.827700
H105 H 0.605700 0.077300 0.513100
H106 H 0.880600 0.551000 0.995700
H107 H 0.855400 0.396500 1.015500
H108 H -0.055900 0.421700 0.673500
H109 H 0.640100 -0.046200 0.483600
H110 H 0.662200 0.632000 0.777900
H111 H 0.640100 0.469600 0.747900
H112 H 0.586700 -0.096100 0.518000
H113 H 0.525900 0.610700 0.788400
H114 H 1.007600 0.860700 0.948200
H115 H 0.485000 0.413000 0.695400
H116 H 0.411100 0.489100 0.712300
H117 H 1.081300 1.092100 0.958800
H118 H 0.772200 1.025700 0.829400
H119 H 0.995000 1.293700 0.900800
H120 H 0.837800 1.259900 0.834000
C121 C 0.966800 1.199300 0.897600
C122 C 0.874000 1.180100 0.858400
C123 C 1.017700 1.081300 0.931800
C124 C 0.835700 1.039800 0.856000
C125 C 0.972800 0.943800 0.925500
C126 C 0.472400 0.476600 0.719900
C127 C 0.539800 0.547500 0.764400
C128 C 0.636800 0.532300 0.778300
C129 C 0.868600 0.444300 0.986500
C130 C 0.630300 -0.024100 0.517200
C131 C 0.667700 0.328400 0.852200
C132 C 0.851400 -0.115200 0.639400
C133 C 0.749500 0.432600 0.115300
C134 C 0.779600 0.646900 0.086800
C135 C 0.730600 0.304200 0.909000
C136 C 0.851400 0.615200 0.139400
C137 C 0.765600 0.523700 0.883200
C138 C 0.630300 0.524100 0.017200
C139 C 0.895300 0.098400 0.711400
C140 C 0.940500 -0.004300 0.762400
C141 C 1.028600 -0.011300 0.794000
C142 C 0.895300 0.401600 0.211400
C143 C 0.027200 0.443800 0.574500
C144 C -0.017700 0.581300 0.568200
C145 C 0.940500 0.504300 0.262400
C146 C 0.033200 0.699300 0.602400
C147 C 1.028600 0.511300 0.294000
C148 C 0.126000 0.680100 0.641600
C149 C 0.164300 0.539800 0.644000
C150 C 0.683900 -0.078200 0.152100
C151 C 0.527600 -0.023400 0.780100
C152 C 0.648600 -0.216100 0.155500
C153 C 0.460200 0.047500 0.735600
C154 C 0.556700 -0.235700 0.125300
C155 C 0.363200 0.032300 0.721700
C156 C 0.502000 -0.122600 0.092400
C157 C 0.131400 -0.055700 0.513500
C158 C 0.540800 0.016400 0.090600
C159 C 0.332300 -0.171600 0.647800
C160 C 0.269400 -0.195800 0.591000
C161 C 0.779600 -0.146900 0.586800
C162 C 0.749500 0.067400 0.615300
C163 C 0.234400 0.023700 0.616800
C164 C 0.459200 0.983600 0.909400
C165 C 0.683900 0.578200 0.652100
C166 C 0.250500 0.932600 0.384700
C167 C 0.220400 1.146900 0.413200
C168 C 0.648600 0.716100 0.655500
C169 C 0.148600 1.115200 0.360600
C170 C 0.027200 0.056200 0.074500
C171 C 0.369700 1.024100 0.482800
C172 C -0.017700 -0.081300 0.068200
C173 C 0.033200 -0.199300 0.102400
C174 C 0.126000 -0.180100 0.141600
C175 C 0.104700 0.901600 0.288600
C176 C 0.164300 -0.039800 0.144000
C177 C 0.527600 0.523400 0.280100
C178 C 0.059500 1.004300 0.237600
C179 C 0.460200 0.452500 0.235600
C180 C -0.028600 1.011300 0.206000
C181 C 0.363200 0.467700 0.221700
C182 C 0.131400 0.555700 0.013500
C183 C 0.316100 0.421800 0.347900
C184 C 0.332300 0.671600 0.147800
C185 C 0.351400 0.283900 0.344500
C186 C 0.269400 0.695800 0.091000
C187 C 0.443300 0.264300 0.374700
C188 C 0.234400 0.476300 0.116800
C189 C 0.498000 0.377400 0.407600
C190 C 0.556700 0.735700 0.625300
C191 C 0.459200 0.516400 0.409400
C192 C 0.502000 0.622600 0.592400
C193 C 0.498000 1.122600 0.907600
C194 C 0.540800 0.483600 0.590600
C195 C 0.443300 1.235700 0.874700
C196 C 0.972800 0.556200 0.425500
C197 C 0.351400 1.216100 0.844500
C198 C 1.017700 0.418700 0.431800
C199 C 0.250500 0.567400 0.884700
C200 C 0.220400 0.353100 0.913200
C201 C 0.966800 0.300700 0.397600
C202 C 0.148600 0.384800 0.860600
C203 C 0.874000 0.319900 0.358400
C204 C 0.369700 0.475900 0.982800
C205 C 0.835700 0.460200 0.356000
C206 C 0.472400 1.023400 0.219900
C207 C 0.539800 0.952500 0.264400
C208 C 0.104700 0.598400 0.788600
C209 C 0.636800 0.967700 0.278300
C210 C 0.868600 1.055700 0.486500
C211 C 0.059500 0.495700 0.737600
C212 C 0.667700 1.171600 0.352200
C213 C -0.028600 0.488700 0.706000
C214 C 0.730600 1.195800 0.409000
C215 C 0.765600 0.976300 0.383200
C216 C 0.316100 1.078200 0.847900
N217 N 0.790100 0.426500 0.927400
N218 N 0.690900 1.036700 0.336700
N219 N 0.209900 0.573500 0.072600
N220 N 0.368600 0.537000 0.379700
N221 N 0.168700 0.980700 0.343000
N222 N 0.282600 1.035000 0.427900
N223 N 0.309100 0.536700 0.163300
N224 N 0.116300 0.074200 0.110900
N225 N 0.790100 1.073500 0.427400
N226 N 0.282600 0.465000 0.927900
N227 N 0.168700 0.519300 0.843000
N228 N 0.368600 0.963000 0.879700
N229 N 0.209900 -0.073500 0.572600
N230 N 0.309100 -0.036700 0.663300
N231 N 0.631400 0.463000 0.620300
N232 N 0.631400 0.037000 0.120300
N233 N 0.831300 0.480700 0.157000
N234 N 0.717400 0.535000 0.072100
N235 N 0.831300 0.019300 0.657000
N236 N 0.116300 0.425800 0.610900
N237 N 0.883700 0.574200 0.389100
N238 N 0.883700 0.925800 0.889100
N239 N 0.690900 0.463300 0.836700
N240 N 0.717400 -0.035000 0.572100
I241 I 0.634790 0.141290 0.685320
I242 I 0.272300 0.334120 0.570350
I243 I 0.088500 0.101610 0.664090
I244 I 0.727700 0.834120 0.929650
I245 I 0.365210 0.641290 0.814680
I246 I 0.248960 0.883960 0.947460
I247 I 0.751040 0.116040 0.052540
I248 I 0.272300 0.165880 0.070350
I249 I 0.088500 0.398390 0.164090
I250 I 0.634790 0.358710 0.185320
I251 I 0.751040 0.383960 0.552540
I252 I 0.248960 0.616040 0.447460
I253 I 0.365210 0.858710 0.314680
I254 I 0.727700 0.665880 0.429650
I255 I 0.911500 0.898390 0.335910
I256 I 0.911500 0.601610 0.835910
Pt257 Pt 0.177060 0.281680 0.114950
Pt258 Pt 0.177060 0.218320 0.614950
Pt259 Pt 0.822940 0.718320 0.885050
Pt260 Pt 0.309050 0.760180 0.882620
Pt261 Pt 0.690950 0.239820 0.117380
Pt262 Pt 0.309050 0.739820 0.382620
Pt263 Pt 0.822940 0.781680 0.385050
Pt264 Pt 0.690950 0.260180 0.617380

#END
