./ABAKAS_from_POSCAR.cif_generated_by_CrystalShift
_symmetry_cell_setting triclinic
_symmetry_space_group_name_H-M 'P 1'
loop_
_symmetry_equiv_pos_site_id
_symmetry_equiv_pos_as_xyz
1 x,y,z
_cell_length_a 7.630100
_cell_length_b 10.043200
_cell_length_c 10.142600
_cell_angle_alpha 97.386000
_cell_angle_beta 91.663000
_cell_angle_gamma 94.241000
_cell_volume 768.090666
loop_
_atom_site_label
_atom_site_type_symbol
_atom_site_fract_x
_atom_site_fract_y
_atom_site_fract_z
H1 H 0.654600 0.821600 0.920400
H2 H 0.654700 -0.106500 0.321700
H3 H -0.274500 0.922900 0.596000
H4 H 0.782100 -0.203900 0.240400
H5 H -0.090600 1.137500 0.657600
H6 H 0.689800 -0.092600 0.169100
H7 H -0.225600 0.667700 0.649700
H8 H -0.025700 0.634000 0.671700
H9 H 1.025700 0.366000 0.328300
H10 H 1.225600 0.332300 0.350300
H11 H 0.310200 1.092600 0.830900
H12 H 0.217900 1.203900 0.759600
H13 H 0.345300 1.106500 0.678300
H14 H 1.090600 -0.137500 0.342400
H15 H 0.384900 0.492000 0.745800
H16 H 1.274500 0.077100 0.404000
H17 H 0.591900 0.357800 0.822100
H18 H 0.408100 0.642200 0.177900
H19 H 0.842500 0.460400 0.944100
H20 H 0.157500 0.539600 0.055900
H21 H 0.873500 0.696000 0.993300
H22 H 0.126500 0.304000 0.006700
H23 H 0.615100 0.508000 0.254200
H24 H 0.345400 0.178400 0.079600
C25 C 0.357100 0.273600 0.101200
C26 C 0.642900 0.726400 0.898800
C27 C 0.226600 0.347700 0.056500
C28 C 0.773400 0.652300 0.943500
C29 C 0.245000 0.486500 0.085600
C30 C 0.755000 0.513500 0.914400
C31 C 0.888700 0.119900 0.298900
C32 C 1.155900 0.067000 0.370800
C33 C 0.608100 0.453100 0.841700
C34 C 1.056000 -0.049300 0.337400
C35 C 0.484500 0.533600 0.797700
C36 C 1.103900 0.314200 0.378300
C37 C 0.257600 1.112700 0.747100
C38 C -0.094500 0.641400 0.477400
C39 C 1.094500 0.358600 0.522600
C40 C 0.742400 -0.112700 0.252900
C41 C -0.103900 0.685800 0.621700
C42 C -0.056000 1.049300 0.662600
C43 C -0.155900 0.933000 0.629200
C44 C 0.515500 0.466400 0.202300
C45 C 0.111300 0.880100 0.701100
C46 C 0.391900 0.546900 0.158300
N47 N 1.050600 0.169400 0.346900
N48 N 0.498900 0.330700 0.173800
N49 N 1.092200 0.392600 0.634300
N50 N 0.501100 0.669300 0.826200
N51 N -0.092200 0.607400 0.365700
N52 N 0.107600 1.015700 0.706000
N53 N -0.050600 0.830600 0.653100
N54 N 0.892400 -0.015700 0.294000
I55 I 0.387150 0.716980 0.514890
I56 I 0.233850 0.861050 1.007100
I57 I 0.612850 0.283020 0.485110
I58 I 0.766150 0.138950 -0.007100
Pt59 Pt 0.304000 0.781062 0.760895
Pt60 Pt 0.696000 0.218938 0.239105

#END
