./ABALIA01_from_POSCAR.cif_generated_by_CrystalShift
_symmetry_cell_setting triclinic
_symmetry_space_group_name_H-M 'P 1'
loop_
_symmetry_equiv_pos_site_id
_symmetry_equiv_pos_as_xyz
1 x,y,z
_cell_length_a 10.811000
_cell_length_b 9.522000
_cell_length_c 13.612000
_cell_angle_alpha 90.000000
_cell_angle_beta 100.786000
_cell_angle_gamma 90.000000
_cell_volume 1376.495265
loop_
_atom_site_label
_atom_site_type_symbol
_atom_site_fract_x
_atom_site_fract_y
_atom_site_fract_z
H1 H 1.256400 0.409500 0.129000
H2 H 0.158200 0.484600 0.396600
H3 H 0.376700 1.258600 -0.306000
H4 H 1.352200 0.426000 0.230000
H5 H -0.264700 0.055800 0.189900
H6 H 1.342600 0.542800 0.147800
H7 H 0.327400 1.482500 -0.068300
H8 H 0.473800 0.812100 0.824100
H9 H 0.875100 0.817400 0.181800
H10 H 0.472700 1.345700 0.031800
H11 H -0.027300 0.154300 0.531800
H12 H 0.973800 0.687900 0.324100
H13 H -0.172600 0.017500 0.431700
H14 H 0.235300 1.444200 -0.310100
H15 H 0.818500 0.870600 -0.082300
H16 H -0.123300 0.241400 0.194000
H17 H 0.658200 1.015400 -0.103400
H18 H 0.024500 0.375800 0.294400
H19 H 0.243600 -0.090500 0.371000
H20 H 0.147800 -0.074000 0.270000
H21 H 0.157400 0.042800 0.352200
H22 H 0.318500 0.629400 0.417700
H23 H 0.624900 0.317400 0.318200
H24 H 0.332000 0.097800 0.473900
H25 H 0.509500 0.769200 0.434200
H26 H 0.490500 0.230800 0.565800
H27 H 0.668000 0.902200 0.526100
H28 H 0.681500 0.370600 0.582300
H29 H 0.975500 0.624200 0.705600
H30 H 1.123300 0.758600 0.806000
H31 H 0.375100 0.682600 0.681800
H32 H 1.172600 0.982500 0.568300
H33 H 0.842600 0.957200 0.647800
H34 H 0.852200 1.074000 0.730000
H35 H 0.756400 1.090500 0.629000
H36 H 1.027300 0.845700 0.468200
H37 H 0.341800 -0.015400 1.103400
H38 H 0.526200 0.187900 0.175900
H39 H 1.009500 0.730800 -0.065800
H40 H 0.764700 -0.444200 1.310100
H41 H 1.264700 0.944200 0.810100
H42 H 0.841800 0.515400 0.603400
H43 H 0.026200 0.312100 0.675900
H44 H 1.168000 0.597800 0.026100
H45 H -0.256400 0.590500 0.871000
H46 H 0.527300 -0.345700 0.968200
H47 H -0.352200 0.574000 0.770000
H48 H 0.672600 -0.482500 1.068300
H49 H -0.342600 0.457200 0.852200
H50 H 0.124900 0.182600 0.818200
H51 H 0.623300 -0.258600 1.306000
H52 H -0.168000 0.402200 0.973900
H53 H 0.475500 -0.124200 1.205600
H54 H -0.009500 0.269200 1.065800
H55 H 0.181500 0.129400 1.082300
H56 H 0.524500 1.124200 -0.205600
C57 C 0.384720 -0.144400 1.005360
C58 C 0.073200 0.210500 0.952260
C59 C -0.014200 0.278200 0.997170
C60 C 0.482130 -0.221500 1.075570
C61 C -0.108700 0.359100 0.942460
C62 C 0.514400 -0.197000 1.177500
C63 C -0.114700 0.375800 0.841560
C64 C -0.025380 0.310900 0.795290
C65 C 0.066750 0.227600 0.849840
C66 C 0.602600 -0.277800 1.237940
C67 C -0.296000 0.524800 0.821500
C68 C 0.660600 -0.387600 1.198110
C69 C 0.632200 -0.410800 1.096460
C70 C 0.545000 -0.328900 1.036740
C71 C 0.485600 1.197000 -0.177500
C72 C 1.114700 0.624200 0.158440
C73 C 0.397400 1.277800 -0.237940
C74 C 1.108700 0.640900 0.057540
C75 C 1.025380 0.689100 0.204710
C76 C 0.933250 0.772400 0.150160
C77 C 1.014200 0.721800 0.002830
C78 C 0.339400 1.387600 -0.198110
C79 C 0.926800 0.789500 0.047740
C80 C 1.045000 0.828900 0.536740
C81 C 1.296000 0.475200 0.178500
C82 C 1.132200 0.910800 0.596460
C83 C 0.796000 1.024800 0.678500
C84 C 1.160600 0.887600 0.698110
C85 C 1.102600 0.777800 0.737940
C86 C 0.433250 0.727600 0.650160
C87 C 1.014400 0.697000 0.677500
C88 C 0.525380 0.810900 0.704710
C89 C 0.982130 0.721500 0.575570
C90 C 0.884720 0.644400 0.505360
C91 C 0.669200 0.377600 0.512970
C92 C 0.614700 0.875800 0.658440
C93 C 0.573200 0.289500 0.452260
C94 C 0.485800 0.221800 0.497170
C95 C 0.608700 0.859100 0.557540
C96 C 0.391300 0.140900 0.442460
C97 C 0.514200 0.778200 0.502830
C98 C 0.385300 0.124200 0.341560
C99 C 0.474620 0.189100 0.295290
C100 C 0.566750 0.272400 0.349840
C101 C 0.426800 0.710500 0.547740
C102 C 0.204000 -0.024800 0.321500
C103 C 0.330800 0.622400 0.487030
C104 C 0.115280 0.355600 0.494640
C105 C 0.017870 0.278500 0.424430
C106 C 0.367800 1.410800 -0.096460
C107 C -0.014400 0.303000 0.322500
C108 C -0.045000 0.171100 0.463260
C109 C -0.102600 0.222200 0.262060
C110 C -0.160600 0.112400 0.301890
C111 C 0.830800 0.877600 -0.012970
C112 C 0.615280 1.144400 -0.005360
C113 C -0.132200 0.089200 0.403540
C114 C 0.517870 1.221500 -0.075570
C115 C 0.455000 1.328900 -0.036740
C116 C 0.169200 0.122400 1.012970
N117 N 0.325190 -0.037280 1.040970
N118 N 0.236170 0.037030 0.974220
N119 N 0.736170 0.462970 0.474220
N120 N 0.263830 0.537030 0.525780
N121 N 0.825190 0.537280 0.540970
N122 N 0.674810 1.037280 -0.040970
N123 N 0.763830 0.962970 0.025780
N124 N 0.174810 0.462720 0.459030
O125 O 1.039510 0.667580 0.305570
O126 O 0.643890 1.178480 0.083860
O127 O 0.253950 1.474040 -0.252690
O128 O 0.297930 0.045530 0.278930
O129 O 0.460490 0.167580 0.194430
O130 O 0.856110 0.678480 0.416140
O131 O 1.246050 0.974040 0.752690
O132 O -0.202070 0.454470 0.778930
O133 O -0.039510 0.332420 0.694430
O134 O 0.356110 -0.178480 0.916140
O135 O 0.746050 -0.474040 1.252690
O136 O 0.702070 0.954470 0.721070
O137 O 0.539510 0.832420 0.805570
O138 O 0.143890 0.321520 0.583860
O139 O -0.246050 0.025960 0.247310
O140 O 1.202070 0.545530 0.221070

#END
