./ABAPOK_from_POSCAR.cif_generated_by_CrystalShift
_symmetry_cell_setting triclinic
_symmetry_space_group_name_H-M 'P 1'
loop_
_symmetry_equiv_pos_site_id
_symmetry_equiv_pos_as_xyz
1 x,y,z
_cell_length_a 8.886000
_cell_length_b 9.342800
_cell_length_c 12.149400
_cell_angle_alpha 72.289000
_cell_angle_beta 74.319000
_cell_angle_gamma 63.429000
_cell_volume 848.626993
loop_
_atom_site_label
_atom_site_type_symbol
_atom_site_fract_x
_atom_site_fract_y
_atom_site_fract_z
H1 H 0.597300 0.509400 0.107000
H2 H 0.839900 0.411400 0.440100
H3 H 0.622800 0.946100 -0.208300
H4 H 0.796500 0.677200 0.428100
H5 H 0.389800 1.055500 -0.300700
H6 H 0.597200 0.819100 0.564600
H7 H 0.138200 0.858600 -0.015200
H8 H 0.441500 0.696300 0.715500
H9 H 0.370800 0.751500 0.078500
H10 H 0.753400 0.821900 -0.042100
H11 H 0.392400 0.812800 0.364100
H12 H 0.607600 0.187200 0.635900
H13 H 0.558500 0.303700 0.284500
H14 H 0.402800 0.180900 0.435400
H15 H 0.246600 0.178100 1.042100
H16 H 0.203500 0.322800 0.571900
H17 H 0.160100 0.588600 0.559900
H18 H 0.629200 0.248500 0.921500
H19 H 0.402700 0.490600 0.893000
H20 H 0.861800 0.141400 1.015200
H21 H 0.262100 0.575400 0.811400
H22 H 1.133900 0.372100 0.300100
H23 H 0.610200 -0.055500 1.300700
H24 H 1.194500 0.449000 0.171500
H25 H 0.377200 0.053900 1.208300
H26 H 0.084000 1.091200 0.467200
H27 H -0.097500 0.440800 0.735800
H28 H -0.133900 0.627900 0.699900
H29 H -0.194500 0.551000 0.828500
H30 H 0.916000 -0.091200 0.532800
H31 H 0.737900 0.424600 0.188600
H32 H 1.097500 0.559200 0.264200
C33 C 0.090910 0.389800 0.893570
C34 C -0.106400 0.532000 0.761820
C35 C 0.909090 0.610200 0.106430
C36 C 0.474200 0.072970 1.169180
C37 C 0.613000 0.007200 1.224840
C38 C 0.345170 0.471050 0.845200
C39 C 0.756900 0.035230 1.166720
C40 C 0.763400 0.124600 1.053980
C41 C 0.239600 0.532170 0.503950
C42 C 0.623730 0.189410 0.998390
C43 C 0.265800 0.373000 0.511730
C44 C 0.474030 0.167760 1.055640
C45 C 0.384700 0.288670 0.429970
C46 C 0.317760 0.233540 1.006150
C47 C 0.478210 0.361940 0.339300
C48 C 0.258900 0.359770 0.918040
C49 C 0.450780 0.522700 0.331250
C50 C 0.329760 0.610330 0.413910
C51 C 0.305500 0.778170 0.404840
C52 C 0.694500 0.221830 0.595160
C53 C 0.741100 0.640230 0.081960
C54 C 0.682240 0.766460 -0.006150
C55 C 0.670240 0.389670 0.586090
C56 C 0.525970 0.832240 -0.055640
C57 C 0.376270 0.810590 0.001610
C58 C 0.549220 0.477300 0.668750
C59 C 0.236600 0.875400 -0.053980
C60 C 0.521790 0.638060 0.660700
C61 C 0.243100 0.964770 -0.166720
C62 C 0.387000 0.992800 -0.224840
C63 C 0.615300 0.711330 0.570030
C64 C 0.525800 0.927030 -0.169180
C65 C 0.734200 0.627000 0.488270
C66 C 1.106400 0.468000 0.238180
C67 C 0.654830 0.528950 0.154800
C68 C 0.760400 0.467830 0.496050
N69 N 0.831430 0.122250 0.548720
N70 N 0.168570 0.877750 0.451280
O71 O 0.174070 1.030070 0.435570
O72 O 0.053870 0.496450 0.793670
O73 O 0.533710 0.607640 0.245740
O74 O 1.003690 0.671270 0.043170
O75 O 0.946130 0.503550 0.206330
O76 O 0.466290 0.392360 0.754260
O77 O -0.003690 0.328730 0.956830
O78 O 0.825930 -0.030070 0.564430
Cl79 Cl 0.930490 -0.042750 1.238500
Cl80 Cl 0.069510 1.042750 -0.238500

#END
