./ABAPCU_from_POSCAR.cif_generated_by_CrystalShift
_symmetry_cell_setting triclinic
_symmetry_space_group_name_H-M 'P 1'
loop_
_symmetry_equiv_pos_site_id
_symmetry_equiv_pos_as_xyz
1 x,y,z
_cell_length_a 11.046000
_cell_length_b 9.807000
_cell_length_c 8.503000
_cell_angle_alpha 106.800000
_cell_angle_beta 74.200000
_cell_angle_gamma 97.300000
_cell_volume 847.313780
loop_
_atom_site_label
_atom_site_type_symbol
_atom_site_fract_x
_atom_site_fract_y
_atom_site_fract_z
C1 C 0.920000 0.655000 0.494000
C2 C 0.839000 0.612000 0.536000
C3 C 0.416000 0.271000 0.003000
C4 C 0.466000 0.170000 -0.122000
C5 C 0.445000 0.040000 -0.235000
C6 C 0.096000 0.010000 -0.349000
C7 C 0.152000 -0.011000 -0.527000
C8 C 0.231000 -0.115000 -0.575000
C9 C 0.256000 -0.203000 -0.476000
C10 C 0.179000 -0.165000 -0.286000
C11 C 0.048000 0.313000 0.017000
C12 C 0.212000 0.440000 0.104000
C13 C 0.288000 0.315000 0.123000
C14 C 0.187000 0.171000 0.092000
C15 C 0.306000 0.338000 0.331000
C16 C 0.161000 0.388000 0.464000
C17 C 0.080000 0.345000 0.506000
C18 C 0.534000 0.830000 1.122000
C19 C 0.769000 1.115000 1.575000
C20 C 0.694000 0.662000 0.669000
C21 C 0.584000 0.729000 0.997000
C22 C 0.788000 0.560000 0.896000
C23 C 0.744000 1.203000 1.476000
C24 C 0.848000 1.011000 1.527000
C25 C 0.712000 0.685000 0.877000
C26 C -0.048000 -0.313000 -0.017000
C27 C -0.187000 -0.171000 -0.092000
C28 C -0.096000 -0.010000 0.349000
C29 C -0.179000 0.165000 0.286000
C30 C 0.821000 1.165000 1.286000
C31 C 0.904000 0.990000 1.349000
C32 C -0.288000 -0.315000 -0.123000
C33 C 0.813000 0.829000 0.908000
C34 C -0.152000 0.011000 0.527000
C35 C -0.256000 0.203000 0.476000
C36 C -0.212000 -0.440000 -0.104000
C37 C -0.416000 -0.271000 -0.003000
C38 C -0.306000 -0.338000 -0.331000
C39 C -0.231000 0.115000 0.575000
C40 C 0.952000 0.687000 0.983000
C41 C -0.466000 -0.170000 0.122000
C42 C -0.161000 -0.388000 -0.464000
C43 C 1.080000 1.345000 1.506000
C44 C -0.445000 -0.040000 0.235000
C45 C -0.080000 -0.345000 -0.506000
C46 C 1.161000 1.388000 1.464000
C47 C 1.306000 1.338000 1.331000
C48 C 0.416000 0.271000 1.003000
C49 C 0.466000 0.170000 0.878000
C50 C 0.445000 0.040000 0.765000
C51 C 0.096000 0.010000 0.651000
C52 C 0.152000 -0.011000 0.473000
C53 C 0.231000 -0.115000 0.425000
C54 C 0.256000 -0.203000 0.524000
C55 C 0.179000 -0.165000 0.714000
C56 C 0.048000 0.313000 1.017000
C57 C 0.212000 0.440000 1.104000
C58 C 0.288000 0.315000 1.123000
C59 C 0.187000 0.171000 1.092000
C60 C 0.306000 0.338000 1.331000
C61 C 0.161000 0.388000 1.464000
C62 C 0.080000 0.345000 1.506000
C63 C 1.187000 1.171000 1.092000
C64 C 1.288000 1.315000 1.123000
C65 C 1.212000 1.440000 1.104000
C66 C 1.048000 1.313000 1.017000
C67 C 1.179000 0.835000 0.714000
C68 C 1.256000 0.797000 0.524000
C69 C 1.231000 0.885000 0.425000
C70 C 1.152000 0.989000 0.473000
C71 C -0.048000 -0.313000 0.983000
C72 C -0.187000 -0.171000 0.908000
C73 C -0.096000 -0.010000 1.349000
C74 C -0.179000 0.165000 1.286000
C75 C 1.096000 1.010000 0.651000
C76 C 1.445000 1.040000 0.765000
C77 C -0.288000 -0.315000 0.877000
C78 C 1.466000 1.170000 0.878000
C79 C -0.152000 0.011000 1.527000
C80 C -0.256000 0.203000 1.476000
C81 C -0.212000 -0.440000 0.896000
C82 C -0.416000 -0.271000 0.997000
C83 C -0.306000 -0.338000 0.669000
C84 C -0.231000 0.115000 1.575000
C85 C 1.416000 1.271000 1.003000
C86 C -0.466000 -0.170000 1.122000
C87 C -0.161000 -0.388000 0.536000
C88 C 0.920000 0.655000 -0.506000
C89 C -0.445000 -0.040000 1.235000
C90 C -0.080000 -0.345000 0.494000
C91 C 0.555000 0.960000 0.235000
C92 C 0.839000 0.612000 -0.464000
C93 C 0.416000 1.271000 0.003000
C94 C 0.466000 1.170000 -0.122000
C95 C 0.445000 1.040000 -0.235000
C96 C 0.096000 1.010000 -0.349000
C97 C 0.152000 0.989000 -0.527000
C98 C 0.231000 0.885000 -0.575000
C99 C 0.256000 0.797000 -0.476000
C100 C 0.179000 0.835000 -0.286000
C101 C 0.048000 1.313000 0.017000
C102 C 0.212000 1.440000 0.104000
C103 C 0.288000 1.315000 0.123000
C104 C 0.187000 1.171000 0.092000
C105 C 0.306000 1.338000 0.331000
C106 C 0.161000 1.388000 0.464000
C107 C 0.080000 1.345000 0.506000
C108 C 0.534000 0.830000 0.122000
C109 C 0.769000 1.115000 0.575000
C110 C 0.694000 0.662000 -0.331000
C111 C 0.584000 0.729000 -0.003000
C112 C 0.788000 0.560000 -0.104000
C113 C 0.744000 1.203000 0.476000
C114 C 0.848000 1.011000 0.527000
C115 C 0.712000 0.685000 -0.123000
C116 C -0.048000 0.687000 -0.017000
C117 C -0.187000 0.829000 -0.092000
C118 C -0.096000 0.990000 0.349000
C119 C -0.179000 1.165000 0.286000
C120 C 0.821000 1.165000 0.286000
C121 C 0.904000 0.990000 0.349000
C122 C -0.288000 0.685000 -0.123000
C123 C 0.813000 0.829000 -0.092000
C124 C -0.152000 1.011000 0.527000
C125 C -0.256000 1.203000 0.476000
C126 C -0.212000 0.560000 -0.104000
C127 C -0.416000 0.729000 -0.003000
C128 C -0.306000 0.662000 -0.331000
C129 C -0.231000 1.115000 0.575000
C130 C 0.952000 0.687000 -0.017000
C131 C -0.466000 0.830000 0.122000
C132 C -0.161000 0.612000 -0.464000
C133 C 1.080000 1.345000 0.506000
C134 C -0.445000 0.960000 0.235000
C135 C -0.080000 0.655000 -0.506000
C136 C 1.161000 1.388000 0.464000
C137 C 1.306000 1.338000 0.331000
C138 C 0.416000 1.271000 1.003000
C139 C 0.466000 1.170000 0.878000
C140 C 0.445000 1.040000 0.765000
C141 C 0.096000 1.010000 0.651000
C142 C 0.152000 0.989000 0.473000
C143 C 0.231000 0.885000 0.425000
C144 C 0.256000 0.797000 0.524000
C145 C 0.179000 0.835000 0.714000
C146 C 0.048000 1.313000 1.017000
C147 C 0.212000 1.440000 1.104000
C148 C 0.288000 1.315000 1.123000
C149 C 0.187000 1.171000 1.092000
C150 C 0.306000 1.338000 1.331000
C151 C 0.161000 1.388000 1.464000
C152 C 0.080000 1.345000 1.506000
C153 C 1.187000 1.171000 0.092000
C154 C 1.288000 1.315000 0.123000
C155 C 1.212000 1.440000 0.104000
C156 C 1.048000 1.313000 0.017000
C157 C 1.179000 0.835000 -0.286000
C158 C 1.256000 0.797000 -0.476000
C159 C 1.231000 0.885000 -0.575000
C160 C 1.152000 0.989000 -0.527000
C161 C -0.048000 0.687000 0.983000
C162 C -0.187000 0.829000 0.908000
C163 C -0.096000 0.990000 1.349000
C164 C -0.179000 1.165000 1.286000
C165 C 1.096000 1.010000 -0.349000
C166 C 1.445000 1.040000 -0.235000
C167 C -0.288000 0.685000 0.877000
C168 C 1.466000 1.170000 -0.122000
C169 C -0.152000 1.011000 1.527000
C170 C -0.256000 1.203000 1.476000
C171 C -0.212000 0.560000 0.896000
C172 C -0.416000 0.729000 0.997000
C173 C -0.306000 0.662000 0.669000
C174 C -0.231000 1.115000 1.575000
C175 C 1.416000 1.271000 0.003000
C176 C -0.466000 0.830000 1.122000
C177 C -0.161000 0.612000 0.536000
C178 C 0.920000 -0.345000 0.494000
C179 C -0.445000 0.960000 1.235000
C180 C -0.080000 0.655000 0.494000
C181 C 0.555000 -0.040000 1.235000
C182 C 0.839000 -0.388000 0.536000
C183 C 1.416000 0.271000 0.003000
C184 C 1.466000 0.170000 -0.122000
C185 C 1.445000 0.040000 -0.235000
C186 C 1.096000 0.010000 -0.349000
C187 C 1.152000 -0.011000 -0.527000
C188 C 1.231000 -0.115000 -0.575000
C189 C 1.256000 -0.203000 -0.476000
C190 C 1.179000 -0.165000 -0.286000
C191 C 1.048000 0.313000 0.017000
C192 C 1.212000 0.440000 0.104000
C193 C 1.288000 0.315000 0.123000
C194 C 1.187000 0.171000 0.092000
C195 C 1.306000 0.338000 0.331000
C196 C 1.161000 0.388000 0.464000
C197 C 1.080000 0.345000 0.506000
C198 C 0.534000 -0.170000 1.122000
C199 C 0.769000 0.115000 1.575000
C200 C 0.694000 -0.338000 0.669000
C201 C 0.584000 -0.271000 0.997000
C202 C 0.788000 -0.440000 0.896000
C203 C 0.744000 0.203000 1.476000
C204 C 0.848000 0.011000 1.527000
C205 C 0.712000 -0.315000 0.877000
C206 C 0.952000 -0.313000 -0.017000
C207 C 0.813000 -0.171000 -0.092000
C208 C 0.904000 -0.010000 0.349000
C209 C 0.821000 0.165000 0.286000
C210 C 0.821000 0.165000 1.286000
C211 C 0.904000 -0.010000 1.349000
C212 C 0.712000 -0.315000 -0.123000
C213 C 0.813000 -0.171000 0.908000
C214 C 0.848000 0.011000 0.527000
C215 C 0.744000 0.203000 0.476000
C216 C 0.788000 -0.440000 -0.104000
C217 C 0.584000 -0.271000 -0.003000
C218 C 0.694000 -0.338000 -0.331000
C219 C 0.769000 0.115000 0.575000
C220 C 0.952000 -0.313000 0.983000
C221 C 0.534000 -0.170000 0.122000
C222 C 0.839000 -0.388000 -0.464000
C223 C 1.080000 0.345000 1.506000
C224 C 0.555000 -0.040000 0.235000
C225 C 0.920000 -0.345000 -0.506000
C226 C 1.161000 0.388000 1.464000
C227 C 1.306000 0.338000 1.331000
C228 C 1.416000 0.271000 1.003000
C229 C 1.466000 0.170000 0.878000
C230 C 1.445000 0.040000 0.765000
C231 C 1.096000 0.010000 0.651000
C232 C 1.152000 -0.011000 0.473000
C233 C 1.231000 -0.115000 0.425000
C234 C 1.256000 -0.203000 0.524000
C235 C 1.179000 -0.165000 0.714000
C236 C 1.048000 0.313000 1.017000
C237 C 1.212000 0.440000 1.104000
C238 C 1.288000 0.315000 1.123000
C239 C 1.187000 0.171000 1.092000
C240 C 0.555000 0.960000 1.235000
N241 N 0.093000 0.199000 0.034000
N242 N 0.107000 -0.052000 -0.233000
N243 N 1.093000 0.199000 1.034000
N244 N 1.107000 -0.052000 0.767000
N245 N 1.119000 0.441000 1.042000
N246 N 0.119000 0.441000 0.042000
N247 N -0.093000 -0.199000 -0.034000
N248 N -0.107000 0.052000 0.233000
N249 N 0.907000 -0.199000 0.966000
N250 N 0.893000 0.052000 1.233000
N251 N 0.881000 0.559000 0.958000
N252 N -0.119000 -0.441000 -0.042000
N253 N 0.893000 1.052000 1.233000
N254 N 0.881000 -0.441000 -0.042000
N255 N 0.881000 -0.441000 0.958000
N256 N 0.907000 0.801000 0.966000
N257 N 0.893000 0.052000 0.233000
N258 N 1.119000 1.441000 1.042000
N259 N 0.907000 -0.199000 -0.034000
N260 N 1.107000 0.948000 0.767000
N261 N 1.093000 1.199000 1.034000
N262 N 0.093000 0.199000 1.034000
N263 N 1.119000 0.441000 0.042000
N264 N 1.107000 -0.052000 -0.233000
N265 N 0.107000 -0.052000 0.767000
N266 N 1.093000 0.199000 0.034000
N267 N 0.119000 0.441000 1.042000
N268 N -0.093000 -0.199000 0.966000
N269 N -0.107000 0.052000 1.233000
N270 N -0.119000 -0.441000 0.958000
N271 N 0.093000 1.199000 0.034000
N272 N 0.107000 0.948000 -0.233000
N273 N 0.119000 1.441000 0.042000
N274 N -0.093000 0.801000 -0.034000
N275 N -0.107000 1.052000 0.233000
N276 N -0.119000 0.559000 0.958000
N277 N -0.107000 1.052000 1.233000
N278 N -0.093000 0.801000 0.966000
N279 N 0.881000 0.559000 -0.042000
N280 N -0.119000 0.559000 -0.042000
N281 N 0.893000 1.052000 0.233000
N282 N 0.119000 1.441000 1.042000
N283 N 0.107000 0.948000 0.767000
N284 N 0.093000 1.199000 1.034000
N285 N 0.907000 0.801000 -0.034000
N286 N 1.119000 1.441000 0.042000
N287 N 1.107000 0.948000 -0.233000
N288 N 1.093000 1.199000 0.034000
O289 O 0.212000 0.068000 1.123000
O290 O 0.042000 -0.319000 0.036000
O291 O 0.958000 1.319000 -0.036000
O292 O 1.298000 1.557000 0.133000
O293 O 1.212000 1.068000 0.123000
O294 O -0.212000 -0.068000 -0.123000
O295 O -0.042000 1.319000 0.964000
O296 O -0.298000 0.443000 -0.133000
O297 O -0.212000 0.932000 -0.123000
O298 O 0.042000 0.681000 0.036000
O299 O 0.298000 1.557000 1.133000
O300 O 0.212000 1.068000 1.123000
O301 O 1.042000 0.681000 0.036000
O302 O 0.042000 0.681000 1.036000
O303 O 0.788000 0.932000 -0.123000
O304 O -0.212000 0.932000 0.877000
O305 O 0.212000 1.068000 0.123000
O306 O 0.298000 1.557000 0.133000
O307 O -0.042000 1.319000 -0.036000
O308 O -0.298000 0.443000 0.867000
O309 O -0.298000 -0.557000 -0.133000
O310 O 0.702000 0.443000 -0.133000
O311 O 0.702000 0.443000 0.867000
O312 O 1.042000 -0.319000 0.036000
O313 O 0.958000 0.319000 0.964000
O314 O -0.042000 0.319000 -0.036000
O315 O 0.298000 0.557000 0.133000
O316 O 0.212000 0.068000 0.123000
O317 O 0.788000 -0.068000 -0.123000
O318 O -0.298000 -0.557000 0.867000
O319 O -0.212000 -0.068000 0.877000
O320 O 0.042000 -0.319000 1.036000
O321 O 1.298000 0.557000 1.133000
O322 O 0.788000 0.932000 0.877000
O323 O 1.212000 0.068000 1.123000
O324 O 1.042000 -0.319000 1.036000
O325 O 0.298000 0.557000 1.133000
O326 O -0.042000 0.319000 0.964000
O327 O 1.212000 1.068000 1.123000
O328 O 0.702000 -0.557000 0.867000
O329 O 0.958000 0.319000 -0.036000
O330 O 1.298000 1.557000 1.133000
O331 O 1.042000 0.681000 1.036000
O332 O 0.702000 -0.557000 -0.133000
O333 O 1.298000 0.557000 0.133000
O334 O 1.212000 0.068000 0.123000
O335 O 0.788000 -0.068000 0.877000
O336 O 0.958000 1.319000 0.964000
Cu337 Cu 1.000000 0.000000 0.000000
Cu338 Cu 1.000000 0.000000 1.000000
Cu339 Cu 0.000000 1.000000 0.000000
Cu340 Cu 1.000000 1.000000 0.000000
Cu341 Cu 0.000000 1.000000 1.000000
Cu342 Cu 0.000000 0.000000 0.000000
Cu343 Cu 1.000000 1.000000 1.000000
Cu344 Cu 0.000000 0.000000 1.000000
Br345 Br -0.395000 -0.308000 0.299000
Br346 Br 0.395000 0.308000 0.701000
Br347 Br 0.605000 -0.308000 1.299000
Br348 Br 1.395000 0.308000 -0.299000
Br349 Br -0.395000 0.692000 1.299000
Br350 Br 1.395000 1.308000 0.701000
Br351 Br -0.395000 -0.308000 1.299000
Br352 Br 0.395000 1.308000 -0.299000
Br353 Br 0.605000 0.692000 0.299000
Br354 Br 0.605000 -0.308000 0.299000
Br355 Br 1.395000 1.308000 -0.299000
Br356 Br 1.395000 0.308000 0.701000
Br357 Br 0.395000 1.308000 0.701000
Br358 Br 0.605000 0.692000 1.299000
Br359 Br -0.395000 0.692000 0.299000
Br360 Br 0.395000 0.308000 -0.299000

#END
