./ABAWEG_from_POSCAR.cif_generated_by_CrystalShift
_symmetry_cell_setting triclinic
_symmetry_space_group_name_H-M 'P 1'
loop_
_symmetry_equiv_pos_site_id
_symmetry_equiv_pos_as_xyz
1 x,y,z
_cell_length_a 4.909000
_cell_length_b 6.847000
_cell_length_c 7.083000
_cell_angle_alpha 116.780000
_cell_angle_beta 104.670000
_cell_angle_gamma 90.650000
_cell_volume 203.428877
loop_
_atom_site_label
_atom_site_type_symbol
_atom_site_fract_x
_atom_site_fract_y
_atom_site_fract_z
H1 H 1.075000 0.784000 0.655000
H2 H 0.925000 0.216000 1.345000
H3 H 0.925000 0.216000 0.345000
H4 H 0.075000 0.784000 0.655000
H5 H 1.075000 -0.216000 0.655000
H6 H -0.075000 0.216000 0.345000
H7 H -0.075000 1.216000 1.345000
H8 H 0.075000 0.784000 -0.345000
H9 H 0.925000 1.216000 0.345000
H10 H 1.075000 -0.216000 -0.345000
H11 H 0.925000 1.216000 1.345000
H12 H 0.075000 -0.216000 -0.345000
H13 H -0.075000 1.216000 0.345000
H14 H 0.075000 -0.216000 0.655000
H15 H 1.075000 0.784000 -0.345000
H16 H -0.075000 0.216000 1.345000
C17 C 0.031000 0.122300 1.065700
C18 C 1.325600 1.237600 1.443200
C19 C -0.031000 -0.122300 0.934300
C20 C 1.328200 1.316500 1.677100
C21 C -0.325600 -0.237600 0.556800
C22 C -0.328200 -0.316500 0.322900
C23 C 1.031000 1.122300 1.065700
C24 C 0.325600 0.237600 1.443200
C25 C 0.328200 1.316500 0.677100
C26 C 0.325600 1.237600 0.443200
C27 C 0.671800 0.683500 -0.677100
C28 C 0.674400 0.762400 -0.443200
C29 C 0.031000 1.122300 0.065700
C30 C 0.328200 0.316500 1.677100
C31 C -0.328200 -0.316500 -0.677100
C32 C 0.969000 0.877700 -0.065700
C33 C -0.325600 0.762400 -0.443200
C34 C -0.328200 0.683500 -0.677100
C35 C -0.325600 -0.237600 -0.443200
C36 C 0.969000 0.877700 0.934300
C37 C 0.328200 1.316500 1.677100
C38 C 0.325600 1.237600 1.443200
C39 C 1.031000 1.122300 0.065700
C40 C 1.325600 1.237600 0.443200
C41 C 0.031000 1.122300 1.065700
C42 C -0.031000 -0.122300 -0.065700
C43 C -0.031000 0.877700 0.934300
C44 C 1.328200 1.316500 0.677100
C45 C -0.325600 0.762400 0.556800
C46 C -0.328200 0.683500 0.322900
C47 C 0.031000 0.122300 0.065700
C48 C 0.674400 0.762400 0.556800
C49 C 1.328200 0.316500 0.677100
C50 C 1.325600 0.237600 0.443200
C51 C 0.671800 -0.316500 0.322900
C52 C 0.674400 -0.237600 0.556800
C53 C 1.031000 0.122300 0.065700
C54 C 0.671800 0.683500 0.322900
C55 C 0.969000 -0.122300 -0.065700
C56 C 0.969000 -0.122300 0.934300
C57 C 0.674400 -0.237600 -0.443200
C58 C 0.671800 -0.316500 -0.677100
C59 C 0.325600 0.237600 0.443200
C60 C -0.031000 0.877700 -0.065700
C61 C 1.328200 0.316500 1.677100
C62 C 1.325600 0.237600 1.443200
C63 C 1.031000 0.122300 1.065700
C64 C 0.328200 0.316500 0.677100
N65 N 0.072700 0.197000 0.298700
N66 N 0.927300 0.803000 0.701300
N67 N 0.927300 -0.197000 -0.298700
N68 N 0.927300 -0.197000 0.701300
N69 N 1.072700 0.197000 0.298700
N70 N -0.072700 -0.197000 -0.298700
N71 N 1.072700 1.197000 1.298700
N72 N 0.072700 0.197000 1.298700
N73 N -0.072700 0.803000 0.701300
N74 N 0.072700 1.197000 1.298700
N75 N -0.072700 -0.197000 0.701300
N76 N 1.072700 1.197000 0.298700
N77 N 0.072700 1.197000 0.298700
N78 N 0.927300 0.803000 -0.298700
N79 N -0.072700 0.803000 -0.298700
N80 N 1.072700 0.197000 1.298700
O81 O 0.542000 1.213600 1.386400
O82 O 0.542000 1.213600 0.386400
O83 O 0.458000 0.786400 -0.386400
O84 O -0.542000 -0.213600 0.613600
O85 O 1.542000 1.213600 0.386400
O86 O -0.542000 0.786400 0.613600
O87 O 1.542000 1.213600 1.386400
O88 O 0.458000 -0.213600 0.613600
O89 O 0.542000 0.213600 1.386400
O90 O -0.542000 -0.213600 -0.386400
O91 O 1.542000 0.213600 0.386400
O92 O 0.458000 -0.213600 -0.386400
O93 O 1.542000 0.213600 1.386400
O94 O 0.542000 0.213600 0.386400
O95 O 0.458000 0.786400 0.613600
O96 O -0.542000 0.786400 -0.386400

#END
