./ABAWUY_from_POSCAR.cif_generated_by_CrystalShift
_symmetry_cell_setting triclinic
_symmetry_space_group_name_H-M 'P 1'
loop_
_symmetry_equiv_pos_site_id
_symmetry_equiv_pos_as_xyz
1 x,y,z
_cell_length_a 18.663600
_cell_length_b 9.865500
_cell_length_c 19.524900
_cell_angle_alpha 90.000000
_cell_angle_beta 107.900000
_cell_angle_gamma 90.000000
_cell_volume 3421.016876
loop_
_atom_site_label
_atom_site_type_symbol
_atom_site_fract_x
_atom_site_fract_y
_atom_site_fract_z
H1 H 0.578700 0.160000 -0.187300
H2 H 0.193600 0.149700 0.690900
H3 H 0.421300 0.160000 0.687300
H4 H 0.257600 -0.054400 0.696800
H5 H 0.336600 -0.339000 0.666100
H6 H 0.193800 -0.256500 0.687100
H7 H 0.306700 -0.565000 0.669700
H8 H 0.067600 -0.258700 0.671400
H9 H 0.287500 -0.698800 0.569000
H10 H 0.003200 -0.058400 0.665600
H11 H 0.295000 -0.604800 0.463600
H12 H 0.327900 -0.381100 0.459900
H13 H -0.005500 0.178200 0.654500
H14 H 0.055600 0.228200 0.724500
H15 H 0.354500 -0.176000 0.457100
H16 H 0.518100 0.324200 0.482600
H17 H 0.474600 0.273500 0.534800
H18 H 0.062200 0.118500 0.524500
H19 H 0.025400 0.226500 0.465200
H20 H -0.018100 0.175800 0.517400
H21 H 0.437800 0.381500 0.475500
H22 H 0.444400 0.271800 0.275500
H23 H 0.145500 0.676000 0.542900
H24 H 0.505500 0.321800 0.345500
H25 H 0.496800 0.558400 0.334400
H26 H 0.432400 0.758700 0.328600
H27 H 0.306200 0.756500 0.312900
H28 H 0.172100 0.881100 0.540100
H29 H 0.242400 0.554400 0.303200
H30 H 0.205000 1.104800 0.536400
H31 H 0.306400 0.350300 0.309100
H32 H 0.212500 1.198800 0.431000
H33 H 0.078700 0.660000 -0.187300
H34 H 0.193300 1.065000 0.330300
H35 H 0.099100 0.538000 -0.222200
H36 H 0.163400 0.839000 0.333900
H37 H 0.599100 0.038000 -0.222200
H38 H 0.663400 -0.339000 -0.166100
H39 H 0.693600 0.350300 0.190900
H40 H 0.693300 -0.565000 -0.169700
H41 H 0.757600 0.554400 0.196800
H42 H 0.712500 -0.698800 -0.069000
H43 H 0.099100 0.462000 0.277800
H44 H 0.078700 0.340000 0.312700
H45 H 0.693800 0.756500 0.187100
H46 H 0.806400 0.149700 0.809100
H47 H 0.163400 0.161000 -0.166100
H48 H 0.742400 -0.054400 0.803200
H49 H 0.193300 -0.065000 -0.169700
H50 H 0.806200 -0.256500 0.812900
H51 H 0.212500 -0.198800 -0.069000
H52 H 0.932400 -0.258700 0.828600
H53 H 0.205000 -0.104800 0.036400
H54 H 0.996800 -0.058400 0.834400
H55 H 0.172100 0.118900 0.040100
H56 H 0.145500 0.324000 0.042900
H57 H 1.005500 0.178200 0.845500
H58 H 0.944400 0.228200 0.775500
H59 H -0.018100 0.824200 0.017400
H60 H 0.025400 0.773500 -0.034800
H61 H 0.062200 0.881500 0.024500
H62 H 0.937800 0.118500 0.975500
H63 H 0.974600 0.226500 1.034800
H64 H 1.018100 0.175800 0.982600
H65 H 0.055600 0.771800 0.224500
H66 H -0.005500 0.821800 0.154500
H67 H 0.854500 0.676000 0.957100
H68 H 0.003200 1.058400 0.165600
H69 H 0.067600 1.258700 0.171400
H70 H 0.193800 1.256500 0.187100
H71 H 0.257600 1.054400 0.196800
H72 H 0.827900 0.881100 0.959900
H73 H 0.193600 0.850300 0.190900
H74 H 0.795000 1.104800 0.963600
H75 H 0.921300 0.660000 0.687300
H76 H 0.787500 1.198800 1.069000
H77 H 0.900900 0.538000 0.722200
H78 H 0.806700 1.065000 1.169700
H79 H 0.567600 0.758700 0.171400
H80 H 0.836600 0.839000 1.166100
H81 H 0.503200 0.558400 0.165600
H82 H 0.705000 -0.604800 0.036400
H83 H 0.494500 0.321800 0.154500
H84 H 0.672100 -0.381100 0.040100
H85 H 0.836600 0.161000 0.666100
H86 H 0.806700 -0.065000 0.669700
H87 H 0.900900 0.462000 1.222200
H88 H 0.921300 0.340000 1.187300
H89 H 0.787500 -0.198800 0.569000
H90 H 0.693600 0.649700 0.690900
H91 H 0.795000 -0.104800 0.463600
H92 H 0.757600 0.445600 0.696800
H93 H 0.827900 0.118900 0.459900
H94 H 0.693800 0.243500 0.687100
H95 H 0.854500 0.324000 0.457100
H96 H 0.567600 0.241300 0.671400
H97 H 1.018100 0.824200 0.482600
H98 H 0.503200 0.441600 0.665600
H99 H 0.974600 0.773500 0.534800
H100 H 0.937800 0.881500 0.475500
H101 H 0.494500 0.678200 0.654500
H102 H 0.555600 0.728200 0.724500
H103 H 0.944400 0.771800 0.275500
H104 H 1.005500 0.821800 0.345500
H105 H 0.996800 1.058400 0.334400
H106 H 0.562200 0.618500 0.524500
H107 H 0.525400 0.726500 0.465200
H108 H 0.481900 0.675800 0.517400
H109 H 0.932400 1.258700 0.328600
H110 H 0.806200 1.256500 0.312900
H111 H 0.645500 1.176000 0.542900
H112 H 0.742400 1.054400 0.303200
H113 H 0.806400 0.850300 0.309100
H114 H 0.421300 0.840000 1.187300
H115 H 0.400900 0.962000 1.222200
H116 H 0.672100 1.381100 0.540100
H117 H 0.555600 0.271800 0.224500
H118 H 0.705000 1.604800 0.536400
H119 H 0.562200 0.381500 0.024500
H120 H 0.712500 1.698800 0.431000
H121 H 0.525400 0.273500 -0.034800
H122 H 0.693300 1.565000 0.330300
H123 H 0.336600 1.339000 1.166100
H124 H 0.663400 1.339000 0.333900
H125 H 0.306700 1.565000 1.169700
H126 H 0.287500 1.698800 1.069000
H127 H 0.645500 -0.176000 0.042900
H128 H 0.295000 1.604800 0.963600
H129 H 0.327900 1.381100 0.959900
H130 H 0.481900 0.324200 0.017400
H131 H 0.599100 0.962000 0.277800
H132 H 0.578700 0.840000 0.312700
H133 H 0.354500 1.176000 0.957100
H134 H 0.306400 0.649700 0.809100
H135 H 0.518100 0.675800 0.982600
H136 H 0.242400 0.445600 0.803200
H137 H 0.474600 0.726500 1.034800
H138 H 0.306200 0.243500 0.812900
H139 H 0.437800 0.618500 0.975500
H140 H 0.432400 0.241300 0.828600
H141 H 0.444400 0.728200 0.775500
H142 H 0.496800 0.441600 0.834400
H143 H 0.505500 0.678200 0.845500
H144 H 0.400900 0.038000 0.722200
C145 C 0.408700 0.567400 0.821960
C146 C 0.445340 0.443510 0.827950
C147 C 0.403570 0.930960 0.943110
C148 C 0.435020 0.807190 0.935680
C149 C 0.469380 0.697400 0.986620
C150 C 0.406910 0.323370 0.824550
C151 C 0.332030 0.324900 0.815300
C152 C 0.293850 0.445500 0.809470
C153 C 0.392050 0.997270 1.006010
C154 C 0.366600 1.129720 1.000660
C155 C 0.332210 0.567950 0.812880
C156 C 0.359600 1.191370 1.061990
C157 C 0.396390 0.994370 1.123170
C158 C 0.336960 1.335310 1.062890
C159 C 0.323720 1.417300 1.002520
C160 C 0.607950 0.002730 -0.006010
C161 C 0.304460 1.551590 1.004810
C162 C 0.633400 -0.129720 -0.000660
C163 C 0.299140 1.607400 1.067320
C164 C 0.640400 -0.191370 -0.061990
C165 C 0.311020 1.527800 1.127370
C166 C 0.603610 0.005630 -0.123170
C167 C 0.329320 1.392380 1.125310
C168 C 0.670680 1.392380 0.374690
C169 C 0.688980 1.527800 0.372630
C170 C 0.700860 1.607400 0.432680
C171 C 0.530620 0.302600 0.013380
C172 C 0.564980 0.192810 0.064320
C173 C 0.596430 0.069040 0.056890
C174 C 0.695540 1.551590 0.495190
C175 C 0.676280 1.417300 0.497480
C176 C 0.663040 1.335310 0.437110
C177 C 0.832210 0.932050 0.312880
C178 C 0.603610 0.994370 0.376830
C179 C 0.793850 1.054500 0.309470
C180 C 0.640400 1.191370 0.438010
C181 C 0.832030 1.175100 0.315300
C182 C 0.633400 1.129720 0.499340
C183 C 0.906910 1.176630 0.324550
C184 C 0.607950 0.997270 0.493990
C185 C 0.945340 1.056490 0.327950
C186 C 0.530620 0.697400 0.513380
C187 C 0.908700 0.932600 0.321960
C188 C 0.952180 0.803160 0.324290
C189 C 0.564980 0.807190 0.564320
C190 C 0.596430 0.930960 0.556890
C191 C 0.903570 0.569040 0.443110
C192 C 0.935020 0.692810 0.435680
C193 C 0.969380 0.802600 0.486620
C194 C 0.547820 0.696840 0.675710
C195 C 0.591300 0.567400 0.678040
C196 C 0.554660 0.443510 0.672050
C197 C 0.892050 0.502730 0.506010
C198 C 0.866600 0.370280 0.500660
C199 C 0.593090 0.323370 0.675450
C200 C 0.859600 0.308630 0.561990
C201 C 0.896390 0.505630 0.623170
C202 C 0.836960 0.164690 0.562890
C203 C 0.823720 0.082700 0.502520
C204 C 0.667970 0.324900 0.684700
C205 C 0.804460 -0.051590 0.504810
C206 C 0.706150 0.445500 0.690530
C207 C 0.799140 -0.107400 0.567320
C208 C 0.667790 0.567950 0.687120
C209 C 0.811020 -0.027800 0.627370
C210 C 0.663040 -0.335310 -0.062890
C211 C 0.829320 0.107620 0.625310
C212 C 0.676280 -0.417300 -0.002520
C213 C 0.695540 -0.551590 -0.004810
C214 C 0.547820 0.303160 0.175710
C215 C 0.591300 0.432600 0.178040
C216 C 0.700860 -0.607400 -0.067320
C217 C 0.554660 0.556490 0.172050
C218 C 0.829320 0.892380 1.125310
C219 C 0.811020 1.027800 1.127370
C220 C 0.799140 1.107400 1.067320
C221 C 0.167790 0.932050 0.187120
C222 C 0.804460 1.051590 1.004810
C223 C 0.206150 1.054500 0.190530
C224 C 0.823720 0.917300 1.002520
C225 C 0.167970 1.175100 0.184700
C226 C 0.836960 0.835310 1.062890
C227 C 0.093090 1.176630 0.175450
C228 C 0.896390 0.494370 1.123170
C229 C 0.054660 1.056490 0.172050
C230 C 0.859600 0.691370 1.061990
C231 C 0.091300 0.932600 0.178040
C232 C 0.047820 0.803160 0.175710
C233 C 0.866600 0.629720 1.000660
C234 C 0.892050 0.497270 1.006010
C235 C 0.096430 0.569040 0.056890
C236 C 0.064980 0.692810 0.064320
C237 C 0.030620 0.802600 0.013380
C238 C 0.969380 0.197400 0.986620
C239 C 0.935020 0.307190 0.935680
C240 C 0.903570 0.430960 0.943110
C241 C 0.107950 0.502730 -0.006010
C242 C 0.133400 0.370280 -0.000660
C243 C 0.952180 0.196840 0.824290
C244 C 0.140400 0.308630 -0.061990
C245 C 0.103610 0.505630 -0.123170
C246 C 0.163040 0.164690 -0.062890
C247 C 0.176280 0.082700 -0.002520
C248 C 0.908700 0.067400 0.821960
C249 C 0.195540 -0.051590 -0.004810
C250 C 0.945340 -0.056490 0.827950
C251 C 0.200860 -0.107400 -0.067320
C252 C 0.906910 -0.176630 0.824550
C253 C 0.188980 -0.027800 -0.127370
C254 C 0.832030 -0.175100 0.815300
C255 C 0.170680 0.107620 -0.125310
C256 C 0.793850 -0.054500 0.809470
C257 C 0.593090 0.676630 0.175450
C258 C 0.832210 0.067950 0.812880
C259 C 0.667970 0.675100 0.184700
C260 C 0.688980 -0.527800 -0.127370
C261 C 0.706150 0.554500 0.190530
C262 C 0.670680 -0.392380 -0.125310
C263 C 0.170680 0.892380 0.374690
C264 C 0.188980 1.027800 0.372630
C265 C 0.332210 0.432050 0.312880
C266 C 0.200860 1.107400 0.432680
C267 C 0.293850 0.554500 0.309470
C268 C 0.195540 1.051590 0.495190
C269 C 0.332030 0.675100 0.315300
C270 C 0.176280 0.917300 0.497480
C271 C 0.406910 0.676630 0.324550
C272 C 0.163040 0.835310 0.437110
C273 C 0.445340 0.556490 0.327950
C274 C 0.103610 0.494370 0.376830
C275 C 0.408700 0.432600 0.321960
C276 C 0.452180 0.303160 0.324290
C277 C 0.140400 0.691370 0.438010
C278 C 0.133400 0.629720 0.499340
C279 C 0.403570 0.069040 0.443110
C280 C 0.435020 0.192810 0.435680
C281 C 0.469380 0.302600 0.486620
C282 C 0.107950 0.497270 0.493990
C283 C 0.030620 0.197400 0.513380
C284 C 0.064980 0.307190 0.564320
C285 C 0.392050 0.002730 0.506010
C286 C 0.366600 -0.129720 0.500660
C287 C 0.096430 0.430960 0.556890
C288 C 0.359600 -0.191370 0.561990
C289 C 0.396390 0.005630 0.623170
C290 C 0.336960 -0.335310 0.562890
C291 C 0.323720 -0.417300 0.502520
C292 C 0.047820 0.196840 0.675710
C293 C 0.304460 -0.551590 0.504810
C294 C 0.091300 0.067400 0.678040
C295 C 0.299140 -0.607400 0.567320
C296 C 0.054660 -0.056490 0.672050
C297 C 0.311020 -0.527800 0.627370
C298 C 0.093090 -0.176630 0.675450
C299 C 0.329320 -0.392380 0.625310
C300 C 0.167970 -0.175100 0.684700
C301 C 0.667790 0.432050 0.187120
C302 C 0.206150 -0.054500 0.690530
C303 C 0.452180 0.696840 0.824290
C304 C 0.167790 0.067950 0.687120
N305 N 0.375090 -0.123680 0.624350
N306 N 0.407540 0.076540 0.685110
N307 N 0.382610 0.004850 0.378020
N308 N 0.398550 0.081670 0.330600
N309 N 0.430460 0.196020 0.365210
N310 N 0.092460 0.576540 -0.185110
N311 N 0.124910 0.376320 -0.124350
N312 N 0.092550 0.573300 -0.067300
N313 N 0.117390 0.504850 0.121980
N314 N 0.101450 0.581670 0.169400
N315 N 0.069540 0.696020 0.134790
N316 N 0.907540 0.576540 0.685110
N317 N 0.875090 0.376320 0.624350
N318 N 0.907450 0.573300 0.567300
N319 N 0.882610 0.504850 0.378020
N320 N 0.898550 0.581670 0.330600
N321 N 0.930460 0.696020 0.365210
N322 N 0.407540 0.923460 1.185110
N323 N 0.375090 1.123680 1.124350
N324 N 0.407450 0.926700 1.067300
N325 N 0.382610 0.995150 0.878020
N326 N 0.398550 0.918330 0.830600
N327 N 0.430460 0.803980 0.865210
N328 N 0.592460 0.923460 0.314890
N329 N 0.624910 1.123680 0.375650
N330 N 0.592550 0.926700 0.432700
N331 N 0.617390 0.995150 0.621980
N332 N 0.601450 0.918330 0.669400
N333 N 0.569540 0.803980 0.634790
N334 N 0.907540 0.423460 1.185110
N335 N 0.875090 0.623680 1.124350
N336 N 0.907450 0.426700 1.067300
N337 N 0.882610 0.495150 0.878020
N338 N 0.898550 0.418330 0.830600
N339 N 0.930460 0.303980 0.865210
N340 N 0.092460 0.423460 0.314890
N341 N 0.124910 0.623680 0.375650
N342 N 0.092550 0.426700 0.432700
N343 N 0.117390 0.495150 0.621980
N344 N 0.101450 0.418330 0.669400
N345 N 0.569540 0.196020 0.134790
N346 N 0.601450 0.081670 0.169400
N347 N 0.617390 0.004850 0.121980
N348 N 0.592550 0.073300 -0.067300
N349 N 0.624910 -0.123680 -0.124350
N350 N 0.592460 0.076540 -0.185110
N351 N 0.069540 0.303980 0.634790
N352 N 0.407450 0.073300 0.567300

#END
