
#######################################################################
#
#                 Cambridge Crystallographic Data Centre
#                                CCDC 
#
#######################################################################
#
# If this CIF has been generated from an entry in the Cambridge 
# Structural Database, then it will include bibliographic, chemical, 
# crystal, experimental, refinement or atomic coordinate data resulting 
# from the CCDC's data processing and validation procedures.
#
#######################################################################

data_ABECAL
_symmetry_cell_setting           monoclinic
_symmetry_space_group_name_H-M   'P 21/n'
_symmetry_Int_Tables_number      14
_space_group_name_Hall           '-P 2yn'
loop_
_symmetry_equiv_pos_site_id
_symmetry_equiv_pos_as_xyz
1 x,y,z
2 1/2-x,1/2+y,1/2-z
3 -x,-y,-z
4 1/2+x,1/2-y,1/2+z
_cell_length_a                   10.060(2)
_cell_length_b                   7.841(2)
_cell_length_c                   22.693(6)
_cell_angle_alpha                90
_cell_angle_beta                 93.74(2)
_cell_angle_gamma                90
_cell_volume                     1786.22
loop_
_atom_site_label
_atom_site_type_symbol
_atom_site_fract_x
_atom_site_fract_y
_atom_site_fract_z
C1 C 0.6197(2) 0.2305(2) 0.0216(1)
C2 C 0.5678(2) 0.3221(2) 0.0671(1)
C3 C 0.5415(2) 0.1909(2) -0.0300(1)
C4 C 0.4111(2) 0.2414(2) -0.0369(1)
C5 C 0.3525(2) 0.3338(2) 0.0083(1)
C6 C 0.2181(2) 0.3901(2) 0.0023(1)
C7 C 0.1649(2) 0.4816(3) 0.0465(1)
C8 C 0.2409(2) 0.5202(2) 0.0983(1)
C9 C 0.3730(2) 0.4697(2) 0.1065(1)
C10 C 0.4524(2) 0.5161(2) 0.1591(1)
C11 C 0.5832(2) 0.4725(2) 0.1660(1)
C12 C 0.6838(2) 0.5060(2) 0.2124(1)
C13 C 0.8007(2) 0.4347(2) 0.1971(1)
C14 C 0.7765(2) 0.3523(2) 0.1392(1)
C15 C 0.4315(2) 0.3736(2) 0.0610(1)
C16 C 0.6455(2) 0.3736(2) 0.1204(1)
C17 C 0.9299(2) 0.4385(2) 0.2314(1)
C18 C 0.9454(2) 0.5213(2) 0.2860(1)
C19 C 1.0664(2) 0.5256(2) 0.3183(1)
C20 C 1.1801(2) 0.4470(2) 0.2984(1)
C21 C 1.1643(2) 0.3654(2) 0.2437(1)
C22 C 1.0428(2) 0.3607(2) 0.2114(1)
C23 C 1.3099(2) 0.4487(2) 0.3341(1)
C24 C 1.3262(2) 0.5387(2) 0.3872(1)
C25 C 1.4464(2) 0.5380(2) 0.4208(1)
C26 C 1.5537(2) 0.4473(2) 0.4022(1)
C27 C 1.5407(2) 0.3578(3) 0.3498(1)
C28 C 1.4205(2) 0.3587(2) 0.3162(1)
H1 H 0.7197(18) 0.1940(20) 0.0248(6)
H2 H 0.5807(17) 0.1251(22) -0.0623(7)
H3 H 0.3571(16) 0.2195(20) -0.0760(7)
H4 H 0.1636(17) 0.3655(21) -0.0349(7)
H5 H 0.0686(19) 0.5211(23) 0.0416(8)
H6 H 0.2028(16) 0.5936(21) 0.1297(7)
H7 H 0.4109(17) 0.5858(22) 0.1901(7)
H8 H 0.6683(17) 0.5738(22) 0.2485(7)
H9 H 0.8456(16) 0.2886(20) 0.1183(7)
H10 H 0.8686(18) 0.5800(22) 0.3022(7)
H11 H 1.0722(17) 0.5832(22) 0.3560(8)
H12 H 1.2428(18) 0.3074(22) 0.2264(7)
H13 H 1.0392(15) 0.3005(20) 0.1737(7)
H14 H 1.2492(18) 0.6070(22) 0.4020(7)
H15 H 1.4577(17) 0.6040(22) 0.4569(7)
H16 H 1.6431(18) 0.4492(20) 0.4260(7)
H17 H 1.6160(19) 0.2931(25) 0.3352(8)
H18 H 1.4122(17) 0.2892(23) 0.2785(8)
C1 C 0.8803(2) 0.7305(2) 0.4784(1)
C2 C 0.9322(2) 0.8221(2) 0.4329(1)
C3 C 0.9585(2) 0.6909(2) 0.5300(1)
C4 C 1.0889(2) 0.7414(2) 0.5369(1)
C5 C 1.1475(2) 0.8338(2) 0.4917(1)
C6 C 1.2819(2) 0.8901(2) 0.4977(1)
C7 C 1.3351(2) 0.9816(3) 0.4535(1)
C8 C 1.2591(2) 1.0202(2) 0.4017(1)
C9 C 1.1270(2) 0.9697(2) 0.3935(1)
C10 C 1.0476(2) 1.0161(2) 0.3409(1)
C11 C 0.9168(2) 0.9725(2) 0.3340(1)
C12 C 0.8162(2) 1.0060(2) 0.2876(1)
C13 C 0.6993(2) 0.9347(2) 0.3029(1)
C14 C 0.7235(2) 0.8523(2) 0.3608(1)
C15 C 1.0685(2) 0.8736(2) 0.4390(1)
C16 C 0.8545(2) 0.8736(2) 0.3796(1)
C17 C 0.5701(2) 0.9385(2) 0.2686(1)
C18 C 0.5546(2) 1.0213(2) 0.2140(1)
C19 C 0.4336(2) 1.0256(2) 0.1817(1)
C20 C 0.3199(2) 0.9470(2) 0.2016(1)
C21 C 0.3357(2) 0.8654(2) 0.2563(1)
C22 C 0.4572(2) 0.8607(2) 0.2886(1)
C23 C 0.1901(2) 0.9487(2) 0.1659(1)
C24 C 0.1738(2) 1.0387(2) 0.1128(1)
C25 C 0.0536(2) 1.0380(2) 0.0792(1)
C26 C -0.0537(2) 0.9473(2) 0.0978(1)
C27 C -0.0407(2) 0.8578(3) 0.1502(1)
C28 C 0.0795(2) 0.8587(2) 0.1838(1)
H1 H 0.7803(18) 0.6940(20) 0.4752(6)
H2 H 0.9193(17) 0.6251(22) 0.5623(7)
H3 H 1.1429(16) 0.7195(20) 0.5760(7)
H4 H 1.3364(17) 0.8655(21) 0.5349(7)
H5 H 1.4314(19) 1.0211(23) 0.4584(8)
H6 H 1.2972(16) 1.0936(21) 0.3703(7)
H7 H 1.0891(17) 1.0858(22) 0.3099(7)
H8 H 0.8317(17) 1.0738(22) 0.2515(7)
H9 H 0.6544(16) 0.7886(20) 0.3817(7)
H10 H 0.6314(18) 1.0800(22) 0.1978(7)
H11 H 0.4278(17) 1.0832(22) 0.1440(8)
H12 H 0.2572(18) 0.8074(22) 0.2736(7)
H13 H 0.4608(15) 0.8005(20) 0.3263(7)
H14 H 0.2508(18) 1.1070(22) 0.0980(7)
H15 H 0.0423(17) 1.1040(22) 0.0431(7)
H16 H -0.1431(18) 0.9492(20) 0.0740(7)
H17 H -0.1160(19) 0.7931(25) 0.1648(8)
H18 H 0.0878(17) 0.7892(23) 0.2215(8)
C1 C 0.3803(2) 0.7695(2) 0.9784(1)
C2 C 0.4322(2) 0.6779(2) 0.9329(1)
C3 C 0.4585(2) 0.8091(2) 1.0300(1)
C4 C 0.5889(2) 0.7586(2) 1.0369(1)
C5 C 0.6475(2) 0.6662(2) 0.9917(1)
C6 C 0.7819(2) 0.6099(2) 0.9977(1)
C7 C 0.8351(2) 0.5184(3) 0.9535(1)
C8 C 0.7591(2) 0.4798(2) 0.9017(1)
C9 C 0.6270(2) 0.5303(2) 0.8935(1)
C10 C 0.5476(2) 0.4839(2) 0.8409(1)
C11 C 0.4168(2) 0.5275(2) 0.8340(1)
C12 C 0.3162(2) 0.4940(2) 0.7876(1)
C13 C 0.1993(2) 0.5653(2) 0.8029(1)
C14 C 0.2235(2) 0.6477(2) 0.8608(1)
C15 C 0.5685(2) 0.6264(2) 0.9390(1)
C16 C 0.3545(2) 0.6264(2) 0.8796(1)
C17 C 0.0701(2) 0.5615(2) 0.7686(1)
C18 C 0.0546(2) 0.4787(2) 0.7140(1)
C19 C -0.0664(2) 0.4744(2) 0.6817(1)
C20 C -0.1801(2) 0.5530(2) 0.7016(1)
C21 C -0.1643(2) 0.6346(2) 0.7563(1)
C22 C -0.0428(2) 0.6393(2) 0.7886(1)
C23 C -0.3099(2) 0.5513(2) 0.6659(1)
C24 C -0.3262(2) 0.4613(2) 0.6128(1)
C25 C -0.4464(2) 0.4620(2) 0.5792(1)
C26 C -0.5537(2) 0.5527(2) 0.5978(1)
C27 C -0.5407(2) 0.6422(3) 0.6502(1)
C28 C -0.4205(2) 0.6413(2) 0.6838(1)
H1 H 0.2803(18) 0.8060(20) 0.9752(6)
H2 H 0.4193(17) 0.8749(22) 1.0623(7)
H3 H 0.6429(16) 0.7805(20) 1.0760(7)
H4 H 0.8364(17) 0.6345(21) 1.0349(7)
H5 H 0.9314(19) 0.4789(23) 0.9584(8)
H6 H 0.7972(16) 0.4064(21) 0.8703(7)
H7 H 0.5891(17) 0.4142(22) 0.8099(7)
H8 H 0.3317(17) 0.4262(22) 0.7515(7)
H9 H 0.1544(16) 0.7114(20) 0.8817(7)
H10 H 0.1314(18) 0.4200(22) 0.6978(7)
H11 H -0.0722(17) 0.4168(22) 0.6440(8)
H12 H -0.2428(18) 0.6926(22) 0.7736(7)
H13 H -0.0392(15) 0.6995(20) 0.8263(7)
H14 H -0.2492(18) 0.3930(22) 0.5980(7)
H15 H -0.4577(17) 0.3960(22) 0.5431(7)
H16 H -0.6431(18) 0.5508(20) 0.5740(7)
H17 H -0.6160(19) 0.7069(25) 0.6648(8)
H18 H -0.4122(17) 0.7108(23) 0.7215(8)
C1 C 0.1197(2) 0.2695(2) 0.5216(1)
C2 C 0.0678(2) 0.1779(2) 0.5671(1)
C3 C 0.0415(2) 0.3091(2) 0.4700(1)
C4 C -0.0889(2) 0.2586(2) 0.4631(1)
C5 C -0.1475(2) 0.1662(2) 0.5083(1)
C6 C -0.2819(2) 0.1099(2) 0.5023(1)
C7 C -0.3351(2) 0.0184(3) 0.5465(1)
C8 C -0.2591(2) -0.0202(2) 0.5983(1)
C9 C -0.1270(2) 0.0303(2) 0.6065(1)
C10 C -0.0476(2) -0.0161(2) 0.6591(1)
C11 C 0.0832(2) 0.0275(2) 0.6660(1)
C12 C 0.1838(2) -0.0060(2) 0.7124(1)
C13 C 0.3007(2) 0.0653(2) 0.6971(1)
C14 C 0.2765(2) 0.1477(2) 0.6392(1)
C15 C -0.0685(2) 0.1264(2) 0.5610(1)
C16 C 0.1455(2) 0.1264(2) 0.6204(1)
C17 C 0.4299(2) 0.0615(2) 0.7314(1)
C18 C 0.4454(2) -0.0213(2) 0.7860(1)
C19 C 0.5664(2) -0.0256(2) 0.8183(1)
C20 C 0.6801(2) 0.0530(2) 0.7984(1)
C21 C 0.6643(2) 0.1346(2) 0.7437(1)
C22 C 0.5428(2) 0.1393(2) 0.7114(1)
C23 C 0.8099(2) 0.0513(2) 0.8341(1)
C24 C 0.8262(2) -0.0387(2) 0.8872(1)
C25 C 0.9464(2) -0.0380(2) 0.9208(1)
C26 C 1.0537(2) 0.0527(2) 0.9022(1)
C27 C 1.0407(2) 0.1422(3) 0.8498(1)
C28 C 0.9205(2) 0.1413(2) 0.8162(1)
H1 H 0.2197(18) 0.3060(20) 0.5248(6)
H2 H 0.0807(17) 0.3749(22) 0.4377(7)
H3 H -0.1429(16) 0.2805(20) 0.4240(7)
H4 H -0.3364(17) 0.1345(21) 0.4651(7)
H5 H -0.4314(19) -0.0211(23) 0.5416(8)
H6 H -0.2972(16) -0.0936(21) 0.6297(7)
H7 H -0.0891(17) -0.0858(22) 0.6901(7)
H8 H 0.1683(17) -0.0738(22) 0.7485(7)
H9 H 0.3456(16) 0.2114(20) 0.6183(7)
H10 H 0.3686(18) -0.0800(22) 0.8022(7)
H11 H 0.5722(17) -0.0832(22) 0.8560(8)
H12 H 0.7428(18) 0.1926(22) 0.7264(7)
H13 H 0.5392(15) 0.1995(20) 0.6737(7)
H14 H 0.7492(18) -0.1070(22) 0.9020(7)
H15 H 0.9577(17) -0.1040(22) 0.9569(7)
H16 H 1.1431(18) 0.0508(20) 0.9260(7)
H17 H 1.1160(19) 0.2069(25) 0.8352(8)
H18 H 0.9122(17) 0.2108(23) 0.7785(8)

#END
