./KACHON_from_POSCAR.cif_generated_by_CrystalShift
_symmetry_cell_setting triclinic
_symmetry_space_group_name_H-M 'P 1'
loop_
_symmetry_equiv_pos_site_id
_symmetry_equiv_pos_as_xyz
1 x,y,z
_cell_length_a 9.760700
_cell_length_b 10.641300
_cell_length_c 12.545100
_cell_angle_alpha 79.851000
_cell_angle_beta 68.139000
_cell_angle_gamma 79.241000
_cell_volume 1179.894875
loop_
_atom_site_label
_atom_site_type_symbol
_atom_site_fract_x
_atom_site_fract_y
_atom_site_fract_z
H1 H 0.389500 1.226300 0.071600
H2 H 0.231700 1.400500 0.026700
H3 H -0.015300 1.434100 0.145000
H4 H 0.729600 0.033000 0.708000
H5 H -0.107400 1.288800 0.305500
H6 H 0.046100 1.109200 0.347700
H7 H 0.270400 0.967000 0.292000
H8 H 1.107400 -0.288800 0.694500
H9 H 0.610500 -0.226300 0.928400
H10 H 0.768300 -0.400500 0.973300
H11 H 1.015300 -0.434100 0.855000
H12 H 0.953900 -0.109200 0.652300
B13 B 0.529900 0.873730 0.282980
B14 B 0.470100 0.126270 0.717020
C15 C 0.288700 1.237870 0.119240
C16 C 0.325410 0.145220 0.684920
C17 C 0.300700 0.058970 0.625010
C18 C 0.525950 -0.005000 0.771700
C19 C 0.183300 0.080400 0.585610
C20 C 0.194800 1.342200 0.092900
C21 C 0.082500 0.189900 0.608780
C22 C 0.674200 -0.033950 0.751400
C23 C 0.100600 0.277500 0.669310
C24 C 0.047700 1.361700 0.162600
C25 C 0.220300 0.254330 0.705750
C26 C 0.557910 0.245580 0.686080
C27 C 0.415100 -0.095570 0.837680
C28 C 0.291100 -0.056530 0.930190
C29 C -0.006800 1.275500 0.257600
C30 C 0.183300 -0.134300 0.994350
C31 C 0.593690 0.318450 0.578020
C32 C 0.195800 -0.255500 0.965350
C33 C 0.085400 1.169100 0.283490
C34 C 0.315200 -0.296990 0.872500
C35 C 0.235500 1.149440 0.215830
C36 C 0.422000 -0.217950 0.810220
C37 C 0.578000 1.217950 0.189780
C38 C 0.764500 -0.149440 0.784170
C39 C 0.914600 -0.169100 0.716510
C40 C 0.684800 1.296990 0.127500
C41 C 1.006800 -0.275500 0.742400
C42 C 0.666500 0.399820 0.742300
C43 C 0.952300 -0.361700 0.837400
C44 C 0.804200 1.255500 0.034650
C45 C 0.805200 -0.342200 0.907100
C46 C 0.703500 0.465930 0.632930
C47 C 0.711300 -0.237870 0.880760
C48 C 0.816700 1.134300 0.005650
C49 C 0.666300 0.424520 0.550890
C50 C 0.474050 1.005000 0.228300
C51 C 0.325800 1.033950 0.248600
C52 C 0.708900 1.056530 0.069810
C53 C 0.442090 0.754420 0.313920
C54 C 0.406310 0.681550 0.421980
C55 C 0.598490 0.291050 0.765440
C56 C 0.333700 0.575480 0.449110
C57 C 0.584900 1.095570 0.162320
C58 C 0.296500 0.534070 0.367070
C59 C 0.779700 0.745670 0.294250
C60 C 0.333500 0.600180 0.257700
C61 C 0.899400 0.722500 0.330690
C62 C 0.401510 0.708950 0.234560
C63 C 0.917500 0.810100 0.391220
C64 C 0.674590 0.854780 0.315080
C65 C 0.699300 0.941030 0.374990
C66 C 0.816700 0.919600 0.414390
F67 F 0.603880 1.049620 0.399880
F68 F 0.832420 1.004530 0.475360
F69 F 0.432850 0.771130 0.126520
F70 F 1.033760 0.789630 0.427070
F71 F 0.303040 0.559090 0.175270
F72 F 0.997300 0.616170 0.308500
F73 F 0.224740 0.431690 0.393480
F74 F 0.766470 0.658520 0.234450
F75 F 0.298530 0.511470 0.556260
F76 F 0.558910 0.283120 0.494280
F77 F 0.725430 0.937860 0.040220
F78 F 0.701470 0.488530 0.443740
F79 F 0.932830 1.092620 -0.085010
F80 F 0.775260 0.568310 0.606520
F81 F 0.906850 1.332390 -0.027370
F82 F 0.696960 0.440910 0.824730
F83 F 0.672720 1.414930 0.157100
F84 F 0.535600 -0.262160 0.719830
F85 F 0.464400 1.262160 0.280170
F86 F 0.327280 -0.414930 0.842900
F87 F 0.093150 -0.332390 1.027370
F88 F 0.067170 -0.092620 1.085010
F89 F 0.274570 0.062140 0.959780
F90 F 0.233530 0.341480 0.765550
F91 F 0.002700 0.383830 0.691500
F92 F -0.033760 0.210370 0.572930
F93 F 0.167580 -0.004530 0.524640
F94 F 0.396120 -0.049620 0.600120
F95 F 0.567150 0.228870 0.873480
F96 F 0.441090 0.716880 0.505720

#END
