
#######################################################################
#
#                 Cambridge Crystallographic Data Centre
#                                CCDC 
#
#######################################################################
#
# If this CIF has been generated from an entry in the Cambridge 
# Structural Database, then it will include bibliographic, chemical, 
# crystal, experimental, refinement or atomic coordinate data resulting 
# from the CCDC's data processing and validation procedures.
#
#######################################################################

data_KACRAK
_symmetry_cell_setting           monoclinic
_symmetry_space_group_name_H-M   'C c'
_symmetry_Int_Tables_number      9
_space_group_name_Hall           'C -2yc'
loop_
_symmetry_equiv_pos_site_id
_symmetry_equiv_pos_as_xyz
1 x,y,z
2 x,-y,1/2+z
3 1/2+x,1/2+y,z
4 1/2+x,1/2-y,1/2+z
_cell_length_a                   10.6608(8)
_cell_length_b                   20.7410(15)
_cell_length_c                   9.9455(7)
_cell_angle_alpha                90
_cell_angle_beta                 102.307(2)
_cell_angle_gamma                90
_cell_volume                     2148.57
loop_
_atom_site_label
_atom_site_type_symbol
_atom_site_fract_x
_atom_site_fract_y
_atom_site_fract_z
O1 O 1.05225(14) 0.22347(7) 0.42277(17)
O2 O 0.74397(19) 0.35908(8) 0.3256(2)
O3 O 0.85928(16) 0.30322(7) 0.20301(17)
C1 C 0.7889(2) 0.25806(10) 0.5228(3)
H1 H 0.7325 0.2916 0.5287
C2 C 0.84259(19) 0.25989(9) 0.4142(2)
C3 C 0.93921(19) 0.21170(9) 0.3849(2)
C4 C 0.89399(19) 0.15180(9) 0.3084(2)
C5 C 0.7677(2) 0.14165(9) 0.2621(2)
H2 H 0.7153 0.1727 0.2893
C6 C 0.6979(2) 0.09028(10) 0.1764(2)
C7 C 0.7499(3) 0.03101(10) 0.1502(3)
H3 H 0.8343 0.0213 0.1925
C8 C 0.6788(3) -0.01326(12) 0.0634(4)
H4 H 0.7155 -0.0523 0.0466
C9 C 0.5539(3) -0.00007(15) 0.0013(4)
H5 H 0.5057 -0.0301 -0.0574
C10 C 0.5004(3) 0.05743(18) 0.0258(4)
H6 H 0.4159 0.0666 -0.0170
C11 C 0.5704(3) 0.10182(14) 0.1132(3)
H7 H 0.5319 0.1403 0.1305
C12 C 0.8054(2) 0.21088(10) 0.6346(2)
C13 C 0.9130(3) 0.17244(12) 0.6743(3)
H8 H 0.9816 0.1772 0.6309
C14 C 0.9200(3) 0.12720(15) 0.7772(3)
H9 H 0.9929 0.1016 0.8025
C15 C 0.8201(3) 0.11981(15) 0.8420(3)
H10 H 0.8238 0.0885 0.9097
C16 C 0.7145(3) 0.15877(16) 0.8069(3)
H11 H 0.6472 0.1544 0.8523
C17 C 0.7072(3) 0.20402(13) 0.7055(3)
H12 H 0.6355 0.2306 0.6838
C18 C 0.99930(18) 0.10969(8) 0.2809(2)
C19 C 1.0485(2) 0.12057(9) 0.1654(2)
H13 H 1.0140 0.1533 0.1048
C20 C 1.1478(3) 0.08373(10) 0.1386(3)
H14 H 1.1804 0.0919 0.0607
C21 C 1.1984(3) 0.03529(11) 0.2262(3)
H15 H 1.2642 0.0098 0.2071
C22 C 1.1522(2) 0.02433(10) 0.3422(3)
H16 H 1.1871 -0.0085 0.4022
C23 C 1.0540(2) 0.06165(10) 0.3710(2)
H17 H 1.0246 0.0545 0.4512
C24 C 0.8084(2) 0.31331(10) 0.3119(2)
C25 C 0.8301(3) 0.35004(13) 0.0918(3)
H18 H 0.8719 0.3907 0.1212
H19 H 0.7382 0.3574 0.0666
C26 C 0.8761(4) 0.32487(16) -0.0262(3)
H20 H 0.9682 0.3235 -0.0046
H21 H 0.8474 0.3524 -0.1043
H22 H 0.8428 0.2822 -0.0473
O1 O 1.05225(14) 0.77653(7) 0.92277(17)
O2 O 0.74397(19) 0.64092(8) 0.8256(2)
O3 O 0.85928(16) 0.69678(7) 0.70301(17)
C1 C 0.7889(2) 0.74194(10) 1.0228(3)
H1 H 0.7325 0.7084 1.0287
C2 C 0.84259(19) 0.74011(9) 0.9142(2)
C3 C 0.93921(19) 0.78830(9) 0.8849(2)
C4 C 0.89399(19) 0.84820(9) 0.8084(2)
C5 C 0.7677(2) 0.85835(9) 0.7621(2)
H2 H 0.7153 0.8273 0.7893
C6 C 0.6979(2) 0.90972(10) 0.6764(2)
C7 C 0.7499(3) 0.96899(10) 0.6502(3)
H3 H 0.8343 0.9787 0.6925
C8 C 0.6788(3) 1.01326(12) 0.5634(4)
H4 H 0.7155 1.0523 0.5466
C9 C 0.5539(3) 1.00007(15) 0.5013(4)
H5 H 0.5057 1.0301 0.4426
C10 C 0.5004(3) 0.94257(18) 0.5258(4)
H6 H 0.4159 0.9334 0.4830
C11 C 0.5704(3) 0.89818(14) 0.6132(3)
H7 H 0.5319 0.8597 0.6305
C12 C 0.8054(2) 0.78912(10) 1.1346(2)
C13 C 0.9130(3) 0.82756(12) 1.1743(3)
H8 H 0.9816 0.8228 1.1309
C14 C 0.9200(3) 0.87280(15) 1.2772(3)
H9 H 0.9929 0.8984 1.3025
C15 C 0.8201(3) 0.88019(15) 1.3420(3)
H10 H 0.8238 0.9115 1.4097
C16 C 0.7145(3) 0.84123(16) 1.3069(3)
H11 H 0.6472 0.8456 1.3523
C17 C 0.7072(3) 0.79598(13) 1.2055(3)
H12 H 0.6355 0.7694 1.1838
C18 C 0.99930(18) 0.89031(8) 0.7809(2)
C19 C 1.0485(2) 0.87943(9) 0.6654(2)
H13 H 1.0140 0.8467 0.6048
C20 C 1.1478(3) 0.91627(10) 0.6386(3)
H14 H 1.1804 0.9081 0.5607
C21 C 1.1984(3) 0.96471(11) 0.7262(3)
H15 H 1.2642 0.9902 0.7071
C22 C 1.1522(2) 0.97567(10) 0.8422(3)
H16 H 1.1871 1.0085 0.9022
C23 C 1.0540(2) 0.93835(10) 0.8710(2)
H17 H 1.0246 0.9455 0.9512
C24 C 0.8084(2) 0.68669(10) 0.8119(2)
C25 C 0.8301(3) 0.64996(13) 0.5918(3)
H18 H 0.8719 0.6093 0.6212
H19 H 0.7382 0.6426 0.5666
C26 C 0.8761(4) 0.67513(16) 0.4738(3)
H20 H 0.9682 0.6765 0.4954
H21 H 0.8474 0.6476 0.3957
H22 H 0.8428 0.7178 0.4527
O1 O 0.55225(14) 0.72347(7) 0.42277(17)
O2 O 0.24397(19) 0.85908(8) 0.3256(2)
O3 O 0.35928(16) 0.80322(7) 0.20301(17)
C1 C 0.2889(2) 0.75806(10) 0.5228(3)
H1 H 0.2325 0.7916 0.5287
C2 C 0.34259(19) 0.75989(9) 0.4142(2)
C3 C 0.43921(19) 0.71170(9) 0.3849(2)
C4 C 0.39399(19) 0.65180(9) 0.3084(2)
C5 C 0.2677(2) 0.64165(9) 0.2621(2)
H2 H 0.2153 0.6727 0.2893
C6 C 0.1979(2) 0.59028(10) 0.1764(2)
C7 C 0.2499(3) 0.53101(10) 0.1502(3)
H3 H 0.3343 0.5213 0.1925
C8 C 0.1788(3) 0.48674(12) 0.0634(4)
H4 H 0.2155 0.4477 0.0466
C9 C 0.0539(3) 0.49993(15) 0.0013(4)
H5 H 0.0057 0.4699 -0.0574
C10 C 0.0004(3) 0.55743(18) 0.0258(4)
H6 H -0.0841 0.5666 -0.0170
C11 C 0.0704(3) 0.60182(14) 0.1132(3)
H7 H 0.0319 0.6403 0.1305
C12 C 0.3054(2) 0.71088(10) 0.6346(2)
C13 C 0.4130(3) 0.67244(12) 0.6743(3)
H8 H 0.4816 0.6772 0.6309
C14 C 0.4200(3) 0.62720(15) 0.7772(3)
H9 H 0.4929 0.6016 0.8025
C15 C 0.3201(3) 0.61981(15) 0.8420(3)
H10 H 0.3238 0.5885 0.9097
C16 C 0.2145(3) 0.65877(16) 0.8069(3)
H11 H 0.1472 0.6544 0.8523
C17 C 0.2072(3) 0.70402(13) 0.7055(3)
H12 H 0.1355 0.7306 0.6838
C18 C 0.49930(18) 0.60969(8) 0.2809(2)
C19 C 0.5485(2) 0.62057(9) 0.1654(2)
H13 H 0.5140 0.6533 0.1048
C20 C 0.6478(3) 0.58373(10) 0.1386(3)
H14 H 0.6804 0.5919 0.0607
C21 C 0.6984(3) 0.53529(11) 0.2262(3)
H15 H 0.7642 0.5098 0.2071
C22 C 0.6522(2) 0.52433(10) 0.3422(3)
H16 H 0.6871 0.4915 0.4022
C23 C 0.5540(2) 0.56165(10) 0.3710(2)
H17 H 0.5246 0.5545 0.4512
C24 C 0.3084(2) 0.81331(10) 0.3119(2)
C25 C 0.3301(3) 0.85004(13) 0.0918(3)
H18 H 0.3719 0.8907 0.1212
H19 H 0.2382 0.8574 0.0666
C26 C 0.3761(4) 0.82487(16) -0.0262(3)
H20 H 0.4682 0.8235 -0.0046
H21 H 0.3474 0.8524 -0.1043
H22 H 0.3428 0.7822 -0.0473
O1 O 0.55225(14) 0.27653(7) 0.92277(17)
O2 O 0.24397(19) 0.14092(8) 0.8256(2)
O3 O 0.35928(16) 0.19678(7) 0.70301(17)
C1 C 0.2889(2) 0.24194(10) 1.0228(3)
H1 H 0.2325 0.2084 1.0287
C2 C 0.34259(19) 0.24011(9) 0.9142(2)
C3 C 0.43921(19) 0.28830(9) 0.8849(2)
C4 C 0.39399(19) 0.34820(9) 0.8084(2)
C5 C 0.2677(2) 0.35835(9) 0.7621(2)
H2 H 0.2153 0.3273 0.7893
C6 C 0.1979(2) 0.40972(10) 0.6764(2)
C7 C 0.2499(3) 0.46899(10) 0.6502(3)
H3 H 0.3343 0.4787 0.6925
C8 C 0.1788(3) 0.51326(12) 0.5634(4)
H4 H 0.2155 0.5523 0.5466
C9 C 0.0539(3) 0.50007(15) 0.5013(4)
H5 H 0.0057 0.5301 0.4426
C10 C 0.0004(3) 0.44257(18) 0.5258(4)
H6 H -0.0841 0.4334 0.4830
C11 C 0.0704(3) 0.39818(14) 0.6132(3)
H7 H 0.0319 0.3597 0.6305
C12 C 0.3054(2) 0.28912(10) 1.1346(2)
C13 C 0.4130(3) 0.32756(12) 1.1743(3)
H8 H 0.4816 0.3228 1.1309
C14 C 0.4200(3) 0.37280(15) 1.2772(3)
H9 H 0.4929 0.3984 1.3025
C15 C 0.3201(3) 0.38019(15) 1.3420(3)
H10 H 0.3238 0.4115 1.4097
C16 C 0.2145(3) 0.34123(16) 1.3069(3)
H11 H 0.1472 0.3456 1.3523
C17 C 0.2072(3) 0.29598(13) 1.2055(3)
H12 H 0.1355 0.2694 1.1838
C18 C 0.49930(18) 0.39031(8) 0.7809(2)
C19 C 0.5485(2) 0.37943(9) 0.6654(2)
H13 H 0.5140 0.3467 0.6048
C20 C 0.6478(3) 0.41627(10) 0.6386(3)
H14 H 0.6804 0.4081 0.5607
C21 C 0.6984(3) 0.46471(11) 0.7262(3)
H15 H 0.7642 0.4902 0.7071
C22 C 0.6522(2) 0.47567(10) 0.8422(3)
H16 H 0.6871 0.5085 0.9022
C23 C 0.5540(2) 0.43835(10) 0.8710(2)
H17 H 0.5246 0.4455 0.9512
C24 C 0.3084(2) 0.18669(10) 0.8119(2)
C25 C 0.3301(3) 0.14996(13) 0.5918(3)
H18 H 0.3719 0.1093 0.6212
H19 H 0.2382 0.1426 0.5666
C26 C 0.3761(4) 0.17513(16) 0.4738(3)
H20 H 0.4682 0.1765 0.4954
H21 H 0.3474 0.1476 0.3957
H22 H 0.3428 0.2178 0.4527

#END
