./KACREM_from_POSCAR.cif_generated_by_CrystalShift
_symmetry_cell_setting triclinic
_symmetry_space_group_name_H-M 'P 1'
loop_
_symmetry_equiv_pos_site_id
_symmetry_equiv_pos_as_xyz
1 x,y,z
_cell_length_a 10.382600
_cell_length_b 13.403600
_cell_length_c 7.700700
_cell_angle_alpha 105.296000
_cell_angle_beta 104.234000
_cell_angle_gamma 73.707000
_cell_volume 974.939128
loop_
_atom_site_label
_atom_site_type_symbol
_atom_site_fract_x
_atom_site_fract_y
_atom_site_fract_z
H1 H 0.966700 0.844900 0.254900
H2 H 0.410600 1.083300 0.210300
H3 H 0.588800 0.582600 0.015900
H4 H 0.714700 0.631500 0.103300
H5 H 0.585300 0.623800 -0.237300
H6 H 0.550800 0.743000 -0.142400
H7 H 0.701800 0.682500 -0.144400
H8 H 0.503400 0.755300 0.443900
H9 H 0.645200 0.681400 0.418800
H10 H 0.559600 0.548400 0.407600
H11 H 0.412700 0.619600 0.395000
H12 H 0.472800 0.566100 0.218400
H13 H 0.789200 0.794900 0.333300
H14 H 0.320100 0.629300 -0.010100
H15 H 0.206100 0.556700 -0.275800
H16 H 0.062500 0.549500 -0.391100
H17 H 0.091900 0.706700 -0.490900
H18 H 0.244100 0.647300 -0.451800
H19 H 0.139800 0.591700 -0.598000
H20 H 0.121300 0.609900 0.038600
H21 H -0.033300 0.663900 0.014000
H22 H 0.018100 0.556200 -0.113300
H23 H -0.152000 0.721500 -0.248100
H24 H -0.093100 0.822300 -0.178900
H25 H -0.090000 0.758000 -0.378000
H26 H 0.589400 -0.083300 0.789700
H27 H 0.370500 -0.116700 0.658400
H28 H 0.210800 0.205100 0.666700
H29 H 0.800700 -0.003800 0.978400
H30 H 0.964400 0.100000 1.132500
H31 H 0.679900 0.370700 1.010100
H32 H 0.937500 0.450500 1.391100
H33 H 0.793900 0.443300 1.275800
H34 H 1.090000 0.242000 1.378000
H35 H 1.093100 0.177700 1.178900
H36 H 1.152000 0.278500 1.248100
H37 H 0.981900 0.443800 1.113300
H38 H 1.033300 0.336100 0.986000
H39 H 0.878700 0.390100 0.961400
H40 H 0.354800 0.318600 0.581200
H41 H 0.496600 0.244700 0.556100
H42 H 0.527200 0.433900 0.781600
H43 H 0.587300 0.380400 0.605000
H44 H 0.440400 0.451600 0.592400
H45 H 0.860200 0.408300 1.598000
H46 H 0.755900 0.352700 1.451800
H47 H 0.908100 0.293300 1.490900
H48 H 0.285300 0.368500 0.896700
H49 H 0.411200 0.417400 0.984100
H50 H 0.298200 0.317500 1.144400
H51 H 0.449200 0.257000 1.142400
H52 H 0.414700 0.376200 1.237300
H53 H 0.210600 -0.122800 0.403800
H54 H 0.033300 0.155100 0.745100
H55 H 0.035600 0.900000 -0.132500
H56 H 0.199300 1.003800 0.021600
H57 H 0.789400 1.122800 0.596200
H58 H -0.210600 0.122800 0.596200
H59 H 1.033300 1.155100 0.745100
H60 H 1.210600 0.877200 0.403800
H61 H 1.414700 1.376200 1.237300
H62 H 1.449200 1.257000 1.142400
H63 H 1.298200 1.317500 1.144400
H64 H 1.411200 1.417400 0.984100
H65 H 1.285300 1.368500 0.896700
H66 H 1.908100 1.293300 1.490900
H67 H 1.755900 1.352700 1.451800
H68 H 1.860200 1.408300 1.598000
H69 H -0.800700 0.003800 0.021600
H70 H -0.964400 -0.100000 -0.132500
H71 H 1.440400 1.451600 0.592400
H72 H 1.587300 1.380400 0.605000
H73 H -1.090000 -0.242000 -0.378000
H74 H -1.093100 -0.177700 -0.178900
H75 H -1.152000 -0.278500 -0.248100
H76 H 1.527200 1.433900 0.781600
H77 H -0.981900 -0.443800 -0.113300
H78 H -1.033300 -0.336100 0.014000
H79 H -0.878700 -0.390100 0.038600
H80 H 1.496600 1.244700 0.556100
H81 H 1.354800 1.318600 0.581200
H82 H -0.860200 -0.408300 -0.598000
H83 H -0.755900 -0.352700 -0.451800
H84 H -0.908100 -0.293300 -0.490900
H85 H -0.937500 -0.450500 -0.391100
H86 H -0.793900 -0.443300 -0.275800
H87 H -0.679900 -0.370700 -0.010100
H88 H 1.878700 1.390100 0.961400
H89 H 2.033300 1.336100 0.986000
H90 H 1.981900 1.443800 1.113300
H91 H -0.210800 -0.205100 0.333300
H92 H 2.152000 1.278500 1.248100
H93 H 2.093100 1.177700 1.178900
H94 H -0.527200 -0.433900 0.218400
H95 H -0.587300 -0.380400 0.395000
H96 H -0.440400 -0.451600 0.407600
H97 H -0.354800 -0.318600 0.418800
H98 H -0.496600 -0.244700 0.443900
H99 H 2.090000 1.242000 1.378000
H100 H 1.793900 1.443300 1.275800
H101 H -0.298200 -0.317500 -0.144400
H102 H -0.449200 -0.257000 -0.142400
H103 H -0.414700 -0.376200 -0.237300
H104 H -0.285300 -0.368500 0.103300
H105 H -0.411200 -0.417400 0.015900
H106 H -0.589400 0.083300 0.210300
H107 H -0.370500 0.116700 0.341600
H108 H -0.033300 -0.155100 0.254900
H109 H 1.937500 1.450500 1.391100
H110 H 1.679900 1.370700 1.010100
H111 H 1.964400 1.100000 1.132500
H112 H 1.800700 0.996200 0.978400
H113 H 1.210800 1.205100 0.666700
H114 H 1.370500 0.883300 0.658400
H115 H 1.589400 0.916700 0.789700
H116 H 0.966700 -0.155100 0.254900
H117 H 0.629500 0.116700 0.341600
H118 H 0.410600 0.083300 0.210300
H119 H 0.588800 -0.417400 0.015900
H120 H 0.714700 -0.368500 0.103300
H121 H 0.585300 -0.376200 -0.237300
H122 H 0.550800 -0.257000 -0.142400
H123 H 0.701800 -0.317500 -0.144400
H124 H 0.503400 -0.244700 0.443900
H125 H 0.645200 -0.318600 0.418800
H126 H 0.559600 -0.451600 0.407600
H127 H 0.412700 -0.380400 0.395000
H128 H 0.472800 -0.433900 0.218400
H129 H 0.789200 -0.205100 0.333300
H130 H 0.320100 -0.370700 -0.010100
H131 H 0.206100 -0.443300 -0.275800
H132 H 0.062500 -0.450500 -0.391100
H133 H 0.091900 -0.293300 -0.490900
H134 H 0.589400 0.916700 0.789700
H135 H 0.370500 0.883300 0.658400
H136 H 0.210800 1.205100 0.666700
H137 H 0.800700 0.996200 0.978400
H138 H 0.964400 1.100000 1.132500
H139 H 0.679900 1.370700 1.010100
H140 H 0.937500 1.450500 1.391100
H141 H 0.793900 1.443300 1.275800
H142 H 1.090000 1.242000 1.378000
H143 H 1.093100 1.177700 1.178900
H144 H 1.152000 1.278500 1.248100
H145 H 0.981900 1.443800 1.113300
H146 H 1.033300 1.336100 0.986000
H147 H 0.878700 1.390100 0.961400
H148 H 0.354800 1.318600 0.581200
H149 H 0.496600 1.244700 0.556100
H150 H 0.527200 1.433900 0.781600
H151 H 0.587300 1.380400 0.605000
H152 H 0.440400 1.451600 0.592400
H153 H 0.860200 1.408300 1.598000
H154 H 0.755900 1.352700 1.451800
H155 H 0.908100 1.293300 1.490900
H156 H 0.285300 1.368500 0.896700
H157 H 0.411200 1.417400 0.984100
H158 H 0.298200 1.317500 1.144400
H159 H 0.449200 1.257000 1.142400
H160 H 0.414700 1.376200 1.237300
H161 H 0.210600 0.877200 0.403800
H162 H 0.033300 1.155100 0.745100
H163 H 0.244100 -0.352700 -0.451800
H164 H 0.139800 -0.408300 -0.598000
H165 H 0.121300 -0.390100 0.038600
H166 H -0.210600 1.122800 0.596200
H167 H -0.033300 -0.336100 0.014000
H168 H 0.018100 -0.443800 -0.113300
H169 H -0.152000 -0.278500 -0.248100
H170 H -0.093100 -0.177700 -0.178900
H171 H -0.090000 -0.242000 -0.378000
H172 H 0.035600 -0.100000 -0.132500
H173 H 0.199300 0.003800 0.021600
H174 H 0.789400 0.122800 0.596200
H175 H 1.033300 0.155100 0.745100
H176 H 1.210600 -0.122800 0.403800
H177 H -0.800700 1.003800 0.021600
H178 H -0.964400 0.900000 -0.132500
H179 H 1.414700 0.376200 1.237300
H180 H 1.449200 0.257000 1.142400
H181 H -1.090000 0.758000 -0.378000
H182 H -1.093100 0.822300 -0.178900
H183 H -1.152000 0.721500 -0.248100
H184 H 1.298200 0.317500 1.144400
H185 H -0.981900 0.556200 -0.113300
H186 H -1.033300 0.663900 0.014000
H187 H -0.878700 0.609900 0.038600
H188 H 1.411200 0.417400 0.984100
H189 H 1.285300 0.368500 0.896700
H190 H -0.860200 0.591700 -0.598000
H191 H -0.755900 0.647300 -0.451800
H192 H -0.908100 0.706700 -0.490900
H193 H -0.937500 0.549500 -0.391100
H194 H -0.793900 0.556700 -0.275800
H195 H -0.679900 0.629300 -0.010100
H196 H 1.908100 0.293300 1.490900
H197 H 1.755900 0.352700 1.451800
H198 H 1.860200 0.408300 1.598000
H199 H -0.210800 0.794900 0.333300
H200 H 1.440400 0.451600 0.592400
H201 H 1.587300 0.380400 0.605000
H202 H -0.527200 0.566100 0.218400
H203 H -0.587300 0.619600 0.395000
H204 H -0.440400 0.548400 0.407600
H205 H -0.354800 0.681400 0.418800
H206 H -0.496600 0.755300 0.443900
H207 H 1.527200 0.433900 0.781600
H208 H 1.496600 0.244700 0.556100
H209 H -0.298200 0.682500 -0.144400
H210 H -0.449200 0.743000 -0.142400
H211 H -0.414700 0.623800 -0.237300
H212 H -0.285300 0.631500 0.103300
H213 H -0.411200 0.582600 0.015900
H214 H -0.589400 1.083300 0.210300
H215 H -0.370500 1.116700 0.341600
H216 H -0.033300 0.844900 0.254900
H217 H 1.354800 0.318600 0.581200
H218 H 1.878700 0.390100 0.961400
H219 H 2.033300 0.336100 0.986000
H220 H 1.981900 0.443800 1.113300
H221 H 2.152000 0.278500 1.248100
H222 H 2.093100 0.177700 1.178900
H223 H 2.090000 0.242000 1.378000
H224 H 1.793900 0.443300 1.275800
H225 H 1.937500 0.450500 1.391100
H226 H 1.679900 0.370700 1.010100
H227 H 1.964400 0.100000 1.132500
H228 H 1.800700 -0.003800 0.978400
H229 H 1.210800 0.205100 0.666700
H230 H 1.370500 -0.116700 0.658400
H231 H 1.589400 -0.083300 0.789700
H232 H 0.629500 1.116700 0.341600
C233 C 1.449300 0.304400 0.643200
C234 C 1.505200 0.399700 0.659500
C235 C 1.380000 0.353400 0.953800
C236 C 1.384800 0.324100 1.133000
C237 C 1.938800 0.315700 1.188300
C238 C 2.079800 0.251700 1.253600
C239 C 1.957700 0.376800 1.045800
C240 C 1.877800 0.404400 1.329500
C241 C 1.849500 0.362000 1.477700
C242 C 1.418000 0.162400 0.772000
C243 C 1.289600 0.145200 0.693900
C244 C 1.268600 0.040900 0.651300
C245 C 1.381700 -0.042000 0.687600
C246 C 1.528000 0.078700 0.811100
C247 C 1.509800 -0.024200 0.766300
C248 C 1.777900 0.074700 0.984200
C249 C 1.647900 0.121600 0.902600
C250 C 1.016100 0.088300 0.635400
C251 C 1.870800 0.136100 1.074200
C252 C 1.838100 0.245400 1.087100
C253 C 1.112300 -0.068300 0.435200
C254 C 1.612100 0.231800 0.913700
C255 C 1.706200 0.292700 1.004400
C256 C 1.131100 0.020600 0.573500
C257 C -0.384800 0.675900 -0.133000
C258 C -0.380000 0.646600 0.046200
C259 C -0.505200 0.600300 0.340500
C260 C -0.449300 0.695600 0.356800
C261 C -0.289600 0.854800 0.306100
C262 C -0.418000 0.837600 0.228000
C263 C -0.463400 0.732600 0.177400
C264 C -0.849500 0.638000 -0.477700
C265 C -0.877800 0.595600 -0.329500
C266 C -0.957700 0.623200 -0.045800
C267 C -1.079800 0.748300 -0.253600
C268 C -0.938800 0.684300 -0.188300
C269 C -0.777900 0.925300 0.015800
C270 C -0.870800 0.863900 -0.074200
C271 C 0.983900 -0.088300 0.364600
C272 C 0.868900 -0.020600 0.426500
C273 C 0.887700 0.068300 0.564800
C274 C -0.838100 0.754600 -0.087100
C275 C 0.731400 -0.040900 0.348700
C276 C 0.618300 0.042000 0.312400
C277 C 0.490200 0.024200 0.233700
C278 C 0.472000 -0.078700 0.188900
C279 C 0.352100 -0.121600 0.097400
C280 C 0.387900 -0.231800 0.086300
C281 C 0.293800 -0.292700 -0.004400
C282 C 0.161900 -0.245400 -0.087100
C283 C 0.129200 -0.136100 -0.074200
C284 C 0.222100 -0.074700 0.015800
C285 C -0.706200 0.707300 -0.004400
C286 C -0.612100 0.768200 0.086300
C287 C 0.061200 -0.315700 -0.188300
C288 C -0.079800 -0.251700 -0.253600
C289 C -0.647900 0.878400 0.097400
C290 C -0.528000 0.921300 0.188900
C291 C -0.509800 1.024200 0.233700
C292 C 0.042300 -0.376800 -0.045800
C293 C -0.381700 1.042000 0.312400
C294 C -0.268600 0.959100 0.348700
C295 C -0.112300 1.068300 0.564800
C296 C 0.122200 -0.404400 -0.329500
C297 C 0.150500 -0.362000 -0.477700
C298 C -0.131100 0.979400 0.426500
C299 C -0.016100 0.911700 0.364600
C300 C 0.849500 1.362000 1.477700
C301 C 0.877800 1.404400 1.329500
C302 C 0.957700 1.376800 1.045800
C303 C 1.079800 1.251700 1.253600
C304 C 0.536600 -0.267400 0.177400
C305 C 0.582000 -0.162400 0.228000
C306 C 0.710400 -0.145200 0.306100
C307 C 0.938800 1.315700 1.188300
C308 C 0.550700 -0.304400 0.356800
C309 C 0.494800 -0.399700 0.340500
C310 C 0.384800 1.324100 1.133000
C311 C 0.380000 1.353400 0.953800
C312 C 0.505200 1.399700 0.659500
C313 C 0.449300 1.304400 0.643200
C314 C 0.463400 1.267400 0.822600
C315 C 0.620000 -0.353400 0.046200
C316 C 0.615200 -0.324100 -0.133000
C317 C 0.418000 1.162400 0.772000
C318 C 0.289600 1.145200 0.693900
C319 C 0.268600 1.040900 0.651300
C320 C 0.381700 0.958000 0.687600
C321 C 0.528000 1.078700 0.811100
C322 C 0.509800 0.975800 0.766300
C323 C 0.777900 1.074700 0.984200
C324 C 0.647900 1.121600 0.902600
C325 C 1.131100 1.020600 0.573500
C326 C 1.706200 1.292700 1.004400
C327 C 1.612100 1.231800 0.913700
C328 C 1.112300 0.931700 0.435200
C329 C 1.838100 1.245400 1.087100
C330 C 1.870800 1.136100 1.074200
C331 C 1.016100 1.088300 0.635400
C332 C 1.647900 1.121600 0.902600
C333 C 1.777900 1.074700 0.984200
C334 C 1.509800 0.975800 0.766300
C335 C 1.528000 1.078700 0.811100
C336 C 1.381700 0.958000 0.687600
C337 C 1.268600 1.040900 0.651300
C338 C 1.289600 1.145200 0.693900
C339 C 1.418000 1.162400 0.772000
C340 C 1.463400 1.267400 0.822600
C341 C 1.449300 1.304400 0.643200
C342 C 1.505200 1.399700 0.659500
C343 C 1.380000 1.353400 0.953800
C344 C 1.384800 1.324100 1.133000
C345 C 1.938800 1.315700 1.188300
C346 C 2.079800 1.251700 1.253600
C347 C 1.957700 1.376800 1.045800
C348 C 1.877800 1.404400 1.329500
C349 C 1.849500 1.362000 1.477700
C350 C 0.016100 1.088300 0.635400
C351 C 0.870800 1.136100 1.074200
C352 C 0.838100 1.245400 1.087100
C353 C 0.112300 0.931700 0.435200
C354 C 0.612100 1.231800 0.913700
C355 C 0.706200 1.292700 1.004400
C356 C 0.131100 1.020600 0.573500
C357 C -0.384800 -0.324100 -0.133000
C358 C -0.380000 -0.353400 0.046200
C359 C -0.505200 -0.399700 0.340500
C360 C -0.449300 -0.304400 0.356800
C361 C -0.289600 -0.145200 0.306100
C362 C -0.418000 -0.162400 0.228000
C363 C -0.463400 -0.267400 0.177400
C364 C -0.849500 -0.362000 -0.477700
C365 C -0.877800 -0.404400 -0.329500
C366 C -0.957700 -0.376800 -0.045800
C367 C -1.079800 -0.251700 -0.253600
C368 C -0.938800 -0.315700 -0.188300
C369 C -0.777900 -0.074700 0.015800
C370 C -0.870800 -0.136100 -0.074200
C371 C -0.838100 -0.245400 -0.087100
C372 C -0.706200 -0.292700 -0.004400
C373 C -0.612100 -0.231800 0.086300
C374 C -0.647900 -0.121600 0.097400
C375 C -0.528000 -0.078700 0.188900
C376 C -0.509800 0.024200 0.233700
C377 C -0.381700 0.042000 0.312400
C378 C -0.268600 -0.040900 0.348700
C379 C 0.983900 0.911700 0.364600
C380 C 0.868900 0.979400 0.426500
C381 C 0.887700 1.068300 0.564800
C382 C -0.112300 0.068300 0.564800
C383 C 0.731400 0.959100 0.348700
C384 C 0.618300 1.042000 0.312400
C385 C 0.490200 1.024200 0.233700
C386 C 0.472000 0.921300 0.188900
C387 C 0.352100 0.878400 0.097400
C388 C 0.387900 0.768200 0.086300
C389 C 0.293800 0.707300 -0.004400
C390 C 0.161900 0.754600 -0.087100
C391 C 0.129200 0.863900 -0.074200
C392 C 0.222100 0.925300 0.015800
C393 C -0.131100 -0.020600 0.426500
C394 C -0.016100 -0.088300 0.364600
C395 C 0.061200 0.684300 -0.188300
C396 C -0.079800 0.748300 -0.253600
C397 C 0.849500 0.362000 1.477700
C398 C 0.877800 0.404400 1.329500
C399 C 0.957700 0.376800 1.045800
C400 C 0.042300 0.623200 -0.045800
C401 C 1.079800 0.251700 1.253600
C402 C 0.938800 0.315700 1.188300
C403 C 0.384800 0.324100 1.133000
C404 C 0.122200 0.595600 -0.329500
C405 C 0.150500 0.638000 -0.477700
C406 C 0.380000 0.353400 0.953800
C407 C 0.505200 0.399700 0.659500
C408 C 0.449300 0.304400 0.643200
C409 C 0.463400 0.267400 0.822600
C410 C 0.418000 0.162400 0.772000
C411 C 0.289600 0.145200 0.693900
C412 C 0.536600 0.732600 0.177400
C413 C 0.582000 0.837600 0.228000
C414 C 0.710400 0.854800 0.306100
C415 C 0.268600 0.040900 0.651300
C416 C 0.550700 0.695600 0.356800
C417 C 0.494800 0.600300 0.340500
C418 C 0.381700 -0.042000 0.687600
C419 C 0.528000 0.078700 0.811100
C420 C 0.509800 -0.024200 0.766300
C421 C 0.777900 0.074700 0.984200
C422 C 0.647900 0.121600 0.902600
C423 C 0.620000 0.646600 0.046200
C424 C 0.615200 0.675900 -0.133000
C425 C 0.016100 0.088300 0.635400
C426 C 0.870800 0.136100 1.074200
C427 C 0.838100 0.245400 1.087100
C428 C 0.112300 -0.068300 0.435200
C429 C 0.612100 0.231800 0.913700
C430 C 0.706200 0.292700 1.004400
C431 C 1.463400 0.267400 0.822600
C432 C 0.131100 0.020600 0.573500

#END
