./KACSAL_from_POSCAR.cif_generated_by_CrystalShift
_symmetry_cell_setting triclinic
_symmetry_space_group_name_H-M 'P 1'
loop_
_symmetry_equiv_pos_site_id
_symmetry_equiv_pos_as_xyz
1 x,y,z
_cell_length_a 33.174500
_cell_length_b 7.786000
_cell_length_c 15.866800
_cell_angle_alpha 90.000000
_cell_angle_beta 100.688000
_cell_angle_gamma 90.000000
_cell_volume 4027.241981
loop_
_atom_site_label
_atom_site_type_symbol
_atom_site_fract_x
_atom_site_fract_y
_atom_site_fract_z
H1 H 0.856200 0.059600 0.733400
H2 H 0.868300 0.186700 0.810600
H3 H 0.935600 0.697600 0.773400
H4 H 0.897300 0.800900 0.726900
H5 H 0.935300 0.775600 0.682300
H6 H 0.973800 0.463700 0.548000
H7 H 1.035900 0.368600 0.627300
H8 H 0.989200 -0.106200 0.630200
H9 H 0.927100 -0.009800 0.552000
H10 H 0.326800 -0.291500 0.023200
H11 H 0.799800 0.246200 0.460500
H12 H 0.286500 -0.433500 0.105700
H13 H 0.791200 0.384700 0.387800
H14 H 0.898500 0.142900 0.387500
H15 H 0.239300 0.018100 0.163700
H16 H 0.876800 0.070800 0.459700
H17 H 0.279700 0.159400 0.079700
H18 H 0.911000 0.401000 0.455500
H19 H 0.844700 0.551800 0.454000
H20 H 0.344700 -0.051800 -0.046000
H21 H 0.779700 0.340600 0.579700
H22 H 0.739300 0.481900 0.663700
H23 H 0.411000 0.099000 -0.044500
H24 H 0.786500 0.933500 0.605700
H25 H 0.376800 0.429200 -0.040300
H26 H 0.398500 0.357100 -0.112500
H27 H 0.826800 0.791500 0.523200
H28 H 0.143800 0.059600 0.766600
H29 H 0.291200 0.115300 -0.112200
H30 H 0.299800 0.253800 -0.039500
H31 H 0.175400 0.197400 0.747400
H32 H 0.131700 0.186700 0.689400
H33 H 0.064400 0.697600 0.726600
H34 H 0.102700 0.800900 0.773100
H35 H 0.064700 0.775600 0.817700
H36 H 0.427100 0.509800 0.052000
H37 H 0.026200 0.463700 0.952000
H38 H 0.489200 0.606200 0.130200
H39 H -0.035900 0.368600 0.872700
H40 H 0.010800 -0.106200 0.869800
H41 H 0.535900 0.131400 0.127300
H42 H 0.072900 -0.009800 0.948000
H43 H 0.473800 0.036300 0.048000
H44 H 0.200200 0.246200 1.039500
H45 H 0.435300 -0.275600 0.182300
H46 H 0.397300 -0.300900 0.226900
H47 H 0.435600 -0.197600 0.273400
H48 H 0.208800 0.384700 1.112200
H49 H 0.368300 0.313300 0.310600
H50 H 0.324600 0.302600 0.252600
H51 H 0.356200 0.440400 0.233400
H52 H 0.101500 0.142900 1.112500
H53 H 0.123200 0.070800 1.040300
H54 H 0.089000 0.401000 1.044500
H55 H 0.155300 0.551800 1.046000
H56 H 0.220300 0.340600 0.920300
H57 H 0.260700 0.481900 0.836300
H58 H 0.213500 0.933500 0.894300
H59 H 0.173200 0.791500 0.976800
H60 H 0.356200 0.559600 0.733400
H61 H 0.673200 -0.291500 0.476800
H62 H 0.324600 0.697400 0.752600
H63 H 0.713500 -0.433500 0.394300
H64 H 0.368300 0.686700 0.810600
H65 H 0.435600 1.197600 0.773400
H66 H 0.760700 0.018100 0.336300
H67 H 0.397300 1.300900 0.726900
H68 H 0.720300 0.159400 0.420300
H69 H 0.435300 1.275600 0.682300
H70 H 0.473800 0.963700 0.548000
H71 H 0.655300 -0.051800 0.546000
H72 H 0.535900 0.868600 0.627300
H73 H 0.489200 0.393800 0.630200
H74 H 0.589000 0.099000 0.544500
H75 H 0.427100 0.490200 0.552000
H76 H 0.623200 0.429200 0.540300
H77 H 0.601500 0.357100 0.612500
H78 H 0.299800 0.746200 0.460500
H79 H 0.291200 0.884700 0.387800
H80 H 0.708800 0.115300 0.612200
H81 H 0.700200 0.253800 0.539500
H82 H 0.398500 0.642900 0.387500
H83 H 0.376800 0.570800 0.459700
H84 H 0.411000 0.901000 0.455500
H85 H 0.344700 1.051800 0.454000
H86 H 0.279700 0.840600 0.579700
H87 H 0.572900 0.509800 0.448000
H88 H 0.239300 0.981900 0.663700
H89 H 0.510800 0.606200 0.369800
H90 H 0.286500 1.433500 0.605700
H91 H 0.326800 1.291500 0.523200
H92 H 0.464100 0.131400 0.372700
H93 H 0.643800 0.559600 0.766600
H94 H 0.526200 0.036300 0.452000
H95 H 0.675400 0.697400 0.747400
H96 H 0.564700 -0.275600 0.317700
H97 H 0.602700 -0.300900 0.273100
H98 H 0.564400 -0.197600 0.226600
H99 H 0.631700 0.686700 0.689400
H100 H 0.631700 0.313300 0.189400
H101 H 0.675400 0.302600 0.247400
H102 H 0.643800 0.440400 0.266600
H103 H 0.564400 1.197600 0.726600
H104 H 0.602700 1.300900 0.773100
H105 H 0.564700 1.275600 0.817700
H106 H 0.526200 0.963700 0.952000
H107 H 0.464100 0.868600 0.872700
H108 H 0.510800 0.393800 0.869800
H109 H 0.572900 0.490200 0.948000
H110 H 0.700200 0.746200 1.039500
H111 H 0.708800 0.884700 1.112200
H112 H 0.826800 0.208500 0.023200
H113 H 0.601500 0.642900 1.112500
H114 H 0.786500 0.066500 0.105700
H115 H 0.623200 0.570800 1.040300
H116 H 0.589000 0.901000 1.044500
H117 H 0.739300 0.518100 0.163700
H118 H 0.655300 1.051800 1.046000
H119 H 0.779700 0.659400 0.079700
H120 H 0.720300 0.840600 0.920300
H121 H 0.760700 0.981900 0.836300
H122 H 0.844700 0.448200 -0.046000
H123 H 0.713500 1.433500 0.894300
H124 H 0.673200 1.291500 0.976800
H125 H 0.911000 0.599000 -0.044500
H126 H 0.143800 0.940400 0.266600
H127 H 0.876800 0.929200 -0.040300
H128 H 0.898500 0.857100 -0.112500
H129 H 0.175400 0.802600 0.247400
H130 H 0.131700 0.813300 0.189400
H131 H 0.791200 0.615300 -0.112200
H132 H 0.799800 0.753800 -0.039500
H133 H 0.064400 0.302400 0.226600
H134 H 0.102700 0.199100 0.273100
H135 H 0.064700 0.224400 0.317700
H136 H 0.026200 0.536300 0.452000
H137 H -0.035900 0.631400 0.372700
H138 H 0.927100 1.009800 0.052000
H139 H 0.010800 1.106200 0.369800
H140 H 0.989200 1.106200 0.130200
H141 H 0.072900 1.009800 0.448000
H142 H 0.200200 0.753800 0.539500
H143 H 1.035900 0.631400 0.127300
H144 H 0.208800 0.615300 0.612200
H145 H 0.973800 0.536300 0.048000
H146 H 0.101500 0.857100 0.612500
H147 H 0.935300 0.224400 0.182300
H148 H 0.897300 0.199100 0.226900
H149 H 0.935600 0.302400 0.273400
H150 H 0.123200 0.929200 0.540300
H151 H 0.868300 0.813300 0.310600
H152 H 0.824600 0.802600 0.252600
H153 H 0.856200 0.940400 0.233400
H154 H 0.089000 0.599000 0.544500
H155 H 0.155300 0.448200 0.546000
H156 H 0.220300 0.659400 0.420300
H157 H 0.260700 0.518100 0.336300
H158 H 0.213500 0.066500 0.394300
H159 H 0.173200 0.208500 0.476800
H160 H 0.824600 0.197400 0.752600
C161 C 0.853120 0.174600 0.753220
C162 C 0.190770 0.271000 0.448970
C163 C 0.918760 0.723300 0.718890
C164 C 0.214700 0.185420 0.399740
C165 C 0.976610 0.349390 0.565030
C166 C 0.240320 0.280930 0.359110
C167 C 0.243180 0.457040 0.364880
C168 C 1.013980 0.293500 0.612320
C169 C 0.218900 0.540500 0.415060
C170 C 1.017300 0.123600 0.636020
C171 C 0.192470 0.449110 0.457620
C172 C 0.164610 0.537350 0.510380
C173 C 0.985840 0.008500 0.614100
C174 C 0.124880 0.611580 0.451140
C175 C 0.096610 0.692840 0.509350
C176 C 0.309230 -0.229000 0.051030
C177 C 0.118950 0.826490 0.572150
C178 C 0.853120 0.825400 0.253220
C179 C 0.918760 0.276700 0.218890
C180 C 0.159780 0.767630 0.621640
C181 C 0.187250 0.671830 0.572010
C182 C 0.976610 0.650610 0.065030
C183 C 1.013980 0.706500 0.112320
C184 C 0.103010 0.454210 0.408210
C185 C 0.113650 0.552710 0.266850
C186 C 0.136800 0.742470 0.389630
C187 C 0.056560 0.761580 0.457270
C188 C 0.051270 0.933100 0.432790
C189 C 1.017300 0.876400 0.136020
C190 C 0.014160 0.991500 0.385900
C191 C 0.985840 0.991500 0.114100
C192 C -0.017300 0.876400 0.363980
C193 C -0.013980 0.706500 0.387680
C194 C 0.948730 0.933100 0.067210
C195 C 0.023390 0.650610 0.434970
C196 C 0.943440 0.761580 0.042730
C197 C 0.081240 0.276700 0.281110
C198 C 0.863200 0.742470 0.110370
C199 C 0.886350 0.552710 0.233150
C200 C 0.896990 0.454210 0.091790
C201 C 0.146880 0.825400 0.246780
C202 C 0.812750 0.671830 -0.072010
C203 C 0.840220 0.767630 -0.121640
C204 C 0.881050 0.826490 -0.072150
C205 C 0.948730 0.066900 0.567210
C206 C 0.943440 0.238420 0.542730
C207 C 0.863200 0.257530 0.610370
C208 C 0.886350 0.447290 0.733150
C209 C 0.896990 0.545790 0.591790
C210 C 0.285300 -0.314580 0.100260
C211 C 0.259680 -0.219070 0.140890
C212 C 0.812750 0.328170 0.427990
C213 C 0.690770 1.229000 0.948970
C214 C 0.903390 0.692840 -0.009350
C215 C 0.714700 1.314580 0.899740
C216 C 0.875120 0.611580 0.048860
C217 C 0.740320 1.219070 0.859110
C218 C 0.743180 1.042960 0.864880
C219 C 0.835390 0.537350 -0.010380
C220 C 0.718900 0.959500 0.915060
C221 C 0.807530 0.449110 0.042380
C222 C 0.692470 1.050890 0.957620
C223 C 0.664610 0.962650 1.010380
C224 C 0.781100 0.540500 0.084940
C225 C 0.624880 0.888420 0.951140
C226 C 0.596610 0.807160 1.009350
C227 C 0.756820 0.457040 0.135120
C228 C 0.618950 0.673510 1.072150
C229 C 0.759680 0.280930 0.140890
C230 C 0.785300 0.185420 0.100260
C231 C 0.659780 0.732370 1.121640
C232 C 0.687250 0.828170 1.072010
C233 C 0.809230 0.271000 0.051030
C234 C 0.840220 0.232370 0.378360
C235 C 0.603010 1.045790 0.908210
C236 C 0.613650 0.947290 0.766850
C237 C 0.636800 0.757530 0.889630
C238 C 0.556560 0.738420 0.957270
C239 C 0.551270 0.566900 0.932790
C240 C 0.256820 -0.042960 0.135120
C241 C 0.514160 0.508500 0.885900
C242 C 0.281100 0.040500 0.084940
C243 C 0.482700 0.623600 0.863980
C244 C 0.486020 0.793500 0.887680
C245 C 0.881050 0.173510 0.427850
C246 C 0.523390 0.849390 0.934970
C247 C 0.307530 -0.050890 0.042380
C248 C 0.581240 1.223300 0.781110
C249 C 0.903390 0.307160 0.490650
C250 C 0.875120 0.388420 0.548860
C251 C 0.335390 0.037350 -0.010380
C252 C 0.646880 0.674600 0.746780
C253 C 0.646880 0.325400 0.246780
C254 C 0.581240 -0.223300 0.281110
C255 C 0.523390 0.150610 0.434970
C256 C 0.835390 0.462650 0.489620
C257 C 0.807530 0.550890 0.542380
C258 C 0.375120 0.111580 0.048860
C259 C 0.781100 0.459500 0.584940
C260 C 0.403390 0.192840 -0.009350
C261 C 0.756820 0.542960 0.635120
C262 C 0.759680 0.719070 0.640890
C263 C 0.381050 0.326490 -0.072150
C264 C 0.309230 1.229000 0.551030
C265 C 0.486020 0.206500 0.387680
C266 C 0.285300 1.314580 0.600260
C267 C 0.482700 0.376400 0.363980
C268 C 0.259680 1.219070 0.640890
C269 C 0.256820 1.042960 0.635120
C270 C 0.514160 0.491500 0.385900
C271 C 0.281100 0.959500 0.584940
C272 C 0.551270 0.433100 0.432790
C273 C 0.307530 1.050890 0.542380
C274 C 0.335390 0.962650 0.489620
C275 C 0.556560 0.261580 0.457270
C276 C 0.375120 0.888420 0.548860
C277 C 0.403390 0.807160 0.490650
C278 C 0.636800 0.242470 0.389630
C279 C 0.381050 0.673510 0.427850
C280 C 0.613650 0.052710 0.266850
C281 C 0.603010 -0.045790 0.408210
C282 C 0.340220 0.732370 0.378360
C283 C 0.312750 0.828170 0.427990
C284 C 0.687250 0.171830 0.572010
C285 C 0.659780 0.267630 0.621640
C286 C 0.396990 1.045790 0.591790
C287 C 0.386350 0.947290 0.733150
C288 C 0.363200 0.757530 0.610370
C289 C 0.443440 0.738420 0.542730
C290 C 0.448730 0.566900 0.567210
C291 C 0.618950 0.326490 0.572150
C292 C 0.485840 0.508500 0.614100
C293 C 0.596610 0.192840 0.509350
C294 C 0.517300 0.623600 0.636020
C295 C 0.513980 0.793500 0.612320
C296 C 0.624880 0.111580 0.451140
C297 C 0.476610 0.849390 0.565030
C298 C 0.664610 0.037350 0.510380
C299 C 0.418760 1.223300 0.718890
C300 C 0.692470 -0.050890 0.457620
C301 C 0.718900 0.040500 0.415060
C302 C 0.743180 -0.042960 0.364880
C303 C 0.353120 0.674600 0.753220
C304 C 0.740320 -0.219070 0.359110
C305 C 0.714700 -0.314580 0.399740
C306 C 0.690770 -0.229000 0.448970
C307 C 0.785300 0.814580 0.600260
C308 C 0.340220 0.267630 -0.121640
C309 C 0.809230 0.729000 0.551030
C310 C 0.312750 0.171830 -0.072010
C311 C 0.396990 -0.045790 0.091790
C312 C 0.386350 0.052710 0.233150
C313 C 0.146880 0.174600 0.746780
C314 C 0.363200 0.242470 0.110370
C315 C 0.190770 0.729000 0.948970
C316 C 0.443440 0.261580 0.042730
C317 C 0.214700 0.814580 0.899740
C318 C 0.448730 0.433100 0.067210
C319 C 0.240320 0.719070 0.859110
C320 C 0.243180 0.542960 0.864880
C321 C 0.081240 0.723300 0.781110
C322 C 0.218900 0.459500 0.915060
C323 C 0.485840 0.491500 0.114100
C324 C 0.192470 0.550890 0.957620
C325 C 0.164610 0.462650 1.010380
C326 C 0.023390 0.349390 0.934970
C327 C 0.124880 0.388420 0.951140
C328 C 0.096610 0.307160 1.009350
C329 C 0.517300 0.376400 0.136020
C330 C 0.118950 0.173510 1.072150
C331 C -0.013980 0.293500 0.887680
C332 C -0.017300 0.123600 0.863980
C333 C 0.159780 0.232370 1.121640
C334 C 0.187250 0.328170 1.072010
C335 C 0.353120 0.325400 0.253220
C336 C 0.418760 -0.223300 0.218890
C337 C 0.103010 0.545790 0.908210
C338 C 0.113650 0.447290 0.766850
C339 C 0.136800 0.257530 0.889630
C340 C 0.056560 0.238420 0.957270
C341 C 0.051270 0.066900 0.932790
C342 C 0.476610 0.150610 0.065030
C343 C 0.014160 0.008500 0.885900
C344 C 0.513980 0.206500 0.112320
N345 N 0.099370 0.436120 0.320800
N346 N 0.400630 -0.063880 0.179200
N347 N 0.368820 0.203000 0.196500
N348 N 0.599370 1.063880 0.820800
N349 N 0.631180 0.797000 0.803500
N350 N 0.868820 0.703000 0.196500
N351 N 0.599370 -0.063880 0.320800
N352 N 0.631180 0.203000 0.303500
N353 N 0.131180 0.297000 0.803500
N354 N 0.099370 0.563880 0.820800
N355 N 0.900630 0.436120 0.179200
N356 N 0.131180 0.703000 0.303500
N357 N 0.400630 1.063880 0.679200
N358 N 0.368820 0.797000 0.696500
N359 N 0.868820 0.297000 0.696500
N360 N 0.900630 0.563880 0.679200
O361 O 0.889640 0.475590 0.809090
O362 O 0.847560 0.121620 0.584100
O363 O 0.828720 0.194780 0.303790
O364 O 0.910070 0.656210 0.549730
O365 O 0.410070 -0.156210 0.049730
O366 O 0.089930 0.656210 0.950270
O367 O 0.389640 0.024410 0.309090
O368 O 0.347560 0.378380 0.084100
O369 O 0.171280 0.805220 0.696210
O370 O 0.110360 0.475590 0.690910
O371 O 0.328720 0.694780 0.303790
O372 O 0.347560 0.621620 0.584100
O373 O 0.389640 0.975590 0.809090
O374 O 0.410070 1.156210 0.549730
O375 O 0.152440 0.121620 0.915900
O376 O 0.328720 0.305220 -0.196210
O377 O 0.152440 0.878380 0.415900
O378 O 0.110360 0.524410 0.190910
O379 O 0.910070 0.343790 0.049730
O380 O 0.889640 0.524410 0.309090
O381 O 0.847560 0.878380 0.084100
O382 O 0.828720 0.805220 -0.196210
O383 O 0.171280 0.194780 1.196210
O384 O 0.671280 0.305220 0.696210
O385 O 0.652440 0.378380 0.415900
O386 O 0.610360 0.024410 0.190910
O387 O 0.671280 0.694780 1.196210
O388 O 0.652440 0.621620 0.915900
O389 O 0.610360 0.975590 0.690910
O390 O 0.589930 1.156210 0.950270
O391 O 0.089930 0.343790 0.450270
O392 O 0.589930 -0.156210 0.450270
F393 F 0.264120 0.196920 0.311250
F394 F -0.053650 0.933050 0.317350
F395 F 0.764120 1.303080 0.811250
F396 F 0.446350 0.566950 0.817350
F397 F 1.053650 0.933050 0.182650
F398 F 0.446350 0.433050 0.317350
F399 F 0.735880 0.196920 0.188750
F400 F 0.235880 1.303080 0.688750
F401 F 0.735880 0.803080 0.688750
F402 F 0.264120 0.803080 0.811250
F403 F -0.053650 0.066950 0.817350
F404 F 1.053650 0.066950 0.682650
F405 F 0.553650 0.566950 0.682650
F406 F 0.553650 0.433050 0.182650
F407 F 0.764120 -0.303080 0.311250
F408 F 0.235880 -0.303080 0.188750

#END
