
#######################################################################
#
#                 Cambridge Crystallographic Data Centre
#                                CCDC 
#
#######################################################################
#
# If this CIF has been generated from an entry in the Cambridge 
# Structural Database, then it will include bibliographic, chemical, 
# crystal, experimental, refinement or atomic coordinate data resulting 
# from the CCDC's data processing and validation procedures.
#
#######################################################################

data_ACUNAO
_symmetry_cell_setting           monoclinic
_symmetry_space_group_name_H-M   'P 21/n'
_symmetry_Int_Tables_number      14
_space_group_name_Hall           '-P 2yn'
loop_
_symmetry_equiv_pos_site_id
_symmetry_equiv_pos_as_xyz
1 x,y,z
2 1/2-x,1/2+y,1/2-z
3 -x,-y,-z
4 1/2+x,1/2-y,1/2+z
_cell_length_a                   8.814(5)
_cell_length_b                   9.514(6)
_cell_length_c                   17.606(11)
_cell_angle_alpha                90
_cell_angle_beta                 99.85(3)
_cell_angle_gamma                90
_cell_volume                     1454.61
loop_
_atom_site_label
_atom_site_type_symbol
_atom_site_fract_x
_atom_site_fract_y
_atom_site_fract_z
O1 O 0.6005(2) 0.2931(2) 0.60783(12)
O2 O 0.3347(2) -0.1330(2) 0.64422(12)
O3 O 0.7061(3) 0.4247(2) 0.73922(14)
O4 O 0.5385(4) 0.4288(3) 0.81286(19)
O5 O 0.2549(4) 0.0014(3) 0.84467(17)
O6 O 0.3355(3) -0.1826(3) 0.79489(14)
N1 N 0.5966(4) 0.3745(3) 0.76280(17)
N2 N 0.3199(3) -0.0550(3) 0.79832(16)
C1 C 0.5333(4) 0.2061(3) 0.65328(18)
C2 C 0.5283(4) 0.2441(3) 0.72960(17)
C3 C 0.4551(4) 0.1596(3) 0.77420(17)
C4 C 0.3926(3) 0.0338(3) 0.74661(17)
C5 C 0.4018(3) -0.0096(3) 0.67231(17)
C6 C 0.4678(4) 0.0793(3) 0.62609(18)
C7 C 0.4160(4) -0.2061(3) 0.59512(19)
C8 C 0.5467(5) -0.2787(3) 0.6290(2)
C9 C 0.6324(4) -0.3512(3) 0.5836(2)
C10 C 0.5849(5) -0.3512(3) 0.5041(2)
C11 C 0.5503(4) 0.2806(3) 0.52712(19)
C12 C 0.3618(4) -0.2053(2) 0.51553(17)
C13 C 0.2179(4) -0.1277(4) 0.4790(2)
C14 C 0.0745(8) -0.2100(7) 0.4587(4)
C15 C 0.0241(10) -0.2957(10) 0.4942(4)
H1 H 0.4479 0.1886 0.8251
H2 H 0.4680 0.0537 0.5739
H3 H 0.6428 -0.3990 0.4713
H4 H 0.7234 -0.3994 0.6061
H5 H 0.5756 -0.2782 0.6835
H6 H 0.2412 -0.0823 0.4343
H7 H 0.1973 -0.0589 0.5150
H8 H 0.0861 -0.2576 0.4126
H9 H -0.0067 -0.1434 0.4478
H10 H -0.0714 -0.3345 0.4700
H11 H 0.0117 -0.2530 0.5415
H12 H 0.0989 -0.3683 0.5039
O1B O 0.3995(2) -0.2931(2) 0.39217(12)
O2B O 0.6653(2) 0.1330(2) 0.35578(12)
O3B O 0.2939(3) -0.4247(2) 0.26078(14)
O4B O 0.4615(4) -0.4288(3) 0.18714(19)
O5B O 0.7451(4) -0.0014(3) 0.15533(17)
O6B O 0.6645(3) 0.1826(3) 0.20511(14)
N1B N 0.4034(4) -0.3745(3) 0.23720(17)
N2B N 0.6801(3) 0.0550(3) 0.20168(16)
C1B C 0.4667(4) -0.2061(3) 0.34672(18)
C2B C 0.4717(4) -0.2441(3) 0.27040(17)
C3B C 0.5449(4) -0.1596(3) 0.22580(17)
C4B C 0.6074(3) -0.0338(3) 0.25339(17)
C5B C 0.5982(3) 0.0096(3) 0.32769(17)
C6B C 0.5322(4) -0.0793(3) 0.37391(18)
C7B C 0.5840(4) 0.2061(3) 0.40488(19)
C8B C 0.4533(5) 0.2787(3) 0.3710(2)
C9B C 0.3676(4) 0.3512(3) 0.4164(2)
C10B C 0.4151(5) 0.3512(3) 0.4959(2)
C11B C 0.4497(4) -0.2806(3) 0.47288(19)
C12B C 0.6382(4) 0.2053(2) 0.48447(17)
C13B C 0.7821(4) 0.1277(4) 0.5210(2)
C14B C 0.9255(8) 0.2100(7) 0.5413(4)
C15B C 0.9759(10) 0.2957(10) 0.5058(4)
H1B H 0.5521 -0.1886 0.1749
H2B H 0.5320 -0.0537 0.4261
H3B H 0.3572 0.3990 0.5287
H4B H 0.2766 0.3994 0.3939
H5B H 0.4244 0.2782 0.3165
H6B H 0.7588 0.0823 0.5657
H7B H 0.8027 0.0589 0.4850
H8B H 0.9139 0.2576 0.5874
H9B H 1.0067 0.1434 0.5522
H10B H 1.0714 0.3345 0.5300
H11B H 0.9883 0.2530 0.4585
H12B H 0.9011 0.3683 0.4961
O1 O 0.6005(2) 1.2931(2) 0.60783(12)
O2 O 0.3347(2) 0.8670(2) 0.64422(12)
O3 O 0.7061(3) 1.4247(2) 0.73922(14)
O4 O 0.5385(4) 1.4288(3) 0.81286(19)
O5 O 0.2549(4) 1.0014(3) 0.84467(17)
O6 O 0.3355(3) 0.8174(3) 0.79489(14)
N1 N 0.5966(4) 1.3745(3) 0.76280(17)
N2 N 0.3199(3) 0.9450(3) 0.79832(16)
C1 C 0.5333(4) 1.2061(3) 0.65328(18)
C2 C 0.5283(4) 1.2441(3) 0.72960(17)
C3 C 0.4551(4) 1.1596(3) 0.77420(17)
C4 C 0.3926(3) 1.0338(3) 0.74661(17)
C5 C 0.4018(3) 0.9904(3) 0.67231(17)
C6 C 0.4678(4) 1.0793(3) 0.62609(18)
C7 C 0.4160(4) 0.7939(3) 0.59512(19)
C8 C 0.5467(5) 0.7213(3) 0.6290(2)
C9 C 0.6324(4) 0.6488(3) 0.5836(2)
C10 C 0.5849(5) 0.6488(3) 0.5041(2)
C11 C 0.5503(4) 1.2806(3) 0.52712(19)
C12 C 0.3618(4) 0.7947(2) 0.51553(17)
C13 C 0.2179(4) 0.8723(4) 0.4790(2)
C14 C 0.0745(8) 0.7900(7) 0.4587(4)
C15 C 0.0241(10) 0.7043(10) 0.4942(4)
H1 H 0.4479 1.1886 0.8251
H2 H 0.4680 1.0537 0.5739
H3 H 0.6428 0.6010 0.4713
H4 H 0.7234 0.6006 0.6061
H5 H 0.5756 0.7218 0.6835
H6 H 0.2412 0.9177 0.4343
H7 H 0.1973 0.9411 0.5150
H8 H 0.0861 0.7424 0.4126
H9 H -0.0067 0.8566 0.4478
H10 H -0.0714 0.6655 0.4700
H11 H 0.0117 0.7470 0.5415
H12 H 0.0989 0.6317 0.5039
O1B O 0.3995(2) 0.7069(2) 0.39217(12)
O2B O 0.6653(2) 1.1330(2) 0.35578(12)
O3B O 0.2939(3) 0.5753(2) 0.26078(14)
O4B O 0.4615(4) 0.5712(3) 0.18714(19)
O5B O 0.7451(4) 0.9986(3) 0.15533(17)
O6B O 0.6645(3) 1.1826(3) 0.20511(14)
N1B N 0.4034(4) 0.6255(3) 0.23720(17)
N2B N 0.6801(3) 1.0550(3) 0.20168(16)
C1B C 0.4667(4) 0.7939(3) 0.34672(18)
C2B C 0.4717(4) 0.7559(3) 0.27040(17)
C3B C 0.5449(4) 0.8404(3) 0.22580(17)
C4B C 0.6074(3) 0.9662(3) 0.25339(17)
C5B C 0.5982(3) 1.0096(3) 0.32769(17)
C6B C 0.5322(4) 0.9207(3) 0.37391(18)
C7B C 0.5840(4) 1.2061(3) 0.40488(19)
C8B C 0.4533(5) 1.2787(3) 0.3710(2)
C9B C 0.3676(4) 1.3512(3) 0.4164(2)
C10B C 0.4151(5) 1.3512(3) 0.4959(2)
C11B C 0.4497(4) 0.7194(3) 0.47288(19)
C12B C 0.6382(4) 1.2053(2) 0.48447(17)
C13B C 0.7821(4) 1.1277(4) 0.5210(2)
C14B C 0.9255(8) 1.2100(7) 0.5413(4)
C15B C 0.9759(10) 1.2957(10) 0.5058(4)
H1B H 0.5521 0.8114 0.1749
H2B H 0.5320 0.9463 0.4261
H3B H 0.3572 1.3990 0.5287
H4B H 0.2766 1.3994 0.3939
H5B H 0.4244 1.2782 0.3165
H6B H 0.7588 1.0823 0.5657
H7B H 0.8027 1.0589 0.4850
H8B H 0.9139 1.2576 0.5874
H9B H 1.0067 1.1434 0.5522
H10B H 1.0714 1.3345 0.5300
H11B H 0.9883 1.2530 0.4585
H12B H 0.9011 1.3683 0.4961
O1 O -0.1005(2) 0.7931(2) -0.10783(12)
O2 O 0.1653(2) 0.3670(2) -0.14422(12)
O3 O -0.2061(3) 0.9247(2) -0.23922(14)
O4 O -0.0385(4) 0.9288(3) -0.31286(19)
O5 O 0.2451(4) 0.5014(3) -0.34467(17)
O6 O 0.1645(3) 0.3174(3) -0.29489(14)
N1 N -0.0966(4) 0.8745(3) -0.26280(17)
N2 N 0.1801(3) 0.4450(3) -0.29832(16)
C1 C -0.0333(4) 0.7061(3) -0.15328(18)
C2 C -0.0283(4) 0.7441(3) -0.22960(17)
C3 C 0.0449(4) 0.6596(3) -0.27420(17)
C4 C 0.1074(3) 0.5338(3) -0.24661(17)
C5 C 0.0982(3) 0.4904(3) -0.17231(17)
C6 C 0.0322(4) 0.5793(3) -0.12609(18)
C7 C 0.0840(4) 0.2939(3) -0.09512(19)
C8 C -0.0467(5) 0.2213(3) -0.1290(2)
C9 C -0.1324(4) 0.1488(3) -0.0836(2)
C10 C -0.0849(5) 0.1488(3) -0.0041(2)
C11 C -0.0503(4) 0.7806(3) -0.02712(19)
C12 C 0.1382(4) 0.2947(2) -0.01553(17)
C13 C 0.2821(4) 0.3723(4) 0.0210(2)
C14 C 0.4255(8) 0.2900(7) 0.0413(4)
C15 C 0.4759(10) 0.2043(10) 0.0058(4)
H1 H 0.0521 0.6886 -0.3251
H2 H 0.0320 0.5537 -0.0739
H3 H -0.1428 0.1010 0.0287
H4 H -0.2234 0.1006 -0.1061
H5 H -0.0756 0.2218 -0.1835
H6 H 0.2588 0.4177 0.0657
H7 H 0.3027 0.4411 -0.0150
H8 H 0.4139 0.2424 0.0874
H9 H 0.5067 0.3566 0.0522
H10 H 0.5714 0.1655 0.0300
H11 H 0.4883 0.2470 -0.0415
H12 H 0.4011 0.1317 -0.0039
O1B O 0.1005(2) 0.2069(2) 0.10783(12)
O2B O -0.1653(2) 0.6330(2) 0.14422(12)
O3B O 0.2061(3) 0.0753(2) 0.23922(14)
O4B O 0.0385(4) 0.0712(3) 0.31286(19)
O5B O -0.2451(4) 0.4986(3) 0.34467(17)
O6B O -0.1645(3) 0.6826(3) 0.29489(14)
N1B N 0.0966(4) 0.1255(3) 0.26280(17)
N2B N -0.1801(3) 0.5550(3) 0.29832(16)
C1B C 0.0333(4) 0.2939(3) 0.15328(18)
C2B C 0.0283(4) 0.2559(3) 0.22960(17)
C3B C -0.0449(4) 0.3404(3) 0.27420(17)
C4B C -0.1074(3) 0.4662(3) 0.24661(17)
C5B C -0.0982(3) 0.5096(3) 0.17231(17)
C6B C -0.0322(4) 0.4207(3) 0.12609(18)
C7B C -0.0840(4) 0.7061(3) 0.09512(19)
C8B C 0.0467(5) 0.7787(3) 0.1290(2)
C9B C 0.1324(4) 0.8512(3) 0.0836(2)
C10B C 0.0849(5) 0.8512(3) 0.0041(2)
C11B C 0.0503(4) 0.2194(3) 0.02712(19)
C12B C -0.1382(4) 0.7053(2) 0.01553(17)
C13B C -0.2821(4) 0.6277(4) -0.0210(2)
C14B C -0.4255(8) 0.7100(7) -0.0413(4)
C15B C -0.4759(10) 0.7957(10) -0.0058(4)
H1B H -0.0521 0.3114 0.3251
H2B H -0.0320 0.4463 0.0739
H3B H 0.1428 0.8990 -0.0287
H4B H 0.2234 0.8994 0.1061
H5B H 0.0756 0.7782 0.1835
H6B H -0.2588 0.5823 -0.0657
H7B H -0.3027 0.5589 0.0150
H8B H -0.4139 0.7576 -0.0874
H9B H -0.5067 0.6434 -0.0522
H10B H -0.5714 0.8345 -0.0300
H11B H -0.4883 0.7530 0.0415
H12B H -0.4011 0.8683 0.0039
O1 O -0.1005(2) 0.7931(2) 0.89217(12)
O2 O 0.1653(2) 0.3670(2) 0.85578(12)
O3 O -0.2061(3) 0.9247(2) 0.76078(14)
O4 O -0.0385(4) 0.9288(3) 0.68714(19)
O5 O 0.2451(4) 0.5014(3) 0.65533(17)
O6 O 0.1645(3) 0.3174(3) 0.70511(14)
N1 N -0.0966(4) 0.8745(3) 0.73720(17)
N2 N 0.1801(3) 0.4450(3) 0.70168(16)
C1 C -0.0333(4) 0.7061(3) 0.84672(18)
C2 C -0.0283(4) 0.7441(3) 0.77040(17)
C3 C 0.0449(4) 0.6596(3) 0.72580(17)
C4 C 0.1074(3) 0.5338(3) 0.75339(17)
C5 C 0.0982(3) 0.4904(3) 0.82769(17)
C6 C 0.0322(4) 0.5793(3) 0.87391(18)
C7 C 0.0840(4) 0.2939(3) 0.90488(19)
C8 C -0.0467(5) 0.2213(3) 0.8710(2)
C9 C -0.1324(4) 0.1488(3) 0.9164(2)
C10 C -0.0849(5) 0.1488(3) 0.9959(2)
C11 C -0.0503(4) 0.7806(3) 0.97288(19)
C12 C 0.1382(4) 0.2947(2) 0.98447(17)
C13 C 0.2821(4) 0.3723(4) 1.0210(2)
C14 C 0.4255(8) 0.2900(7) 1.0413(4)
C15 C 0.4759(10) 0.2043(10) 1.0058(4)
H1 H 0.0521 0.6886 0.6749
H2 H 0.0320 0.5537 0.9261
H3 H -0.1428 0.1010 1.0287
H4 H -0.2234 0.1006 0.8939
H5 H -0.0756 0.2218 0.8165
H6 H 0.2588 0.4177 1.0657
H7 H 0.3027 0.4411 0.9850
H8 H 0.4139 0.2424 1.0874
H9 H 0.5067 0.3566 1.0522
H10 H 0.5714 0.1655 1.0300
H11 H 0.4883 0.2470 0.9585
H12 H 0.4011 0.1317 0.9961
O1B O 0.1005(2) 0.2069(2) 1.10783(12)
O2B O -0.1653(2) 0.6330(2) 1.14422(12)
O3B O 0.2061(3) 0.0753(2) 1.23922(14)
O4B O 0.0385(4) 0.0712(3) 1.31286(19)
O5B O -0.2451(4) 0.4986(3) 1.34467(17)
O6B O -0.1645(3) 0.6826(3) 1.29489(14)
N1B N 0.0966(4) 0.1255(3) 1.26280(17)
N2B N -0.1801(3) 0.5550(3) 1.29832(16)
C1B C 0.0333(4) 0.2939(3) 1.15328(18)
C2B C 0.0283(4) 0.2559(3) 1.22960(17)
C3B C -0.0449(4) 0.3404(3) 1.27420(17)
C4B C -0.1074(3) 0.4662(3) 1.24661(17)
C5B C -0.0982(3) 0.5096(3) 1.17231(17)
C6B C -0.0322(4) 0.4207(3) 1.12609(18)
C7B C -0.0840(4) 0.7061(3) 1.09512(19)
C8B C 0.0467(5) 0.7787(3) 1.1290(2)
C9B C 0.1324(4) 0.8512(3) 1.0836(2)
C10B C 0.0849(5) 0.8512(3) 1.0041(2)
C11B C 0.0503(4) 0.2194(3) 1.02712(19)
C12B C -0.1382(4) 0.7053(2) 1.01553(17)
C13B C -0.2821(4) 0.6277(4) 0.9790(2)
C14B C -0.4255(8) 0.7100(7) 0.9587(4)
C15B C -0.4759(10) 0.7957(10) 0.9942(4)
H1B H -0.0521 0.3114 1.3251
H2B H -0.0320 0.4463 1.0739
H3B H 0.1428 0.8990 0.9713
H4B H 0.2234 0.8994 1.1061
H5B H 0.0756 0.7782 1.1835
H6B H -0.2588 0.5823 0.9343
H7B H -0.3027 0.5589 1.0150
H8B H -0.4139 0.7576 0.9126
H9B H -0.5067 0.6434 0.9478
H10B H -0.5714 0.8345 0.9700
H11B H -0.4883 0.7530 1.0415
H12B H -0.4011 0.8683 1.0039
O1 O 0.8995(2) 0.7931(2) -0.10783(12)
O2 O 1.1653(2) 0.3670(2) -0.14422(12)
O3 O 0.7939(3) 0.9247(2) -0.23922(14)
O4 O 0.9615(4) 0.9288(3) -0.31286(19)
O5 O 1.2451(4) 0.5014(3) -0.34467(17)
O6 O 1.1645(3) 0.3174(3) -0.29489(14)
N1 N 0.9034(4) 0.8745(3) -0.26280(17)
N2 N 1.1801(3) 0.4450(3) -0.29832(16)
C1 C 0.9667(4) 0.7061(3) -0.15328(18)
C2 C 0.9717(4) 0.7441(3) -0.22960(17)
C3 C 1.0449(4) 0.6596(3) -0.27420(17)
C4 C 1.1074(3) 0.5338(3) -0.24661(17)
C5 C 1.0982(3) 0.4904(3) -0.17231(17)
C6 C 1.0322(4) 0.5793(3) -0.12609(18)
C7 C 1.0840(4) 0.2939(3) -0.09512(19)
C8 C 0.9533(5) 0.2213(3) -0.1290(2)
C9 C 0.8676(4) 0.1488(3) -0.0836(2)
C10 C 0.9151(5) 0.1488(3) -0.0041(2)
C11 C 0.9497(4) 0.7806(3) -0.02712(19)
C12 C 1.1382(4) 0.2947(2) -0.01553(17)
C13 C 1.2821(4) 0.3723(4) 0.0210(2)
C14 C 1.4255(8) 0.2900(7) 0.0413(4)
C15 C 1.4759(10) 0.2043(10) 0.0058(4)
H1 H 1.0521 0.6886 -0.3251
H2 H 1.0320 0.5537 -0.0739
H3 H 0.8572 0.1010 0.0287
H4 H 0.7766 0.1006 -0.1061
H5 H 0.9244 0.2218 -0.1835
H6 H 1.2588 0.4177 0.0657
H7 H 1.3027 0.4411 -0.0150
H8 H 1.4139 0.2424 0.0874
H9 H 1.5067 0.3566 0.0522
H10 H 1.5714 0.1655 0.0300
H11 H 1.4883 0.2470 -0.0415
H12 H 1.4011 0.1317 -0.0039
O1B O 1.1005(2) 0.2069(2) 0.10783(12)
O2B O 0.8347(2) 0.6330(2) 0.14422(12)
O3B O 1.2061(3) 0.0753(2) 0.23922(14)
O4B O 1.0385(4) 0.0712(3) 0.31286(19)
O5B O 0.7549(4) 0.4986(3) 0.34467(17)
O6B O 0.8355(3) 0.6826(3) 0.29489(14)
N1B N 1.0966(4) 0.1255(3) 0.26280(17)
N2B N 0.8199(3) 0.5550(3) 0.29832(16)
C1B C 1.0333(4) 0.2939(3) 0.15328(18)
C2B C 1.0283(4) 0.2559(3) 0.22960(17)
C3B C 0.9551(4) 0.3404(3) 0.27420(17)
C4B C 0.8926(3) 0.4662(3) 0.24661(17)
C5B C 0.9018(3) 0.5096(3) 0.17231(17)
C6B C 0.9678(4) 0.4207(3) 0.12609(18)
C7B C 0.9160(4) 0.7061(3) 0.09512(19)
C8B C 1.0467(5) 0.7787(3) 0.1290(2)
C9B C 1.1324(4) 0.8512(3) 0.0836(2)
C10B C 1.0849(5) 0.8512(3) 0.0041(2)
C11B C 1.0503(4) 0.2194(3) 0.02712(19)
C12B C 0.8618(4) 0.7053(2) 0.01553(17)
C13B C 0.7179(4) 0.6277(4) -0.0210(2)
C14B C 0.5745(8) 0.7100(7) -0.0413(4)
C15B C 0.5241(10) 0.7957(10) -0.0058(4)
H1B H 0.9479 0.3114 0.3251
H2B H 0.9680 0.4463 0.0739
H3B H 1.1428 0.8990 -0.0287
H4B H 1.2234 0.8994 0.1061
H5B H 1.0756 0.7782 0.1835
H6B H 0.7412 0.5823 -0.0657
H7B H 0.6973 0.5589 0.0150
H8B H 0.5861 0.7576 -0.0874
H9B H 0.4933 0.6434 -0.0522
H10B H 0.4286 0.8345 -0.0300
H11B H 0.5117 0.7530 0.0415
H12B H 0.5989 0.8683 0.0039
O1 O 0.8995(2) 0.7931(2) 0.89217(12)
O2 O 1.1653(2) 0.3670(2) 0.85578(12)
O3 O 0.7939(3) 0.9247(2) 0.76078(14)
O4 O 0.9615(4) 0.9288(3) 0.68714(19)
O5 O 1.2451(4) 0.5014(3) 0.65533(17)
O6 O 1.1645(3) 0.3174(3) 0.70511(14)
N1 N 0.9034(4) 0.8745(3) 0.73720(17)
N2 N 1.1801(3) 0.4450(3) 0.70168(16)
C1 C 0.9667(4) 0.7061(3) 0.84672(18)
C2 C 0.9717(4) 0.7441(3) 0.77040(17)
C3 C 1.0449(4) 0.6596(3) 0.72580(17)
C4 C 1.1074(3) 0.5338(3) 0.75339(17)
C5 C 1.0982(3) 0.4904(3) 0.82769(17)
C6 C 1.0322(4) 0.5793(3) 0.87391(18)
C7 C 1.0840(4) 0.2939(3) 0.90488(19)
C8 C 0.9533(5) 0.2213(3) 0.8710(2)
C9 C 0.8676(4) 0.1488(3) 0.9164(2)
C10 C 0.9151(5) 0.1488(3) 0.9959(2)
C11 C 0.9497(4) 0.7806(3) 0.97288(19)
C12 C 1.1382(4) 0.2947(2) 0.98447(17)
C13 C 1.2821(4) 0.3723(4) 1.0210(2)
C14 C 1.4255(8) 0.2900(7) 1.0413(4)
C15 C 1.4759(10) 0.2043(10) 1.0058(4)
H1 H 1.0521 0.6886 0.6749
H2 H 1.0320 0.5537 0.9261
H3 H 0.8572 0.1010 1.0287
H4 H 0.7766 0.1006 0.8939
H5 H 0.9244 0.2218 0.8165
H6 H 1.2588 0.4177 1.0657
H7 H 1.3027 0.4411 0.9850
H8 H 1.4139 0.2424 1.0874
H9 H 1.5067 0.3566 1.0522
H10 H 1.5714 0.1655 1.0300
H11 H 1.4883 0.2470 0.9585
H12 H 1.4011 0.1317 0.9961
O1B O 1.1005(2) 0.2069(2) 1.10783(12)
O2B O 0.8347(2) 0.6330(2) 1.14422(12)
O3B O 1.2061(3) 0.0753(2) 1.23922(14)
O4B O 1.0385(4) 0.0712(3) 1.31286(19)
O5B O 0.7549(4) 0.4986(3) 1.34467(17)
O6B O 0.8355(3) 0.6826(3) 1.29489(14)
N1B N 1.0966(4) 0.1255(3) 1.26280(17)
N2B N 0.8199(3) 0.5550(3) 1.29832(16)
C1B C 1.0333(4) 0.2939(3) 1.15328(18)
C2B C 1.0283(4) 0.2559(3) 1.22960(17)
C3B C 0.9551(4) 0.3404(3) 1.27420(17)
C4B C 0.8926(3) 0.4662(3) 1.24661(17)
C5B C 0.9018(3) 0.5096(3) 1.17231(17)
C6B C 0.9678(4) 0.4207(3) 1.12609(18)
C7B C 0.9160(4) 0.7061(3) 1.09512(19)
C8B C 1.0467(5) 0.7787(3) 1.1290(2)
C9B C 1.1324(4) 0.8512(3) 1.0836(2)
C10B C 1.0849(5) 0.8512(3) 1.0041(2)
C11B C 1.0503(4) 0.2194(3) 1.02712(19)
C12B C 0.8618(4) 0.7053(2) 1.01553(17)
C13B C 0.7179(4) 0.6277(4) 0.9790(2)
C14B C 0.5745(8) 0.7100(7) 0.9587(4)
C15B C 0.5241(10) 0.7957(10) 0.9942(4)
H1B H 0.9479 0.3114 1.3251
H2B H 0.9680 0.4463 1.0739
H3B H 1.1428 0.8990 0.9713
H4B H 1.2234 0.8994 1.1061
H5B H 1.0756 0.7782 1.1835
H6B H 0.7412 0.5823 0.9343
H7B H 0.6973 0.5589 1.0150
H8B H 0.5861 0.7576 0.9126
H9B H 0.4933 0.6434 0.9478
H10B H 0.4286 0.8345 0.9700
H11B H 0.5117 0.7530 1.0415
H12B H 0.5989 0.8683 1.0039

#END
