./ADAMDS10_from_xyz.cif_generated_by_CrystalShift
_symmetry_cell_setting triclinic
_symmetry_space_group_name_H-M 'P 1'
loop_
_symmetry_equiv_pos_site_id
_symmetry_equiv_pos_as_xyz
1 x,y,z
_cell_length_a 12.015000
_cell_length_b 11.556000
_cell_length_c 12.959000
_cell_angle_alpha 90.000000
_cell_angle_beta 90.420000
_cell_angle_gamma 90.000000
_cell_volume 1799.248443
loop_
_atom_site_label
_atom_site_type_symbol
_atom_site_fract_x
_atom_site_fract_y
_atom_site_fract_z
S1 S 0.399000 0.862000 0.437000
S2 S 0.355000 0.874000 0.285000
C3 C 0.532000 0.783000 0.444000
C4 C 0.568000 0.796000 0.559000
C5 C 0.621000 0.843000 0.379000
C6 C 0.524000 0.657000 0.417000
C7 C 0.681000 0.741000 0.576000
C8 C 0.734000 0.787000 0.394000
C9 C 0.636000 0.599000 0.433000
C10 C 0.766000 0.797000 0.507000
C11 C 0.724000 0.658000 0.368000
C12 C 0.673000 0.612000 0.549000
C13 C 0.233000 0.780000 0.267000
C14 C 0.143000 0.811000 0.345000
C15 C 0.264000 0.650000 0.279000
C16 C 0.192000 0.801000 0.157000
C17 C 0.041000 0.737000 0.325000
C18 C 0.162000 0.574000 0.259000
C19 C 0.088000 0.728000 0.138000
C20 C 0.070000 0.607000 0.335000
C21 C 0.119000 0.600000 0.148000
C22 C -0.003000 0.753000 0.213000
H23 H 0.509000 0.753000 0.607000
H24 H 0.572000 0.887000 0.580000
H25 H 0.627000 0.933000 0.401000
H26 H 0.598000 0.837000 0.299000
H27 H 0.463000 0.617000 0.466000
H28 H 0.499000 0.649000 0.337000
H29 H 0.707000 0.754000 0.656000
H30 H 0.795000 0.828000 0.346000
H31 H 0.629000 0.508000 0.412000
H32 H 0.773000 0.888000 0.527000
H33 H 0.845000 0.755000 0.520000
H34 H 0.803000 0.616000 0.381000
H35 H 0.700000 0.650000 0.288000
H36 H 0.753000 0.572000 0.561000
H37 H 0.612000 0.571000 0.598000
H38 H 0.174000 0.794000 0.422000
H39 H 0.122000 0.901000 0.338000
H40 H 0.329000 0.629000 0.225000
H41 H 0.294000 0.635000 0.357000
H42 H 0.171000 0.891000 0.148000
H43 H 0.256000 0.779000 0.103000
H44 H -0.021000 0.762000 0.380000
H45 H 0.184000 0.484000 0.267000
H46 H 0.059000 0.747000 0.061000
H47 H -0.004000 0.556000 0.320000
H48 H 0.099000 0.590000 0.413000
H49 H 0.182000 0.577000 0.094000
H50 H 0.045000 0.549000 0.135000
H51 H -0.029000 0.842000 0.204000
H52 H -0.073000 0.696000 0.199000
S53 S 0.601000 0.362000 0.063000
S54 S 0.645000 0.374000 0.215000
C55 C 0.468000 0.283000 0.056000
C56 C 0.432000 0.296000 -0.059000
C57 C 0.379000 0.343000 0.121000
C58 C 0.476000 0.157000 0.083000
C59 C 0.319000 0.241000 -0.076000
C60 C 0.266000 0.287000 0.106000
C61 C 0.364000 0.099000 0.067000
C62 C 0.234000 0.297000 -0.007000
C63 C 0.276000 0.158000 0.132000
C64 C 0.327000 0.112000 -0.049000
C65 C 0.767000 0.280000 0.233000
C66 C 0.857000 0.311000 0.155000
C67 C 0.736000 0.150000 0.221000
C68 C 0.808000 0.301000 0.343000
C69 C 0.959000 0.237000 0.175000
C70 C 0.838000 0.074000 0.241000
C71 C 0.912000 0.228000 0.362000
C72 C 0.930000 0.107000 0.165000
C73 C 0.881000 0.100000 0.352000
C74 C 1.003000 0.253000 0.287000
H75 H 0.491000 0.253000 -0.107000
H76 H 0.428000 0.387000 -0.080000
H77 H 0.373000 0.433000 0.099000
H78 H 0.402000 0.337000 0.201000
H79 H 0.537000 0.117000 0.034000
H80 H 0.501000 0.149000 0.163000
H81 H 0.293000 0.254000 -0.156000
H82 H 0.205000 0.328000 0.154000
H83 H 0.371000 0.008000 0.088000
H84 H 0.227000 0.388000 -0.027000
H85 H 0.155000 0.255000 -0.020000
H86 H 0.197000 0.116000 0.119000
H87 H 0.300000 0.150000 0.212000
H88 H 0.247000 0.072000 -0.061000
H89 H 0.388000 0.071000 -0.098000
H90 H 0.826000 0.294000 0.078000
H91 H 0.878000 0.401000 0.162000
H92 H 0.671000 0.129000 0.275000
H93 H 0.706000 0.135000 0.143000
H94 H 0.829000 0.391000 0.352000
H95 H 0.744000 0.279000 0.397000
H96 H 1.021000 0.262000 0.120000
H97 H 0.816000 -0.016000 0.233000
H98 H 0.941000 0.247000 0.439000
H99 H 1.004000 0.056000 0.180000
H100 H 0.901000 0.090000 0.087000
H101 H 0.818000 0.077000 0.406000
H102 H 0.955000 0.049000 0.365000
H103 H 1.029000 0.342000 0.296000
H104 H 1.073000 0.196000 0.301000
S105 S 0.601000 0.138000 0.563000
S106 S 0.645000 0.126000 0.715000
C107 C 0.468000 0.217000 0.556000
C108 C 0.432000 0.204000 0.441000
C109 C 0.379000 0.157000 0.621000
C110 C 0.476000 0.343000 0.583000
C111 C 0.319000 0.259000 0.424000
C112 C 0.266000 0.213000 0.606000
C113 C 0.364000 0.401000 0.567000
C114 C 0.234000 0.203000 0.493000
C115 C 0.276000 0.342000 0.632000
C116 C 0.327000 0.388000 0.451000
C117 C 0.767000 0.220000 0.733000
C118 C 0.857000 0.189000 0.655000
C119 C 0.736000 0.350000 0.721000
C120 C 0.808000 0.199000 0.843000
C121 C 0.959000 0.263000 0.675000
C122 C 0.838000 0.426000 0.741000
C123 C 0.912000 0.272000 0.862000
C124 C 0.930000 0.393000 0.665000
C125 C 0.881000 0.400000 0.852000
C126 C 1.003000 0.247000 0.787000
H127 H 0.491000 0.247000 0.393000
H128 H 0.428000 0.113000 0.420000
H129 H 0.373000 0.067000 0.599000
H130 H 0.402000 0.163000 0.701000
H131 H 0.537000 0.383000 0.534000
H132 H 0.501000 0.351000 0.663000
H133 H 0.293000 0.246000 0.344000
H134 H 0.205000 0.172000 0.654000
H135 H 0.371000 0.492000 0.588000
H136 H 0.227000 0.112000 0.473000
H137 H 0.155000 0.245000 0.480000
H138 H 0.197000 0.384000 0.619000
H139 H 0.300000 0.350000 0.712000
H140 H 0.247000 0.428000 0.439000
H141 H 0.388000 0.429000 0.402000
H142 H 0.826000 0.206000 0.578000
H143 H 0.878000 0.099000 0.662000
H144 H 0.671000 0.371000 0.775000
H145 H 0.706000 0.365000 0.643000
H146 H 0.829000 0.109000 0.852000
H147 H 0.744000 0.221000 0.897000
H148 H 1.021000 0.238000 0.620000
H149 H 0.816000 0.516000 0.733000
H150 H 0.941000 0.253000 0.939000
H151 H 1.004000 0.444000 0.680000
H152 H 0.901000 0.410000 0.587000
H153 H 0.818000 0.423000 0.906000
H154 H 0.955000 0.451000 0.865000
H155 H 1.029000 0.158000 0.796000
H156 H 1.073000 0.304000 0.801000
S157 S 0.399000 0.638000 0.937000
S158 S 0.355000 0.626000 0.785000
C159 C 0.532000 0.717000 0.944000
C160 C 0.568000 0.704000 1.059000
C161 C 0.621000 0.657000 0.879000
C162 C 0.524000 0.843000 0.917000
C163 C 0.681000 0.759000 1.076000
C164 C 0.734000 0.713000 0.894000
C165 C 0.636000 0.901000 0.933000
C166 C 0.766000 0.703000 1.007000
C167 C 0.724000 0.842000 0.868000
C168 C 0.673000 0.888000 1.049000
C169 C 0.233000 0.720000 0.767000
C170 C 0.143000 0.689000 0.845000
C171 C 0.264000 0.850000 0.779000
C172 C 0.192000 0.699000 0.657000
C173 C 0.041000 0.763000 0.825000
C174 C 0.162000 0.926000 0.759000
C175 C 0.088000 0.772000 0.638000
C176 C 0.070000 0.893000 0.835000
C177 C 0.119000 0.900000 0.648000
C178 C -0.003000 0.747000 0.713000
H179 H 0.509000 0.747000 1.107000
H180 H 0.572000 0.613000 1.080000
H181 H 0.627000 0.567000 0.901000
H182 H 0.598000 0.663000 0.799000
H183 H 0.463000 0.883000 0.966000
H184 H 0.499000 0.851000 0.837000
H185 H 0.707000 0.746000 1.156000
H186 H 0.795000 0.672000 0.846000
H187 H 0.629000 0.992000 0.912000
H188 H 0.773000 0.612000 1.027000
H189 H 0.845000 0.745000 1.020000
H190 H 0.803000 0.884000 0.881000
H191 H 0.700000 0.850000 0.788000
H192 H 0.753000 0.928000 1.061000
H193 H 0.612000 0.929000 1.098000
H194 H 0.174000 0.706000 0.922000
H195 H 0.122000 0.599000 0.838000
H196 H 0.329000 0.871000 0.725000
H197 H 0.294000 0.865000 0.857000
H198 H 0.171000 0.609000 0.648000
H199 H 0.256000 0.721000 0.603000
H200 H -0.021000 0.738000 0.880000
H201 H 0.184000 1.016000 0.767000
H202 H 0.059000 0.753000 0.561000
H203 H -0.004000 0.944000 0.820000
H204 H 0.099000 0.910000 0.913000
H205 H 0.182000 0.923000 0.594000
H206 H 0.045000 0.951000 0.635000
H207 H -0.029000 0.658000 0.704000
H208 H -0.073000 0.804000 0.699000

#END
