./ADEDAP_from_xyz.cif_generated_by_CrystalShift
_symmetry_cell_setting triclinic
_symmetry_space_group_name_H-M 'P 1'
loop_
_symmetry_equiv_pos_site_id
_symmetry_equiv_pos_as_xyz
1 x,y,z
_cell_length_a 15.998000
_cell_length_b 5.299300
_cell_length_c 12.336000
_cell_angle_alpha 90.000000
_cell_angle_beta 111.215000
_cell_angle_gamma 90.000000
_cell_volume 974.947451
loop_
_atom_site_label
_atom_site_type_symbol
_atom_site_fract_x
_atom_site_fract_y
_atom_site_fract_z
Cl1 Cl 0.055230 1.493040 -0.159800
O2 O 0.446270 0.207600 0.200200
O3 O 0.369220 0.290600 0.314150
C4 C 0.243590 0.971100 -0.026500
H5 H 0.291200 0.905000 -0.043800
C6 C 0.191310 1.156700 -0.096600
H7 H 0.203300 1.214300 -0.160600
C8 C 0.120960 1.256900 -0.071200
C9 C 0.103200 1.174100 0.023500
H10 H 0.056000 1.243200 0.040700
C11 C 0.155780 0.987800 0.093000
H12 H 0.143500 0.932400 0.157200
C13 C 0.227210 0.879700 0.069440
C14 C 0.278840 0.681700 0.146570
H15 H 0.262100 0.648200 0.209900
C16 C 0.346350 0.540200 0.141290
C17 C 0.395020 0.534500 0.057800
H18 H 0.427500 0.690500 0.061100
H19 H 0.353600 0.508200 -0.021200
C20 C 0.459290 0.312300 0.099160
H21 H 0.446600 0.186100 0.038300
H22 H 0.520800 0.368600 0.119200
C23 C 0.385420 0.341900 0.228600
Cl24 Cl 0.944770 0.993040 0.659800
O25 O 0.553730 -0.292400 0.299800
O26 O 0.630780 -0.209400 0.185850
C27 C 0.756410 0.471100 0.526500
H28 H 0.708800 0.405000 0.543800
C29 C 0.808690 0.656700 0.596600
H30 H 0.796700 0.714300 0.660600
C31 C 0.879040 0.756900 0.571200
C32 C 0.896800 0.674100 0.476500
H33 H 0.944000 0.743200 0.459300
C34 C 0.844220 0.487800 0.407000
H35 H 0.856500 0.432400 0.342800
C36 C 0.772790 0.379700 0.430560
C37 C 0.721160 0.181700 0.353430
H38 H 0.737900 0.148200 0.290100
C39 C 0.653650 0.040200 0.358710
C40 C 0.604980 0.034500 0.442200
H41 H 0.572500 0.190500 0.438900
H42 H 0.646400 0.008200 0.521200
C43 C 0.540710 -0.187700 0.400840
H44 H 0.553400 -0.313900 0.461700
H45 H 0.479200 -0.131400 0.380800
C46 C 0.614580 -0.158100 0.271400
Cl47 Cl 0.944770 -0.493040 1.159800
O48 O 0.553730 0.792400 0.799800
O49 O 0.630780 0.709400 0.685850
C50 C 0.756410 0.028900 1.026500
H51 H 0.708800 0.095000 1.043800
C52 C 0.808690 -0.156700 1.096600
H53 H 0.796700 -0.214300 1.160600
C54 C 0.879040 -0.256900 1.071200
C55 C 0.896800 -0.174100 0.976500
H56 H 0.944000 -0.243200 0.959300
C57 C 0.844220 0.012200 0.907000
H58 H 0.856500 0.067600 0.842800
C59 C 0.772790 0.120300 0.930560
C60 C 0.721160 0.318300 0.853430
H61 H 0.737900 0.351800 0.790100
C62 C 0.653650 0.459800 0.858710
C63 C 0.604980 0.465500 0.942200
H64 H 0.572500 0.309500 0.938900
H65 H 0.646400 0.491800 1.021200
C66 C 0.540710 0.687700 0.900840
H67 H 0.553400 0.813900 0.961700
H68 H 0.479200 0.631400 0.880800
C69 C 0.614580 0.658100 0.771400
Cl70 Cl 0.055230 0.006960 0.340200
O71 O 0.446270 1.292400 0.700200
O72 O 0.369220 1.209400 0.814150
C73 C 0.243590 0.528900 0.473500
H74 H 0.291200 0.595000 0.456200
C75 C 0.191310 0.343300 0.403400
H76 H 0.203300 0.285700 0.339400
C77 C 0.120960 0.243100 0.428800
C78 C 0.103200 0.325900 0.523500
H79 H 0.056000 0.256800 0.540700
C80 C 0.155780 0.512200 0.593000
H81 H 0.143500 0.567600 0.657200
C82 C 0.227210 0.620300 0.569440
C83 C 0.278840 0.818300 0.646570
H84 H 0.262100 0.851800 0.709900
C85 C 0.346350 0.959800 0.641290
C86 C 0.395020 0.965500 0.557800
H87 H 0.427500 0.809500 0.561100
H88 H 0.353600 0.991800 0.478800
C89 C 0.459290 1.187700 0.599160
H90 H 0.446600 1.313900 0.538300
H91 H 0.520800 1.131400 0.619200
C92 C 0.385420 1.158100 0.728600

#END
