./ADIPAC06_from_xyz.cif_generated_by_CrystalShift
_symmetry_cell_setting triclinic
_symmetry_space_group_name_H-M 'P 1'
loop_
_symmetry_equiv_pos_site_id
_symmetry_equiv_pos_as_xyz
1 x,y,z
_cell_length_a 7.184200
_cell_length_b 5.157500
_cell_length_c 9.994800
_cell_angle_alpha 90.000000
_cell_angle_beta 110.875000
_cell_angle_gamma 90.000000
_cell_volume 346.023845
loop_
_atom_site_label
_atom_site_type_symbol
_atom_site_fract_x
_atom_site_fract_y
_atom_site_fract_z
O1 O -0.293730 -0.098400 0.130090
O2 O -0.478400 0.251000 0.129820
H3 H -0.548900 0.192200 0.049300
C4 C -0.329600 0.090400 0.191630
C5 C -0.208100 0.163700 0.342820
H6 H -0.298800 0.188700 0.396620
H7 H -0.141800 0.331600 0.341910
C8 C -0.050500 -0.034400 0.421310
H9 H 0.051000 -0.043600 0.375630
H10 H -0.113200 -0.207400 0.413220
O11 O 0.293730 0.098400 0.869910
O12 O 0.478400 -0.251000 0.870180
H13 H 0.548900 -0.192200 0.950700
C14 C 0.329600 -0.090400 0.808370
C15 C 0.208100 -0.163700 0.657180
H16 H 0.298800 -0.188700 0.603380
H17 H 0.141800 -0.331600 0.658090
C18 C 0.050500 0.034400 0.578690
H19 H -0.051000 0.043600 0.624370
H20 H 0.113200 0.207400 0.586780
O21 O -0.293730 0.901600 0.130090
O22 O -0.478400 1.251000 0.129820
H23 H -0.548900 1.192200 0.049300
C24 C -0.329600 1.090400 0.191630
C25 C -0.208100 1.163700 0.342820
H26 H -0.298800 1.188700 0.396620
H27 H -0.141800 1.331600 0.341910
C28 C -0.050500 0.965600 0.421310
H29 H 0.051000 0.956400 0.375630
H30 H -0.113200 0.792600 0.413220
O31 O 0.293730 1.098400 0.869910
O32 O 0.478400 0.749000 0.870180
H33 H 0.548900 0.807800 0.950700
C34 C 0.329600 0.909600 0.808370
C35 C 0.208100 0.836300 0.657180
H36 H 0.298800 0.811300 0.603380
H37 H 0.141800 0.668400 0.658090
C38 C 0.050500 1.034400 0.578690
H39 H -0.051000 1.043600 0.624370
H40 H 0.113200 1.207400 0.586780
O41 O 0.706270 -0.098400 0.130090
O42 O 0.521600 0.251000 0.129820
H43 H 0.451100 0.192200 0.049300
C44 C 0.670400 0.090400 0.191630
C45 C 0.791900 0.163700 0.342820
H46 H 0.701200 0.188700 0.396620
H47 H 0.858200 0.331600 0.341910
C48 C 0.949500 -0.034400 0.421310
H49 H 1.051000 -0.043600 0.375630
H50 H 0.886800 -0.207400 0.413220
O51 O 1.293730 0.098400 0.869910
O52 O 1.478400 -0.251000 0.870180
H53 H 1.548900 -0.192200 0.950700
C54 C 1.329600 -0.090400 0.808370
C55 C 1.208100 -0.163700 0.657180
H56 H 1.298800 -0.188700 0.603380
H57 H 1.141800 -0.331600 0.658090
C58 C 1.050500 0.034400 0.578690
H59 H 0.949000 0.043600 0.624370
H60 H 1.113200 0.207400 0.586780
O61 O 0.706270 0.901600 0.130090
O62 O 0.521600 1.251000 0.129820
H63 H 0.451100 1.192200 0.049300
C64 C 0.670400 1.090400 0.191630
C65 C 0.791900 1.163700 0.342820
H66 H 0.701200 1.188700 0.396620
H67 H 0.858200 1.331600 0.341910
C68 C 0.949500 0.965600 0.421310
H69 H 1.051000 0.956400 0.375630
H70 H 0.886800 0.792600 0.413220
O71 O 1.293730 1.098400 0.869910
O72 O 1.478400 0.749000 0.870180
H73 H 1.548900 0.807800 0.950700
C74 C 1.329600 0.909600 0.808370
C75 C 1.208100 0.836300 0.657180
H76 H 1.298800 0.811300 0.603380
H77 H 1.141800 0.668400 0.658090
C78 C 1.050500 1.034400 0.578690
H79 H 0.949000 1.043600 0.624370
H80 H 1.113200 1.207400 0.586780
O81 O 0.293730 0.401600 0.369910
O82 O 0.478400 0.751000 0.370180
H83 H 0.548900 0.692200 0.450700
C84 C 0.329600 0.590400 0.308370
C85 C 0.208100 0.663700 0.157180
H86 H 0.298800 0.688700 0.103380
H87 H 0.141800 0.831600 0.158090
C88 C 0.050500 0.465600 0.078690
H89 H -0.051000 0.456400 0.124370
H90 H 0.113200 0.292600 0.086780
O91 O -0.293730 0.598400 -0.369910
O92 O -0.478400 0.249000 -0.370180
H93 H -0.548900 0.307800 -0.450700
C94 C -0.329600 0.409600 -0.308370
C95 C -0.208100 0.336300 -0.157180
H96 H -0.298800 0.311300 -0.103380
H97 H -0.141800 0.168400 -0.158090
C98 C -0.050500 0.534400 -0.078690
H99 H 0.051000 0.543600 -0.124370
H100 H -0.113200 0.707400 -0.086780
O101 O 0.293730 0.401600 1.369910
O102 O 0.478400 0.751000 1.370180
H103 H 0.548900 0.692200 1.450700
C104 C 0.329600 0.590400 1.308370
C105 C 0.208100 0.663700 1.157180
H106 H 0.298800 0.688700 1.103380
H107 H 0.141800 0.831600 1.158090
C108 C 0.050500 0.465600 1.078690
H109 H -0.051000 0.456400 1.124370
H110 H 0.113200 0.292600 1.086780
O111 O -0.293730 0.598400 0.630090
O112 O -0.478400 0.249000 0.629820
H113 H -0.548900 0.307800 0.549300
C114 C -0.329600 0.409600 0.691630
C115 C -0.208100 0.336300 0.842820
H116 H -0.298800 0.311300 0.896620
H117 H -0.141800 0.168400 0.841910
C118 C -0.050500 0.534400 0.921310
H119 H 0.051000 0.543600 0.875630
H120 H -0.113200 0.707400 0.913220
O121 O 1.293730 0.401600 0.369910
O122 O 1.478400 0.751000 0.370180
H123 H 1.548900 0.692200 0.450700
C124 C 1.329600 0.590400 0.308370
C125 C 1.208100 0.663700 0.157180
H126 H 1.298800 0.688700 0.103380
H127 H 1.141800 0.831600 0.158090
C128 C 1.050500 0.465600 0.078690
H129 H 0.949000 0.456400 0.124370
H130 H 1.113200 0.292600 0.086780
O131 O 0.706270 0.598400 -0.369910
O132 O 0.521600 0.249000 -0.370180
H133 H 0.451100 0.307800 -0.450700
C134 C 0.670400 0.409600 -0.308370
C135 C 0.791900 0.336300 -0.157180
H136 H 0.701200 0.311300 -0.103380
H137 H 0.858200 0.168400 -0.158090
C138 C 0.949500 0.534400 -0.078690
H139 H 1.051000 0.543600 -0.124370
H140 H 0.886800 0.707400 -0.086780
O141 O 1.293730 0.401600 1.369910
O142 O 1.478400 0.751000 1.370180
H143 H 1.548900 0.692200 1.450700
C144 C 1.329600 0.590400 1.308370
C145 C 1.208100 0.663700 1.157180
H146 H 1.298800 0.688700 1.103380
H147 H 1.141800 0.831600 1.158090
C148 C 1.050500 0.465600 1.078690
H149 H 0.949000 0.456400 1.124370
H150 H 1.113200 0.292600 1.086780
O151 O 0.706270 0.598400 0.630090
O152 O 0.521600 0.249000 0.629820
H153 H 0.451100 0.307800 0.549300
C154 C 0.670400 0.409600 0.691630
C155 C 0.791900 0.336300 0.842820
H156 H 0.701200 0.311300 0.896620
H157 H 0.858200 0.168400 0.841910
C158 C 0.949500 0.534400 0.921310
H159 H 1.051000 0.543600 0.875630
H160 H 0.886800 0.707400 0.913220

#END
