./ADOCAY_from_xyz.cif_generated_by_CrystalShift
_symmetry_cell_setting triclinic
_symmetry_space_group_name_H-M 'P 1'
loop_
_symmetry_equiv_pos_site_id
_symmetry_equiv_pos_as_xyz
1 x,y,z
_cell_length_a 17.061600
_cell_length_b 17.061600
_cell_length_c 14.653300
_cell_angle_alpha 90.000000
_cell_angle_beta 90.000000
_cell_angle_gamma 90.000000
_cell_volume 4265.549174
loop_
_atom_site_label
_atom_site_type_symbol
_atom_site_fract_x
_atom_site_fract_y
_atom_site_fract_z
V1 V 0.121230 0.112950 0.128290
V2 V 0.185510 -0.047500 0.088780
V3 V 0.188540 0.033740 -0.087290
V4 V 0.066380 -0.070860 0.230280
Ni5 Ni 0.253610 0.246390 0.250000
O6 O 0.181840 0.170900 0.181790
O7 O 0.185000 0.058860 0.038300
O8 O 0.130010 0.009320 0.182800
O9 O 0.271900 -0.067400 0.123600
O10 O 0.121770 -0.131660 0.122830
O11 O 0.071440 0.177920 0.037200
O12 O 0.276600 0.044000 -0.122000
O13 O 0.018600 0.130000 0.181700
O14 O 0.000000 0.000000 0.284300
O15 O 0.105500 -0.113500 0.316680
N16 N 0.347300 0.215800 0.159300
N17 N 0.221200 0.339800 0.160500
C18 C 0.194900 0.329500 0.074200
H19 H 0.180300 0.279200 0.056400
C20 C 0.188500 0.388700 0.011700
H21 H 0.170000 0.378300 -0.046700
C22 C 0.209900 0.464500 0.036100
C23 C 0.335100 0.195300 0.073100
H24 H 0.284600 0.181600 0.055500
C25 C 0.421400 0.228900 0.184900
H26 H 0.431300 0.240500 0.245800
C27 C 0.484300 0.225700 0.124700
H28 H 0.535100 0.234700 0.145400
C29 C 0.208900 0.529600 -0.032100
C30 C 0.394100 0.193200 0.007800
H31 H 0.382000 0.181100 -0.052500
C32 C 0.236800 0.413700 0.183300
H33 H 0.251000 0.423700 0.243500
C34 C 0.233600 0.476100 0.124500
H35 H 0.247400 0.526000 0.144400
V36 V 0.112950 -0.121230 -0.128290
V37 V -0.121230 -0.112950 0.128290
V38 V -0.112950 0.121230 -0.128290
V39 V 0.047500 0.185510 -0.088780
V40 V -0.047500 -0.185510 -0.088780
V41 V -0.185510 0.047500 0.088780
V42 V 0.033740 -0.188540 0.087290
V43 V -0.033740 0.188540 0.087290
V44 V -0.188540 -0.033740 -0.087290
V45 V -0.066380 0.070860 0.230280
V46 V 0.070860 0.066380 -0.230280
V47 V -0.070860 -0.066380 -0.230280
Ni48 Ni 0.246390 0.746390 -0.250000
Ni49 Ni 0.753610 0.253610 -0.250000
Ni50 Ni 0.246390 -0.253610 0.750000
Ni51 Ni -0.246390 0.253610 0.750000
Ni52 Ni 0.246390 -0.253610 -0.250000
Ni53 Ni -0.253610 -0.246390 0.250000
Ni54 Ni -0.246390 0.253610 -0.250000
O55 O 0.329100 0.318160 0.318210
O56 O 0.170900 -0.181840 -0.181790
O57 O -0.181840 -0.170900 0.181790
O58 O -0.170900 0.181840 -0.181790
O59 O -0.329100 -0.318160 0.318210
O60 O 0.058860 -0.185000 -0.038300
O61 O -0.058860 0.185000 -0.038300
O62 O -0.185000 -0.058860 0.038300
O63 O -0.009320 0.130010 -0.182800
O64 O -0.130010 -0.009320 0.182800
O65 O 0.009320 -0.130010 -0.182800
O66 O 0.067400 0.271900 -0.123600
O67 O -0.067400 -0.271900 -0.123600
O68 O -0.271900 0.067400 0.123600
O69 O 0.131660 0.121770 -0.122830
O70 O -0.121770 0.131660 0.122830
O71 O -0.131660 -0.121770 -0.122830
O72 O 0.177920 -0.071440 -0.037200
O73 O -0.071440 -0.177920 0.037200
O74 O -0.177920 0.071440 -0.037200
O75 O 0.044000 -0.276600 0.122000
O76 O -0.044000 0.276600 0.122000
O77 O -0.276600 -0.044000 -0.122000
O78 O 0.130000 -0.018600 -0.181700
O79 O -0.018600 -0.130000 0.181700
O80 O -0.130000 0.018600 -0.181700
O81 O -0.000000 -0.000000 -0.284300
O82 O -0.105500 0.113500 0.316680
O83 O 0.113500 0.105500 -0.316680
O84 O -0.113500 -0.105500 -0.316680
N85 N 0.284200 0.152700 0.340700
N86 N 0.215800 0.652700 -0.159300
N87 N 0.152700 -0.284200 0.659300
N88 N -0.347300 -0.215800 0.159300
N89 N -0.284200 -0.152700 0.340700
N90 N 0.160200 0.278800 0.339500
N91 N 0.660200 0.221200 -0.160500
N92 N -0.278800 0.160200 0.660500
N93 N -0.221200 -0.339800 0.160500
N94 N -0.160200 -0.278800 0.339500
C95 C 0.670500 0.194900 -0.074200
C96 C -0.305100 0.170500 0.574200
C97 C -0.170500 -0.305100 0.425800
H98 H 0.720800 0.180300 -0.056400
H99 H -0.319700 0.220800 0.556400
H100 H -0.220800 -0.319700 0.443600
C101 C 0.611300 0.188500 -0.011700
C102 C -0.311500 0.111300 0.511700
C103 C -0.111300 -0.311500 0.488300
H104 H 0.621700 0.170000 0.046700
H105 H -0.330000 0.121700 0.453300
H106 H -0.121700 -0.330000 0.546700
C107 C 0.535500 0.209900 -0.036100
C108 C -0.290100 0.035500 0.536100
C109 C -0.035500 -0.290100 0.463900
C110 C 0.195300 0.664900 -0.073100
C111 C 0.164900 -0.304700 0.573100
C112 C -0.304700 -0.164900 0.426900
H113 H 0.181600 0.715400 -0.055500
H114 H 0.215400 -0.318400 0.555500
H115 H -0.318400 -0.215400 0.444500
C116 C 0.228900 0.578600 -0.184900
C117 C 0.078600 -0.271100 0.684900
C118 C -0.271100 -0.078600 0.315100
H119 H 0.240500 0.568700 -0.245800
H120 H 0.068700 -0.259500 0.745800
H121 H -0.259500 -0.068700 0.254200
C122 C 0.225700 0.515700 -0.124700
C123 C 0.015700 -0.274300 0.624700
C124 C -0.274300 -0.015700 0.375300
H125 H 0.234700 0.464900 -0.145400
H126 H -0.035100 -0.265300 0.645400
H127 H -0.265300 0.035100 0.354600
C128 C 0.470400 0.208900 0.032100
C129 C 0.029600 -0.291100 0.532100
C130 C -0.291100 -0.029600 0.467900
C131 C 0.193200 0.605900 -0.007800
C132 C 0.105900 -0.306800 0.507800
C133 C -0.306800 -0.105900 0.492200
H134 H 0.181100 0.618000 0.052500
H135 H 0.118000 -0.318900 0.447500
H136 H -0.318900 -0.118000 0.552500
C137 C 0.586300 0.236800 -0.183300
C138 C -0.263200 0.086300 0.683300
C139 C -0.086300 -0.263200 0.316700
H140 H 0.576300 0.251000 -0.243500
H141 H -0.249000 0.076300 0.743500
H142 H -0.076300 -0.249000 0.256500
C143 C 0.523900 0.233600 -0.124500
C144 C -0.266400 0.023900 0.624500
C145 C -0.023900 -0.266400 0.375500
H146 H 0.474000 0.247400 -0.144400
H147 H -0.252600 -0.026000 0.644400
H148 H 0.026000 -0.252600 0.355600
V149 V 0.878770 0.887050 0.128290
V150 V 0.814490 1.047500 0.088780
V151 V 0.811460 0.966260 -0.087290
V152 V 0.933620 1.070860 0.230280
Ni153 Ni 0.746390 0.753610 0.250000
O154 O 0.818160 0.829100 0.181790
O155 O 0.815000 0.941140 0.038300
O156 O 0.869990 0.990680 0.182800
O157 O 0.728100 1.067400 0.123600
O158 O 0.878230 1.131660 0.122830
O159 O 0.928560 0.822080 0.037200
O160 O 0.723400 0.956000 -0.122000
O161 O 0.981400 0.870000 0.181700
O162 O 1.000000 1.000000 0.284300
O163 O 0.894500 1.113500 0.316680
N164 N 0.652700 0.784200 0.159300
N165 N 0.778800 0.660200 0.160500
C166 C 0.805100 0.670500 0.074200
H167 H 0.819700 0.720800 0.056400
C168 C 0.811500 0.611300 0.011700
H169 H 0.830000 0.621700 -0.046700
C170 C 0.790100 0.535500 0.036100
C171 C 0.664900 0.804700 0.073100
H172 H 0.715400 0.818400 0.055500
C173 C 0.578600 0.771100 0.184900
H174 H 0.568700 0.759500 0.245800
C175 C 0.515700 0.774300 0.124700
H176 H 0.464900 0.765300 0.145400
C177 C 0.791100 0.470400 -0.032100
C178 C 0.605900 0.806800 0.007800
H179 H 0.618000 0.818900 -0.052500
C180 C 0.763200 0.586300 0.183300
H181 H 0.749000 0.576300 0.243500
C182 C 0.766400 0.523900 0.124500
H183 H 0.752600 0.474000 0.144400
V184 V 0.887050 1.121230 -0.128290
V185 V 1.121230 1.112950 0.128290
V186 V 1.112950 0.878770 -0.128290
V187 V 0.952500 0.814490 -0.088780
V188 V 1.047500 1.185510 -0.088780
V189 V 1.185510 0.952500 0.088780
V190 V 0.966260 1.188540 0.087290
V191 V 1.033740 0.811460 0.087290
V192 V 1.188540 1.033740 -0.087290
V193 V 1.066380 0.929140 0.230280
V194 V 0.929140 0.933620 -0.230280
V195 V 1.070860 1.066380 -0.230280
Ni196 Ni 0.753610 1.253610 0.750000
Ni197 Ni 1.246390 0.746390 0.750000
Ni198 Ni 0.753610 1.253610 -0.250000
Ni199 Ni 1.253610 1.246390 0.250000
Ni200 Ni 1.246390 0.746390 -0.250000
O201 O 0.670900 0.681840 0.318210
O202 O 0.829100 1.181840 -0.181790
O203 O 1.181840 1.170900 0.181790
O204 O 1.170900 0.818160 -0.181790
O205 O 1.329100 1.318160 0.318210
O206 O 0.941140 1.185000 -0.038300
O207 O 1.058860 0.815000 -0.038300
O208 O 1.185000 1.058860 0.038300
O209 O 1.009320 0.869990 -0.182800
O210 O 1.130010 1.009320 0.182800
O211 O 0.990680 1.130010 -0.182800
O212 O 0.932600 0.728100 -0.123600
O213 O 1.067400 1.271900 -0.123600
O214 O 1.271900 0.932600 0.123600
O215 O 0.868340 0.878230 -0.122830
O216 O 1.121770 0.868340 0.122830
O217 O 1.131660 1.121770 -0.122830
O218 O 0.822080 1.071440 -0.037200
O219 O 1.071440 1.177920 0.037200
O220 O 1.177920 0.928560 -0.037200
O221 O 0.956000 1.276600 0.122000
O222 O 1.044000 0.723400 0.122000
O223 O 1.276600 1.044000 -0.122000
O224 O 0.870000 1.018600 -0.181700
O225 O 1.018600 1.130000 0.181700
O226 O 1.130000 0.981400 -0.181700
O227 O 1.000000 1.000000 -0.284300
O228 O 1.105500 0.886500 0.316680
O229 O 0.886500 0.894500 -0.316680
O230 O 1.113500 1.105500 -0.316680
N231 N 0.715800 0.847300 0.340700
N232 N 0.784200 0.347300 -0.159300
N233 N 0.847300 1.284200 0.659300
N234 N 1.347300 1.215800 0.159300
N235 N 1.284200 1.152700 0.340700
N236 N 0.839800 0.721200 0.339500
N237 N 0.339800 0.778800 -0.160500
N238 N 1.278800 0.839800 0.660500
N239 N 1.221200 1.339800 0.160500
N240 N 1.160200 1.278800 0.339500
C241 C 0.329500 0.805100 -0.074200
C242 C 1.305100 0.829500 0.574200
C243 C 1.170500 1.305100 0.425800
H244 H 0.279200 0.819700 -0.056400
H245 H 1.319700 0.779200 0.556400
H246 H 1.220800 1.319700 0.443600
C247 C 0.388700 0.811500 -0.011700
C248 C 1.311500 0.888700 0.511700
C249 C 1.111300 1.311500 0.488300
H250 H 0.378300 0.830000 0.046700
H251 H 1.330000 0.878300 0.453300
H252 H 1.121700 1.330000 0.546700
C253 C 0.464500 0.790100 -0.036100
C254 C 1.290100 0.964500 0.536100
C255 C 1.035500 1.290100 0.463900
C256 C 0.804700 0.335100 -0.073100
C257 C 0.835100 1.304700 0.573100
C258 C 1.304700 1.164900 0.426900
H259 H 0.818400 0.284600 -0.055500
H260 H 0.784600 1.318400 0.555500
H261 H 1.318400 1.215400 0.444500
C262 C 0.771100 0.421400 -0.184900
C263 C 0.921400 1.271100 0.684900
C264 C 1.271100 1.078600 0.315100
H265 H 0.759500 0.431300 -0.245800
H266 H 0.931300 1.259500 0.745800
H267 H 1.259500 1.068700 0.254200
C268 C 0.774300 0.484300 -0.124700
C269 C 0.984300 1.274300 0.624700
C270 C 1.274300 1.015700 0.375300
H271 H 0.765300 0.535100 -0.145400
H272 H 1.035100 1.265300 0.645400
H273 H 1.265300 0.964900 0.354600
C274 C 0.529600 0.791100 0.032100
C275 C 0.970400 1.291100 0.532100
C276 C 1.291100 1.029600 0.467900
C277 C 0.806800 0.394100 -0.007800
C278 C 0.894100 1.306800 0.507800
C279 C 1.306800 1.105900 0.492200
H280 H 0.818900 0.382000 0.052500
H281 H 0.882000 1.318900 0.447500
H282 H 1.318900 1.118000 0.552500
C283 C 0.413700 0.763200 -0.183300
C284 C 1.263200 0.913700 0.683300
C285 C 1.086300 1.263200 0.316700
H286 H 0.423700 0.749000 -0.243500
H287 H 1.249000 0.923700 0.743500
H288 H 1.076300 1.249000 0.256500
C289 C 0.476100 0.766400 -0.124500
C290 C 1.266400 0.976100 0.624500
C291 C 1.023900 1.266400 0.375500
H292 H 0.526000 0.752600 -0.144400
H293 H 1.252600 1.026000 0.644400
H294 H 0.974000 1.252600 0.355600
V295 V 0.112950 0.878770 0.871710
V296 V -0.047500 0.814490 0.911220
V297 V 0.033740 0.811460 1.087290
V298 V -0.070860 0.933620 0.769720
Ni299 Ni 0.246390 0.746390 0.750000
O300 O 0.170900 0.818160 0.818210
O301 O 0.058860 0.815000 0.961700
O302 O 0.009320 0.869990 0.817200
O303 O -0.067400 0.728100 0.876400
O304 O -0.131660 0.878230 0.877170
O305 O 0.177920 0.928560 0.962800
O306 O 0.044000 0.723400 1.122000
O307 O 0.130000 0.981400 0.818300
O308 O 0.000000 1.000000 0.715700
O309 O -0.113500 0.894500 0.683320
N310 N 0.215800 0.652700 0.840700
N311 N 0.339800 0.778800 0.839500
C312 C 0.329500 0.805100 0.925800
H313 H 0.279200 0.819700 0.943600
C314 C 0.388700 0.811500 0.988300
H315 H 0.378300 0.830000 1.046700
C316 C 0.464500 0.790100 0.963900
C317 C 0.195300 0.664900 0.926900
H318 H 0.181600 0.715400 0.944500
C319 C 0.228900 0.578600 0.815100
H320 H 0.240500 0.568700 0.754200
C321 C 0.225700 0.515700 0.875300
H322 H 0.234700 0.464900 0.854600
C323 C 0.529600 0.791100 1.032100
C324 C 0.193200 0.605900 0.992200
H325 H 0.181100 0.618000 1.052500
C326 C 0.413700 0.763200 0.816700
H327 H 0.423700 0.749000 0.756500
C328 C 0.476100 0.766400 0.875500
H329 H 0.526000 0.752600 0.855600
V330 V -0.121230 0.887050 1.128290
V331 V -0.112950 1.121230 0.871710
V332 V 0.121230 1.112950 1.128290
V333 V 0.185510 0.952500 1.088780
V334 V -0.185510 1.047500 1.088780
V335 V 0.047500 1.185510 0.911220
V336 V -0.188540 0.966260 0.912710
V337 V 0.188540 1.033740 0.912710
V338 V -0.033740 1.188540 1.087290
V339 V 0.070860 1.066380 0.769720
V340 V 0.066380 0.929140 1.230280
V341 V -0.066380 1.070860 1.230280
Ni342 Ni 0.746390 0.753610 1.250000
Ni343 Ni 0.253610 0.246390 1.250000
Ni344 Ni -0.253610 0.753610 0.250000
Ni345 Ni 0.253610 1.246390 0.250000
Ni346 Ni -0.253610 0.753610 1.250000
Ni347 Ni -0.246390 1.253610 0.750000
Ni348 Ni 0.253610 1.246390 1.250000
O349 O 0.318160 0.670900 0.681790
O350 O -0.181840 0.829100 1.181790
O351 O -0.170900 1.181840 0.818210
O352 O 0.181840 1.170900 1.181790
O353 O -0.318160 1.329100 0.681790
O354 O -0.185000 0.941140 1.038300
O355 O 0.185000 1.058860 1.038300
O356 O -0.058860 1.185000 0.961700
O357 O 0.130010 1.009320 1.182800
O358 O -0.009320 1.130010 0.817200
O359 O -0.130010 0.990680 1.182800
O360 O 0.271900 0.932600 1.123600
O361 O -0.271900 1.067400 1.123600
O362 O 0.067400 1.271900 0.876400
O363 O 0.121770 0.868340 1.122830
O364 O 0.131660 1.121770 0.877170
O365 O -0.121770 1.131660 1.122830
O366 O -0.071440 0.822080 1.037200
O367 O -0.177920 1.071440 0.962800
O368 O 0.071440 1.177920 1.037200
O369 O -0.276600 0.956000 0.878000
O370 O 0.276600 1.044000 0.878000
O371 O -0.044000 1.276600 1.122000
O372 O -0.018600 0.870000 1.181700
O373 O -0.130000 1.018600 0.818300
O374 O 0.018600 1.130000 1.181700
O375 O 0.000000 1.000000 1.284300
O376 O 0.113500 1.105500 0.683320
O377 O 0.105500 0.886500 1.316680
O378 O -0.105500 1.113500 1.316680
N379 N 0.152700 0.715800 0.659300
N380 N 0.652700 0.784200 1.159300
N381 N -0.284200 0.847300 0.340700
N382 N -0.215800 1.347300 0.840700
N383 N -0.152700 1.284200 0.659300
N384 N 0.278800 0.839800 0.660500
N385 N 0.221200 0.339800 1.160500
N386 N 0.160200 1.278800 0.339500
N387 N -0.339800 1.221200 0.839500
N388 N -0.278800 1.160200 0.660500
C389 C 0.194900 0.329500 1.074200
C390 C 0.170500 1.305100 0.425800
C391 C -0.305100 1.170500 0.574200
H392 H 0.180300 0.279200 1.056400
H393 H 0.220800 1.319700 0.443600
H394 H -0.319700 1.220800 0.556400
C395 C 0.188500 0.388700 1.011700
C396 C 0.111300 1.311500 0.488300
C397 C -0.311500 1.111300 0.511700
H398 H 0.170000 0.378300 0.953300
H399 H 0.121700 1.330000 0.546700
H400 H -0.330000 1.121700 0.453300
C401 C 0.209900 0.464500 1.036100
C402 C 0.035500 1.290100 0.463900
C403 C -0.290100 1.035500 0.536100
C404 C 0.664900 0.804700 1.073100
C405 C -0.304700 0.835100 0.426900
C406 C -0.164900 1.304700 0.573100
H407 H 0.715400 0.818400 1.055500
H408 H -0.318400 0.784600 0.444500
H409 H -0.215400 1.318400 0.555500
C410 C 0.578600 0.771100 1.184900
C411 C -0.271100 0.921400 0.315100
C412 C -0.078600 1.271100 0.684900
H413 H 0.568700 0.759500 1.245800
H414 H -0.259500 0.931300 0.254200
H415 H -0.068700 1.259500 0.745800
C416 C 0.515700 0.774300 1.124700
C417 C -0.274300 0.984300 0.375300
C418 C -0.015700 1.274300 0.624700
H419 H 0.464900 0.765300 1.145400
H420 H -0.265300 1.035100 0.354600
H421 H 0.035100 1.265300 0.645400
C422 C 0.208900 0.529600 0.967900
C423 C -0.291100 0.970400 0.467900
C424 C -0.029600 1.291100 0.532100
C425 C 0.605900 0.806800 1.007800
C426 C -0.306800 0.894100 0.492200
C427 C -0.105900 1.306800 0.507800
H428 H 0.618000 0.818900 0.947500
H429 H -0.318900 0.882000 0.552500
H430 H -0.118000 1.318900 0.447500
C431 C 0.236800 0.413700 1.183300
C432 C 0.086300 1.263200 0.316700
C433 C -0.263200 1.086300 0.683300
H434 H 0.251000 0.423700 1.243500
H435 H 0.076300 1.249000 0.256500
H436 H -0.249000 1.076300 0.743500
C437 C 0.233600 0.476100 1.124500
C438 C 0.023900 1.266400 0.375500
C439 C -0.266400 1.023900 0.624500
H440 H 0.247400 0.526000 1.144400
H441 H -0.026000 1.252600 0.355600
H442 H -0.252600 0.974000 0.644400
V443 V 0.887050 0.121230 0.871710
V444 V 1.047500 0.185510 0.911220
V445 V 0.966260 0.188540 1.087290
V446 V 1.070860 0.066380 0.769720
Ni447 Ni 0.753610 0.253610 0.750000
O448 O 0.829100 0.181840 0.818210
O449 O 0.941140 0.185000 0.961700
O450 O 0.990680 0.130010 0.817200
O451 O 1.067400 0.271900 0.876400
O452 O 1.131660 0.121770 0.877170
O453 O 0.822080 0.071440 0.962800
O454 O 0.956000 0.276600 1.122000
O455 O 0.870000 0.018600 0.818300
O456 O 1.000000 0.000000 0.715700
O457 O 1.113500 0.105500 0.683320
N458 N 0.784200 0.347300 0.840700
N459 N 0.660200 0.221200 0.839500
C460 C 0.670500 0.194900 0.925800
H461 H 0.720800 0.180300 0.943600
C462 C 0.611300 0.188500 0.988300
H463 H 0.621700 0.170000 1.046700
C464 C 0.535500 0.209900 0.963900
C465 C 0.804700 0.335100 0.926900
H466 H 0.818400 0.284600 0.944500
C467 C 0.771100 0.421400 0.815100
H468 H 0.759500 0.431300 0.754200
C469 C 0.774300 0.484300 0.875300
H470 H 0.765300 0.535100 0.854600
C471 C 0.470400 0.208900 1.032100
C472 C 0.806800 0.394100 0.992200
H473 H 0.818900 0.382000 1.052500
C474 C 0.586300 0.236800 0.816700
H475 H 0.576300 0.251000 0.756500
C476 C 0.523900 0.233600 0.875500
H477 H 0.474000 0.247400 0.855600
V478 V 1.121230 0.112950 1.128290
V479 V 1.112950 -0.121230 0.871710
V480 V 0.878770 -0.112950 1.128290
V481 V 0.814490 0.047500 1.088780
V482 V 1.185510 -0.047500 1.088780
V483 V 0.952500 -0.185510 0.911220
V484 V 1.188540 0.033740 0.912710
V485 V 0.811460 -0.033740 0.912710
V486 V 1.033740 -0.188540 1.087290
V487 V 0.929140 -0.066380 0.769720
V488 V 0.933620 0.070860 1.230280
V489 V 1.066380 -0.070860 1.230280
Ni490 Ni 1.253610 0.246390 0.250000
Ni491 Ni 0.746390 -0.246390 0.250000
Ni492 Ni 1.253610 0.246390 1.250000
Ni493 Ni 1.246390 -0.253610 0.750000
Ni494 Ni 0.746390 -0.246390 1.250000
O495 O 0.681840 0.329100 0.681790
O496 O 1.181840 0.170900 1.181790
O497 O 1.170900 -0.181840 0.818210
O498 O 0.818160 -0.170900 1.181790
O499 O 1.318160 -0.329100 0.681790
O500 O 1.185000 0.058860 1.038300
O501 O 0.815000 -0.058860 1.038300
O502 O 1.058860 -0.185000 0.961700
O503 O 0.869990 -0.009320 1.182800
O504 O 1.009320 -0.130010 0.817200
O505 O 1.130010 0.009320 1.182800
O506 O 0.728100 0.067400 1.123600
O507 O 1.271900 -0.067400 1.123600
O508 O 0.932600 -0.271900 0.876400
O509 O 0.878230 0.131660 1.122830
O510 O 0.868340 -0.121770 0.877170
O511 O 1.121770 -0.131660 1.122830
O512 O 1.071440 0.177920 1.037200
O513 O 1.177920 -0.071440 0.962800
O514 O 0.928560 -0.177920 1.037200
O515 O 1.276600 0.044000 0.878000
O516 O 0.723400 -0.044000 0.878000
O517 O 1.044000 -0.276600 1.122000
O518 O 1.018600 0.130000 1.181700
O519 O 1.130000 -0.018600 0.818300
O520 O 0.981400 -0.130000 1.181700
O521 O 1.000000 0.000000 1.284300
O522 O 0.886500 -0.105500 0.683320
O523 O 0.894500 0.113500 1.316680
O524 O 1.105500 -0.113500 1.316680
N525 N 0.847300 0.284200 0.659300
N526 N 0.347300 0.215800 1.159300
N527 N 1.284200 0.152700 0.340700
N528 N 1.215800 -0.347300 0.840700
N529 N 1.152700 -0.284200 0.659300
N530 N 0.721200 0.160200 0.660500
N531 N 0.778800 0.660200 1.160500
N532 N 0.839800 -0.278800 0.339500
N533 N 1.339800 -0.221200 0.839500
N534 N 1.278800 -0.160200 0.660500
C535 C 0.805100 0.670500 1.074200
C536 C 0.829500 -0.305100 0.425800
C537 C 1.305100 -0.170500 0.574200
H538 H 0.819700 0.720800 1.056400
H539 H 0.779200 -0.319700 0.443600
H540 H 1.319700 -0.220800 0.556400
C541 C 0.811500 0.611300 1.011700
C542 C 0.888700 -0.311500 0.488300
C543 C 1.311500 -0.111300 0.511700
H544 H 0.830000 0.621700 0.953300
H545 H 0.878300 -0.330000 0.546700
H546 H 1.330000 -0.121700 0.453300
C547 C 0.790100 0.535500 1.036100
C548 C 0.964500 -0.290100 0.463900
C549 C 1.290100 -0.035500 0.536100
C550 C 0.335100 0.195300 1.073100
C551 C 1.304700 0.164900 0.426900
C552 C 1.164900 -0.304700 0.573100
H553 H 0.284600 0.181600 1.055500
H554 H 1.318400 0.215400 0.444500
H555 H 1.215400 -0.318400 0.555500
C556 C 0.421400 0.228900 1.184900
C557 C 1.271100 0.078600 0.315100
C558 C 1.078600 -0.271100 0.684900
H559 H 0.431300 0.240500 1.245800
H560 H 1.259500 0.068700 0.254200
H561 H 1.068700 -0.259500 0.745800
C562 C 0.484300 0.225700 1.124700
C563 C 1.274300 0.015700 0.375300
C564 C 1.015700 -0.274300 0.624700
H565 H 0.535100 0.234700 1.145400
H566 H 1.265300 -0.035100 0.354600
H567 H 0.964900 -0.265300 0.645400
C568 C 0.791100 0.470400 0.967900
C569 C 1.291100 0.029600 0.467900
C570 C 1.029600 -0.291100 0.532100
C571 C 0.394100 0.193200 1.007800
C572 C 1.306800 0.105900 0.492200
C573 C 1.105900 -0.306800 0.507800
H574 H 0.382000 0.181100 0.947500
H575 H 1.318900 0.118000 0.552500
H576 H 1.118000 -0.318900 0.447500
C577 C 0.763200 0.586300 1.183300
C578 C 0.913700 -0.263200 0.316700
C579 C 1.263200 -0.086300 0.683300
H580 H 0.749000 0.576300 1.243500
H581 H 0.923700 -0.249000 0.256500
H582 H 1.249000 -0.076300 0.743500
C583 C 0.766400 0.523900 1.124500
C584 C 0.976100 -0.266400 0.375500
C585 C 1.266400 -0.023900 0.624500
H586 H 0.752600 0.474000 1.144400
H587 H 1.026000 -0.252600 0.355600
H588 H 1.252600 0.026000 0.644400
V589 V 0.621230 0.387050 0.628290
V590 V 0.685510 0.547500 0.588780
V591 V 0.688540 0.466260 0.412710
V592 V 0.566380 0.570860 0.730280
O593 O 0.685000 0.441140 0.538300
O594 O 0.630010 0.490680 0.682800
O595 O 0.771900 0.567400 0.623600
O596 O 0.621770 0.631660 0.622830
O597 O 0.571440 0.322080 0.537200
O598 O 0.776600 0.456000 0.378000
O599 O 0.518600 0.370000 0.681700
O600 O 0.500000 0.500000 0.784300
O601 O 0.605500 0.613500 0.816680
C602 C 0.694900 0.170500 0.574200
H603 H 0.680300 0.220800 0.556400
C604 C 0.688500 0.111300 0.511700
H605 H 0.670000 0.121700 0.453300
C606 C 0.709900 0.035500 0.536100
C607 C 0.835100 0.304700 0.573100
H608 H 0.784600 0.318400 0.555500
C609 C 0.921400 0.271100 0.684900
H610 H 0.931300 0.259500 0.745800
C611 C 0.984300 0.274300 0.624700
H612 H 1.035100 0.265300 0.645400
C613 C 0.708900 -0.029600 0.467900
C614 C 0.894100 0.306800 0.507800
H615 H 0.882000 0.318900 0.447500
C616 C 0.736800 0.086300 0.683300
H617 H 0.751000 0.076300 0.743500
C618 C 0.733600 0.023900 0.624500
H619 H 0.747400 -0.026000 0.644400
V620 V 0.612950 0.621230 0.371710
V621 V 0.378770 0.612950 0.628290
V622 V 0.387050 0.378770 0.371710
V623 V 0.547500 0.314490 0.411220
V624 V 0.452500 0.685510 0.411220
V625 V 0.314490 0.452500 0.588780
V626 V 0.533740 0.688540 0.587290
V627 V 0.466260 0.311460 0.587290
V628 V 0.311460 0.533740 0.412710
V629 V 0.433620 0.429140 0.730280
V630 V 0.570860 0.433620 0.269720
V631 V 0.429140 0.566380 0.269720
O632 O 0.558860 0.685000 0.461700
O633 O 0.441140 0.315000 0.461700
O634 O 0.315000 0.558860 0.538300
O635 O 0.490680 0.369990 0.317200
O636 O 0.369990 0.509320 0.682800
O637 O 0.509320 0.630010 0.317200
O638 O 0.567400 0.228100 0.376400
O639 O 0.432600 0.771900 0.376400
O640 O 0.228100 0.432600 0.623600
O641 O 0.631660 0.378230 0.377170
O642 O 0.378230 0.368340 0.622830
O643 O 0.368340 0.621770 0.377170
O644 O 0.677920 0.571440 0.462800
O645 O 0.428560 0.677920 0.537200
O646 O 0.322080 0.428560 0.462800
O647 O 0.544000 0.776600 0.622000
O648 O 0.456000 0.223400 0.622000
O649 O 0.223400 0.544000 0.378000
O650 O 0.630000 0.518600 0.318300
O651 O 0.481400 0.630000 0.681700
O652 O 0.370000 0.481400 0.318300
O653 O 0.500000 0.500000 0.215700
O654 O 0.394500 0.386500 0.816680
O655 O 0.613500 0.394500 0.183320
O656 O 0.386500 0.605500 0.183320
N657 N 0.715800 -0.152700 0.340700
N658 N 1.160200 0.278800 0.339500
C659 C 1.170500 0.305100 0.425800
H660 H 1.220800 0.319700 0.443600
C661 C 1.111300 0.311500 0.488300
H662 H 1.121700 0.330000 0.546700
C663 C 1.035500 0.290100 0.463900
C664 C 0.695300 -0.164900 0.426900
H665 H 0.681600 -0.215400 0.444500
C666 C 0.728900 -0.078600 0.315100
H667 H 0.740500 -0.068700 0.254200
C668 C 0.725700 -0.015700 0.375300
H669 H 0.734700 0.035100 0.354600
C670 C 0.970400 0.291100 0.532100
C671 C 0.693200 -0.105900 0.492200
H672 H 0.681100 -0.118000 0.552500
C673 C 1.086300 0.263200 0.316700
H674 H 1.076300 0.249000 0.256500
C675 C 1.023900 0.266400 0.375500
H676 H 0.974000 0.252600 0.355600
C677 C 0.305100 0.829500 0.574200
H678 H 0.319700 0.779200 0.556400
C679 C 0.311500 0.888700 0.511700
H680 H 0.330000 0.878300 0.453300
C681 C 0.290100 0.964500 0.536100
C682 C 0.164900 0.695300 0.573100
H683 H 0.215400 0.681600 0.555500
C684 C 0.078600 0.728900 0.684900
H685 H 0.068700 0.740500 0.745800
C686 C 0.015700 0.725700 0.624700
H687 H -0.035100 0.734700 0.645400
C688 C 0.291100 1.029600 0.467900
C689 C 0.105900 0.693200 0.507800
H690 H 0.118000 0.681100 0.447500
C691 C 0.263200 0.913700 0.683300
H692 H 0.249000 0.923700 0.743500
C693 C 0.266400 0.976100 0.624500
H694 H 0.252600 1.026000 0.644400
N695 N 0.284200 1.152700 0.340700
N696 N -0.160200 0.721200 0.339500
C697 C -0.170500 0.694900 0.425800
H698 H -0.220800 0.680300 0.443600
C699 C -0.111300 0.688500 0.488300
H700 H -0.121700 0.670000 0.546700
C701 C -0.035500 0.709900 0.463900
C702 C 0.304700 1.164900 0.426900
H703 H 0.318400 1.215400 0.444500
C704 C 0.271100 1.078600 0.315100
H705 H 0.259500 1.068700 0.254200
C706 C 0.274300 1.015700 0.375300
H707 H 0.265300 0.964900 0.354600
C708 C 0.029600 0.708900 0.532100
C709 C 0.306800 1.105900 0.492200
H710 H 0.318900 1.118000 0.552500
C711 C -0.086300 0.736800 0.316700
H712 H -0.076300 0.751000 0.256500
C713 C -0.023900 0.733600 0.375500
H714 H 0.026000 0.747400 0.355600
C715 C 0.829500 0.694900 0.425800
H716 H 0.779200 0.680300 0.443600
C717 C 0.888700 0.688500 0.488300
H718 H 0.878300 0.670000 0.546700
C719 C 0.964500 0.709900 0.463900
C720 C 0.695300 0.835100 0.426900
H721 H 0.681600 0.784600 0.444500
C722 C 0.728900 0.921400 0.315100
H723 H 0.740500 0.931300 0.254200
C724 C 0.725700 0.984300 0.375300
H725 H 0.734700 1.035100 0.354600
C726 C 1.029600 0.708900 0.532100
C727 C 0.693200 0.894100 0.492200
H728 H 0.681100 0.882000 0.552500
C729 C 0.913700 0.736800 0.316700
H730 H 0.923700 0.751000 0.256500
C731 C 0.976100 0.733600 0.375500
H732 H 1.026000 0.747400 0.355600
N733 N 1.152700 0.715800 0.659300
N734 N 0.721200 1.160200 0.660500
C735 C 0.694900 1.170500 0.574200
H736 H 0.680300 1.220800 0.556400
C737 C 0.688500 1.111300 0.511700
H738 H 0.670000 1.121700 0.453300
C739 C 0.709900 1.035500 0.536100
C740 C 1.164900 0.695300 0.573100
H741 H 1.215400 0.681600 0.555500
C742 C 1.078600 0.728900 0.684900
H743 H 1.068700 0.740500 0.745800
C744 C 1.015700 0.725700 0.624700
H745 H 0.964900 0.734700 0.645400
C746 C 0.708900 0.970400 0.467900
C747 C 1.105900 0.693200 0.507800
H748 H 1.118000 0.681100 0.447500
C749 C 0.736800 1.086300 0.683300
H750 H 0.751000 1.076300 0.743500
C751 C 0.733600 1.023900 0.624500
H752 H 0.747400 0.974000 0.644400
C753 C 0.170500 0.305100 0.425800
H754 H 0.220800 0.319700 0.443600
C755 C 0.111300 0.311500 0.488300
H756 H 0.121700 0.330000 0.546700
C757 C 0.035500 0.290100 0.463900
C758 C 0.304700 0.164900 0.426900
H759 H 0.318400 0.215400 0.444500
C760 C 0.271100 0.078600 0.315100
H761 H 0.259500 0.068700 0.254200
C762 C 0.274300 0.015700 0.375300
H763 H 0.265300 -0.035100 0.354600
C764 C -0.029600 0.291100 0.532100
C765 C 0.306800 0.105900 0.492200
H766 H 0.318900 0.118000 0.552500
C767 C 0.086300 0.263200 0.316700
H768 H 0.076300 0.249000 0.256500
C769 C 0.023900 0.266400 0.375500
H770 H -0.026000 0.252600 0.355600
N771 N -0.152700 0.284200 0.659300
N772 N 0.278800 -0.160200 0.660500
C773 C 0.305100 -0.170500 0.574200
H774 H 0.319700 -0.220800 0.556400
C775 C 0.311500 -0.111300 0.511700
H776 H 0.330000 -0.121700 0.453300
C777 C 0.290100 -0.035500 0.536100
C778 C -0.164900 0.304700 0.573100
H779 H -0.215400 0.318400 0.555500
C780 C -0.078600 0.271100 0.684900
H781 H -0.068700 0.259500 0.745800
C782 C -0.015700 0.274300 0.624700
H783 H 0.035100 0.265300 0.645400
C784 C 0.291100 0.029600 0.467900
C785 C -0.105900 0.306800 0.507800
H786 H -0.118000 0.318900 0.447500
C787 C 0.263200 -0.086300 0.683300
H788 H 0.249000 -0.076300 0.743500
C789 C 0.266400 -0.023900 0.624500
H790 H 0.252600 0.026000 0.644400
F791 F 0.000000 0.000000 0.000000
F792 F 0.000000 0.000000 1.000000
F793 F 0.000000 1.000000 0.000000
F794 F 0.000000 1.000000 1.000000
F795 F 1.000000 0.000000 0.000000
F796 F 1.000000 0.000000 1.000000
F797 F 1.000000 1.000000 0.000000
F798 F 1.000000 1.000000 1.000000
F799 F 0.500000 0.500000 0.500000

#END
