./ADOJEK_from_xyz.cif_generated_by_CrystalShift
_symmetry_cell_setting triclinic
_symmetry_space_group_name_H-M 'P 1'
loop_
_symmetry_equiv_pos_site_id
_symmetry_equiv_pos_as_xyz
1 x,y,z
_cell_length_a 16.696700
_cell_length_b 4.278700
_cell_length_c 13.126200
_cell_angle_alpha 90.000000
_cell_angle_beta 90.000000
_cell_angle_gamma 90.000000
_cell_volume 937.737963
loop_
_atom_site_label
_atom_site_type_symbol
_atom_site_fract_x
_atom_site_fract_y
_atom_site_fract_z
C1 C 0.210120 0.485000 0.357130
C2 C 0.228740 0.276800 0.278160
H3 H 0.189900 0.232000 0.227300
C4 C 0.303990 0.134600 0.273710
C5 C 0.361080 0.204800 0.348560
H6 H 0.412500 0.109700 0.345700
C7 C 0.343250 0.412700 0.427090
C8 C 0.267100 0.552400 0.431300
H9 H 0.254500 0.693100 0.484900
C10 C 0.133120 0.650600 0.363790
H11 H 0.124200 0.784800 0.420300
N12 N 0.077670 0.622900 0.297310
O13 O 0.012440 0.813100 0.322950
H14 H -0.023000 0.764000 0.268000
C15 C 0.320220 -0.085100 0.190320
H16 H 0.279900 -0.123300 0.140800
N17 N 0.387630 -0.226600 0.182770
O18 O 0.389040 -0.428200 0.098400
H19 H 0.436000 -0.525000 0.110000
C20 C 0.406520 0.484600 0.501460
H21 H 0.456400 0.378600 0.497700
N22 N 0.394880 0.688200 0.570910
O23 O 0.464360 0.730000 0.630270
H24 H 0.447000 0.857000 0.688000
C25 C 0.789880 0.515000 0.857130
C26 C 0.771260 0.723200 0.778160
H27 H 0.810100 0.768000 0.727300
C28 C 0.696010 0.865400 0.773710
C29 C 0.638920 0.795200 0.848560
H30 H 0.587500 0.890300 0.845700
C31 C 0.656750 0.587300 0.927090
C32 C 0.732900 0.447600 0.931300
H33 H 0.745500 0.306900 0.984900
C34 C 0.866880 0.349400 0.863790
H35 H 0.875800 0.215200 0.920300
N36 N 0.922330 0.377100 0.797310
O37 O 0.987560 0.186900 0.822950
H38 H 1.023000 0.236000 0.768000
C39 C 0.679780 1.085100 0.690320
H40 H 0.720100 1.123300 0.640800
N41 N 0.612370 1.226600 0.682770
O42 O 0.610960 1.428200 0.598400
H43 H 0.564000 1.525000 0.610000
C44 C 0.593480 0.515400 1.001460
H45 H 0.543600 0.621400 0.997700
N46 N 0.605120 0.311800 1.070910
O47 O 0.535640 0.270000 1.130270
H48 H 0.553000 0.143000 1.188000
C49 C 0.710120 0.015000 0.357130
C50 C 0.728740 0.223200 0.278160
H51 H 0.689900 0.268000 0.227300
C52 C 0.803990 0.365400 0.273710
C53 C 0.861080 0.295200 0.348560
H54 H 0.912500 0.390300 0.345700
C55 C 0.843250 0.087300 0.427090
C56 C 0.767100 -0.052400 0.431300
H57 H 0.754500 -0.193100 0.484900
C58 C 0.633120 -0.150600 0.363790
H59 H 0.624200 -0.284800 0.420300
N60 N 0.577670 -0.122900 0.297310
O61 O 0.512440 -0.313100 0.322950
H62 H 0.477000 -0.264000 0.268000
C63 C 0.820220 0.585100 0.190320
H64 H 0.779900 0.623300 0.140800
N65 N 0.887630 0.726600 0.182770
O66 O 0.889040 0.928200 0.098400
H67 H 0.936000 1.025000 0.110000
C68 C 0.906520 0.015400 0.501460
H69 H 0.956400 0.121400 0.497700
N70 N 0.894880 -0.188200 0.570910
O71 O 0.964360 -0.230000 0.630270
H72 H 0.947000 -0.357000 0.688000
C73 C 0.289880 0.985000 0.857130
C74 C 0.271260 0.776800 0.778160
H75 H 0.310100 0.732000 0.727300
C76 C 0.196010 0.634600 0.773710
C77 C 0.138920 0.704800 0.848560
H78 H 0.087500 0.609700 0.845700
C79 C 0.156750 0.912700 0.927090
C80 C 0.232900 1.052400 0.931300
H81 H 0.245500 1.193100 0.984900
C82 C 0.366880 1.150600 0.863790
H83 H 0.375800 1.284800 0.920300
N84 N 0.422330 1.122900 0.797310
O85 O 0.487560 1.313100 0.822950
H86 H 0.523000 1.264000 0.768000
C87 C 0.179780 0.414900 0.690320
H88 H 0.220100 0.376700 0.640800
N89 N 0.112370 0.273400 0.682770
O90 O 0.110960 0.071800 0.598400
H91 H 0.064000 -0.025000 0.610000
C92 C 0.093480 0.984600 1.001460
H93 H 0.043600 0.878600 0.997700
N94 N 0.105120 1.188200 1.070910
O95 O 0.035640 1.230000 1.130270
H96 H 0.053000 1.357000 1.188000

#END
