./ADOLIP_from_xyz.cif_generated_by_CrystalShift
_symmetry_cell_setting triclinic
_symmetry_space_group_name_H-M 'P 1'
loop_
_symmetry_equiv_pos_site_id
_symmetry_equiv_pos_as_xyz
1 x,y,z
_cell_length_a 4.229000
_cell_length_b 14.112000
_cell_length_c 23.312000
_cell_angle_alpha 90.000000
_cell_angle_beta 90.000000
_cell_angle_gamma 90.000000
_cell_volume 1391.251954
loop_
_atom_site_label
_atom_site_type_symbol
_atom_site_fract_x
_atom_site_fract_y
_atom_site_fract_z
I1 I -0.054740 0.813980 0.646706
I2 I -0.674550 0.559730 0.822490
F3 F -0.389100 0.722600 0.900780
F4 F -0.446500 0.646400 0.705490
F5 F 0.138000 0.912100 0.764970
C6 C 0.268500 1.007700 0.936500
C7 C 0.180000 0.982600 0.992000
H8 H 0.062900 0.926200 0.998400
C9 C 0.262300 1.039400 1.037200
H10 H 0.192800 1.021000 1.074400
N11 N 0.433600 1.119200 1.033000
C12 C 0.526000 1.141200 0.980200
H13 H 0.652900 1.196100 0.975400
C14 C 0.450000 1.089200 0.931800
H15 H 0.521600 1.109500 0.895200
C16 C 0.179000 0.953200 0.884400
H17 H 0.268500 0.972000 0.848800
C18 C -0.016600 0.880400 0.884400
H19 H -0.099700 0.863200 0.920800
C20 C -0.125300 0.821500 0.835100
C21 C -0.315100 0.743300 0.845800
C22 C -0.426100 0.682900 0.803400
C23 C -0.343600 0.705000 0.747500
C24 C -0.157800 0.782500 0.732600
C25 C -0.052300 0.837800 0.777400
I26 I 0.554740 0.186020 0.146706
I27 I 1.174550 0.440270 0.322490
F28 F 0.889100 0.277400 0.400780
F29 F 0.946500 0.353600 0.205490
F30 F 0.362000 0.087900 0.264970
C31 C 0.231500 -0.007700 0.436500
C32 C 0.320000 0.017400 0.492000
H33 H 0.437100 0.073800 0.498400
C34 C 0.237700 -0.039400 0.537200
H35 H 0.307200 -0.021000 0.574400
N36 N 0.066400 -0.119200 0.533000
C37 C -0.026000 -0.141200 0.480200
H38 H -0.152900 -0.196100 0.475400
C39 C 0.050000 -0.089200 0.431800
H40 H -0.021600 -0.109500 0.395200
C41 C 0.321000 0.046800 0.384400
H42 H 0.231500 0.028000 0.348800
C43 C 0.516600 0.119600 0.384400
H44 H 0.599700 0.136800 0.420800
C45 C 0.625300 0.178500 0.335100
C46 C 0.815100 0.256700 0.345800
C47 C 0.926100 0.317100 0.303400
C48 C 0.843600 0.295000 0.247500
C49 C 0.657800 0.217500 0.232600
C50 C 0.552300 0.162200 0.277400
I51 I 1.054740 0.313980 0.853294
I52 I 1.674550 0.059730 0.677510
F53 F 1.389100 0.222600 0.599220
F54 F 1.446500 0.146400 0.794510
F55 F 0.862000 0.412100 0.735030
C56 C 0.731500 0.507700 0.563500
C57 C 0.820000 0.482600 0.508000
H58 H 0.937100 0.426200 0.501600
C59 C 0.737700 0.539400 0.462800
H60 H 0.807200 0.521000 0.425600
N61 N 0.566400 0.619200 0.467000
C62 C 0.474000 0.641200 0.519800
H63 H 0.347100 0.696100 0.524600
C64 C 0.550000 0.589200 0.568200
H65 H 0.478400 0.609500 0.604800
C66 C 0.821000 0.453200 0.615600
H67 H 0.731500 0.472000 0.651200
C68 C 1.016600 0.380400 0.615600
H69 H 1.099700 0.363200 0.579200
C70 C 1.125300 0.321500 0.664900
C71 C 1.315100 0.243300 0.654200
C72 C 1.426100 0.182900 0.696600
C73 C 1.343600 0.205000 0.752500
C74 C 1.157800 0.282500 0.767400
C75 C 1.052300 0.337800 0.722600
I76 I 0.445260 0.686020 0.353294
I77 I -0.174550 0.940270 0.177510
F78 F 0.110900 0.777400 0.099220
F79 F 0.053500 0.853600 0.294510
F80 F 0.638000 0.587900 0.235030
C81 C 0.768500 0.492300 0.063500
C82 C 0.680000 0.517400 0.008000
H83 H 0.562900 0.573800 0.001600
C84 C 0.762300 0.460600 -0.037200
H85 H 0.692800 0.479000 -0.074400
N86 N 0.933600 0.380800 -0.033000
C87 C 1.026000 0.358800 0.019800
H88 H 1.152900 0.303900 0.024600
C89 C 0.950000 0.410800 0.068200
H90 H 1.021600 0.390500 0.104800
C91 C 0.679000 0.546800 0.115600
H92 H 0.768500 0.528000 0.151200
C93 C 0.483400 0.619600 0.115600
H94 H 0.400300 0.636800 0.079200
C95 C 0.374700 0.678500 0.164900
C96 C 0.184900 0.756700 0.154200
C97 C 0.073900 0.817100 0.196600
C98 C 0.156400 0.795000 0.252500
C99 C 0.342200 0.717500 0.267400
C100 C 0.447700 0.662200 0.222600

#END
