./ACSALA01_from_POSCAR.cif_generated_by_CrystalShift
_symmetry_cell_setting triclinic
_symmetry_space_group_name_H-M 'P 1'
loop_
_symmetry_equiv_pos_site_id
_symmetry_equiv_pos_as_xyz
1 x,y,z
_cell_length_a 11.430000
_cell_length_b 6.591000
_cell_length_c 11.395000
_cell_angle_alpha 90.000000
_cell_angle_beta 95.680000
_cell_angle_gamma 90.000000
_cell_volume 854.229000
loop_
_atom_site_label
_atom_site_type_symbol
_atom_site_fract_x
_atom_site_fract_y
_atom_site_fract_z
H1 H 0.073700 0.513700 0.437400
H2 H 0.578000 0.261100 1.226600
H3 H 0.673500 0.111700 1.213900
H4 H 0.544000 0.059000 1.160000
H5 H 0.947200 0.500500 0.801000
H6 H 0.860000 0.811700 0.744600
H7 H 0.707400 0.934900 0.844800
H8 H 0.638400 0.744100 1.000900
H9 H 0.926300 0.486300 0.562600
H10 H 0.422000 0.761100 0.273400
H11 H 0.326500 0.611700 0.286100
H12 H 0.456000 0.559000 0.340000
H13 H 0.052800 1.000500 0.699000
H14 H 0.361600 0.255900 -0.000900
H15 H 0.292600 0.065100 0.155200
H16 H 0.140000 0.188300 0.255400
H17 H 0.052800 0.499500 0.199000
H18 H 0.456000 0.941000 -0.160000
H19 H 0.326500 0.888300 -0.213900
H20 H 0.422000 0.738900 -0.226600
H21 H 0.073700 0.986300 -0.062600
H22 H 0.578000 0.238900 0.726600
H23 H 0.673500 0.388300 0.713900
H24 H 0.544000 0.441000 0.660000
H25 H 0.947200 -0.000500 0.301000
H26 H 0.860000 -0.311700 0.244600
H27 H 0.707400 -0.434900 0.344800
H28 H 0.638400 -0.244100 0.500900
H29 H 0.361600 1.244100 0.499100
H30 H 0.292600 1.434900 0.655200
H31 H 0.140000 1.311700 0.755400
H32 H 0.926300 0.013700 1.062600
C33 C 0.634100 0.238400 0.563700
C34 C 0.397400 0.662200 0.327200
C35 C 0.909700 0.257300 0.462400
C36 C 0.883500 -0.050400 0.340200
C37 C 0.830400 -0.232400 0.306900
C38 C 0.739600 -0.303900 0.366200
C39 C 0.701700 -0.195300 0.458400
C40 C 0.753800 -0.012300 0.490500
C41 C 0.846600 0.064000 0.432600
C42 C 0.397400 0.837800 -0.172800
C43 C 0.846600 0.436000 0.932600
C44 C 0.753800 0.512300 0.990500
C45 C 0.701700 0.695300 0.958400
C46 C 0.739600 0.803900 0.866200
C47 C 0.830400 0.732400 0.806900
C48 C 0.883500 0.550400 0.840200
C49 C 0.909700 0.242700 0.962400
C50 C 0.634100 0.261600 1.063700
C51 C 0.602600 0.162200 1.172800
C52 C 0.365900 0.761600 0.436300
C53 C 0.090300 0.742700 0.537600
C54 C 0.116500 1.050400 0.659800
C55 C 0.169600 1.232400 0.693100
C56 C 0.365900 0.738400 -0.063700
C57 C 0.090300 0.757300 0.037600
C58 C 0.116500 0.449600 0.159800
C59 C 0.169600 0.267600 0.193100
C60 C 0.260400 0.196100 0.133800
C61 C 0.298300 0.304700 0.041600
C62 C 0.246200 0.487700 0.009500
C63 C 0.602600 0.337800 0.672800
C64 C 0.153400 0.936000 0.567400
C65 C 0.246200 1.012300 0.509500
C66 C 0.298300 1.195300 0.541600
C67 C 0.260400 1.303900 0.633800
C68 C 0.153400 0.564000 0.067400
O69 O 0.714300 0.412200 1.088000
O70 O 0.989600 0.188200 0.903500
O71 O 0.879700 0.139700 1.050800
O72 O 0.596400 0.280100 0.465500
O73 O 0.120300 0.639700 0.449200
O74 O 0.010400 0.688200 0.596500
O75 O 0.285700 0.912200 0.412000
O76 O 0.403600 0.719900 0.534500
O77 O 0.714300 0.087800 0.588000
O78 O 0.989600 0.311800 0.403500
O79 O 0.879700 0.360300 0.550800
O80 O 0.403600 0.780100 0.034500
O81 O 0.285700 0.587800 -0.088000
O82 O 0.010400 0.811800 0.096500
O83 O 0.120300 0.860300 -0.050800
O84 O 0.596400 0.219900 0.965500

#END
