./ACUDAD_from_POSCAR.cif_generated_by_CrystalShift
_symmetry_cell_setting triclinic
_symmetry_space_group_name_H-M 'P 1'
loop_
_symmetry_equiv_pos_site_id
_symmetry_equiv_pos_as_xyz
1 x,y,z
_cell_length_a 11.442400
_cell_length_b 11.972000
_cell_length_c 13.962000
_cell_angle_alpha 106.838000
_cell_angle_beta 92.871000
_cell_angle_gamma 100.803000
_cell_volume 1787.072752
loop_
_atom_site_label
_atom_site_type_symbol
_atom_site_fract_x
_atom_site_fract_y
_atom_site_fract_z
H1 H 1.020600 0.051300 -0.092200
H2 H 1.235700 0.922200 1.457900
H3 H 1.085100 0.881400 1.312800
H4 H 0.251600 0.365300 -0.302800
H5 H 0.341800 0.354300 -0.218700
H6 H 1.208800 1.409600 1.224600
H7 H 0.178700 0.322400 -0.120900
H8 H 0.091800 0.331500 -0.207900
H9 H 0.994400 1.361600 1.247600
H10 H 0.944100 1.143500 1.225700
H11 H 0.117100 0.602600 -0.088800
H12 H 1.353200 0.934000 1.157300
H13 H 1.416000 0.907600 0.985900
H14 H -0.055300 0.221400 0.017300
H15 H 0.078800 0.241300 -0.005700
H16 H 1.271500 0.980800 0.894800
H17 H 0.034100 0.048400 -0.204300
H18 H 0.020600 0.051300 -0.092200
H19 H 0.979400 0.948700 1.092200
H20 H 0.965900 0.951600 1.204300
H21 H 0.416700 0.275100 -0.372000
H22 H 0.921200 0.758700 1.005700
H23 H 0.582000 0.270800 -0.479800
H24 H 1.055300 0.778600 0.982700
H25 H 0.675200 0.481500 -0.458800
H26 H 0.882900 0.397400 1.088800
H27 H 0.166000 0.507600 -0.343500
H28 H 0.658200 0.645700 1.218700
H29 H 0.147100 0.691700 -0.383500
H30 H 0.748400 0.634700 1.302800
H31 H 0.343100 0.831800 -0.326000
H32 H 0.605100 0.297700 1.082300
H33 H 0.675500 0.580800 -0.014100
H34 H 0.446000 0.268900 0.945500
H35 H 0.554000 0.731100 0.054500
H36 H 0.324500 0.419200 1.014100
H37 H 0.394900 0.702300 -0.082300
H38 H 0.656900 0.168200 1.326000
H39 H -0.271500 0.019200 0.105200
H40 H 0.852900 0.308300 1.383500
H41 H -0.416000 0.092400 0.014100
H42 H 0.834000 0.492400 1.343500
H43 H -0.353200 0.066000 -0.157300
H44 H 0.324800 0.518500 1.458800
H45 H 0.055900 -0.143500 -0.225700
H46 H 0.418000 0.729200 1.479800
H47 H 0.005600 -0.361600 -0.247600
H48 H 0.583300 0.724900 1.372000
H49 H -0.208800 -0.409600 -0.224600
H50 H 0.908200 0.668500 1.207900
H51 H -0.085100 0.118600 -0.312800
H52 H 0.821300 0.677600 1.120900
H53 H -0.235700 0.077800 -0.457900
H54 H 0.604200 -0.087300 0.552100
H55 H -0.395800 -0.087300 -0.447900
H56 H 0.764300 0.077800 0.542100
H57 H 0.914900 0.118600 0.687200
H58 H 0.791200 -0.409600 0.775400
H59 H 1.005600 -0.361600 0.752400
H60 H 1.055900 -0.143500 0.774300
H61 H 0.646800 0.066000 0.842700
H62 H 0.584000 0.092400 1.014100
H63 H 0.728500 0.019200 1.105200
H64 H 1.394900 0.702300 0.917700
H65 H 1.554000 0.731100 1.054500
H66 H 1.675500 0.580800 0.985900
H67 H 1.343100 0.831800 0.674000
H68 H 0.214800 0.666200 0.148300
H69 H 0.300400 0.609300 0.202000
H70 H 1.147100 0.691700 0.616500
H71 H 1.166000 0.507600 0.656500
H72 H 1.675200 0.481500 0.541200
H73 H -0.178700 0.677600 0.120900
H74 H -0.091800 0.668500 0.207900
H75 H 0.301400 0.746000 0.244100
H76 H 1.582000 0.270800 0.520200
H77 H 1.416700 0.275100 0.628000
H78 H 1.020600 0.051300 0.907800
H79 H 1.034100 0.048400 0.795700
H80 H -0.416700 0.724900 0.372000
H81 H 1.078800 0.241300 0.994300
H82 H -0.582000 0.729200 0.479800
H83 H 0.944700 0.221400 1.017300
H84 H -0.675200 0.518500 0.458800
H85 H 1.117100 0.602600 0.911200
H86 H 1.091800 0.331500 0.792100
H87 H 1.178700 0.322400 0.879100
H88 H -0.166000 0.492400 0.343500
H89 H 1.341800 0.354300 0.781300
H90 H -0.147100 0.308300 0.383500
H91 H 1.251600 0.365300 0.697200
H92 H -0.343100 0.168200 0.326000
H93 H 1.020900 0.872300 0.576000
H94 H 1.395800 1.087300 0.447900
H95 H 1.235700 0.922200 0.457900
H96 H 1.085100 0.881400 0.312800
H97 H 1.208800 1.409600 0.224600
H98 H -0.675500 0.419200 0.014100
H99 H 0.994400 1.361600 0.247600
H100 H -0.554000 0.268900 -0.054500
H101 H -0.394900 0.297700 0.082300
H102 H -0.251600 0.634700 0.302800
H103 H -0.341800 0.645700 0.218700
H104 H 0.944100 1.143500 0.225700
H105 H -0.117100 0.397400 0.088800
H106 H 1.353200 0.934000 0.157300
H107 H 0.055300 0.778600 -0.017300
H108 H -0.078800 0.758700 0.005700
H109 H 1.416000 0.907600 -0.014100
H110 H 1.271500 0.980800 -0.105200
H111 H -0.034100 0.951600 0.204300
H112 H -0.020600 0.948700 0.092200
H113 H 0.979400 0.948700 0.092200
H114 H 0.965900 0.951600 0.204300
H115 H 0.954800 0.885700 0.480100
H116 H 0.921200 0.758700 0.005700
H117 H 1.055300 0.778600 -0.017300
H118 H 0.271500 0.980800 -0.105200
H119 H 0.882900 0.397400 0.088800
H120 H 0.416000 0.907600 -0.014100
H121 H 0.353200 0.934000 0.157300
H122 H 0.658200 0.645700 0.218700
H123 H 0.748400 0.634700 0.302800
H124 H -0.055900 1.143500 0.225700
H125 H 0.605100 0.297700 0.082300
H126 H -0.005600 1.361600 0.247600
H127 H 0.446000 0.268900 -0.054500
H128 H 0.208800 1.409600 0.224600
H129 H 0.324500 0.419200 0.014100
H130 H 0.656900 0.168200 0.326000
H131 H 0.852900 0.308300 0.383500
H132 H 0.085100 0.881400 0.312800
H133 H 0.834000 0.492400 0.343500
H134 H 0.235700 0.922200 0.457900
H135 H 0.324800 0.518500 0.458800
H136 H 0.395800 1.087300 0.447900
H137 H 0.418000 0.729200 0.479800
H138 H 0.583300 0.724900 0.372000
H139 H 1.032500 0.788700 0.468900
H140 H 0.908200 0.668500 0.207900
H141 H 0.821300 0.677600 0.120900
H142 H 0.785200 0.333800 0.851700
H143 H 0.604200 -0.087300 -0.447900
H144 H 0.764300 0.077800 -0.457900
H145 H 0.699600 0.390700 0.798000
H146 H 0.914900 0.118600 -0.312800
H147 H 0.791200 -0.409600 -0.224600
H148 H 0.251600 0.365300 0.697200
H149 H 0.341800 0.354300 0.781300
H150 H 1.005600 -0.361600 -0.247600
H151 H 0.178700 0.322400 0.879100
H152 H 0.091800 0.331500 0.792100
H153 H 1.055900 -0.143500 -0.225700
H154 H 0.646800 0.066000 -0.157300
H155 H 0.117100 0.602600 0.911200
H156 H 0.584000 0.092400 0.014100
H157 H 0.728500 0.019200 0.105200
H158 H -0.055300 0.221400 1.017300
H159 H 0.078800 0.241300 0.994300
H160 H 1.394900 0.702300 -0.082300
H161 H 0.034100 0.048400 0.795700
H162 H 0.020600 0.051300 0.907800
H163 H 1.554000 0.731100 0.054500
H164 H 1.675500 0.580800 -0.014100
H165 H 0.416700 0.275100 0.628000
H166 H 1.343100 0.831800 -0.326000
H167 H 0.582000 0.270800 0.520200
H168 H 1.147100 0.691700 -0.383500
H169 H 0.675200 0.481500 0.541200
H170 H 1.166000 0.507600 -0.343500
H171 H 0.166000 0.507600 0.656500
H172 H 1.675200 0.481500 -0.458800
H173 H 0.147100 0.691700 0.616500
H174 H 1.582000 0.270800 -0.479800
H175 H 0.343100 0.831800 0.674000
H176 H 1.416700 0.275100 -0.372000
H177 H 0.675500 0.580800 0.985900
H178 H 1.034100 0.048400 -0.204300
H179 H 0.554000 0.731100 1.054500
H180 H 1.078800 0.241300 -0.005700
H181 H 0.394900 0.702300 0.917700
H182 H 0.944700 0.221400 0.017300
H183 H -0.271500 0.019200 1.105200
H184 H 1.117100 0.602600 -0.088800
H185 H -0.416000 0.092400 1.014100
H186 H 1.091800 0.331500 -0.207900
H187 H -0.353200 0.066000 0.842700
H188 H 1.178700 0.322400 -0.120900
H189 H 0.055900 -0.143500 0.774300
H190 H 1.341800 0.354300 -0.218700
H191 H 0.005600 -0.361600 0.752400
H192 H 1.251600 0.365300 -0.302800
H193 H -0.208800 -0.409600 0.775400
H194 H -0.020900 0.127700 0.424000
H195 H -0.085100 0.118600 0.687200
H196 H 0.045200 0.114300 0.519900
H197 H -0.235700 0.077800 0.542100
H198 H -0.032500 0.211300 0.531100
H199 H -0.395800 -0.087300 0.552100
H200 H 0.395800 1.087300 1.447900
H201 H 0.235700 0.922200 1.457900
H202 H 0.085100 0.881400 1.312800
H203 H 0.208800 1.409600 1.224600
H204 H -0.005600 1.361600 1.247600
H205 H -0.055900 1.143500 1.225700
H206 H 0.353200 0.934000 1.157300
H207 H 0.416000 0.907600 0.985900
H208 H 0.271500 0.980800 0.894800
H209 H -0.020600 0.948700 1.092200
H210 H -0.034100 0.951600 1.204300
H211 H -0.078800 0.758700 1.005700
H212 H 0.698600 0.254000 0.755900
H213 H 0.055300 0.778600 0.982700
H214 H -0.117100 0.397400 1.088800
H215 H -0.341800 0.645700 1.218700
H216 H -0.251600 0.634700 1.302800
H217 H -0.178700 0.677600 1.120900
H218 H -0.091800 0.668500 1.207900
H219 H -0.394900 0.297700 1.082300
H220 H -0.554000 0.268900 0.945500
H221 H -0.675500 0.419200 1.014100
H222 H -0.343100 0.168200 1.326000
H223 H -0.147100 0.308300 1.383500
H224 H -0.416700 0.724900 1.372000
H225 H -0.166000 0.492400 1.343500
H226 H -0.582000 0.729200 1.479800
H227 H -0.675200 0.518500 1.458800
H228 H 1.395800 1.087300 1.447900
B229 B 0.271600 0.071400 0.696200
B230 B 0.728400 0.928600 0.303800
C231 C -0.225200 0.423500 1.330900
C232 C -0.559200 0.662000 1.439300
C233 C -0.214500 0.322600 1.352900
C234 C -0.468500 0.659400 1.380200
C235 C -0.325100 0.245000 1.320500
C236 C 1.238200 0.961100 1.409000
C237 C 0.303000 0.409300 -0.240900
C238 C 1.155800 0.939100 1.329400
C239 C -0.456100 0.339400 1.085000
C240 C -0.542200 0.323900 1.009500
C241 C -0.609400 0.409100 1.049600
C242 C -0.396700 0.490800 1.257900
C243 C 0.143100 0.377200 -0.146300
C244 C -0.303000 0.590700 1.240900
C245 C 0.842100 0.357600 0.722700
C246 C -0.143100 0.622800 1.146300
C247 C -0.070700 0.559400 1.069440
C248 C -0.069500 0.439100 1.053110
C249 C 0.000300 0.620900 1.014330
C250 C 0.000700 0.750400 1.025700
C251 C 0.748000 0.331700 0.787900
C252 C 1.165800 1.333900 1.220300
C253 C 0.070700 0.440600 -0.069440
C254 C 0.017900 0.937700 1.151200
C255 C 1.045600 1.308400 1.233400
C256 C 0.069500 0.560900 -0.053110
C257 C 0.139300 1.026700 1.185540
C258 C 1.018100 1.188400 1.221100
C259 C 0.316600 0.953600 1.105200
C260 C 0.351300 0.938700 1.011100
C261 C 0.269100 0.979800 0.961000
C262 C -0.000300 0.379100 -0.014330
C263 C -0.000700 0.249600 -0.025700
C264 C -0.017900 0.062300 -0.151200
C265 C 1.269100 0.979800 0.961000
C266 C 1.351300 0.938700 1.011100
C267 C 0.018100 1.188400 1.221100
C268 C 1.316600 0.953600 1.105200
C269 C 0.045600 1.308400 1.233400
C270 C 1.139300 1.026700 1.185540
C271 C 0.165800 1.333900 1.220300
C272 C -0.139300 -0.026700 -0.185540
C273 C 0.468500 0.340600 -0.380200
C274 C 1.017900 0.937700 1.151200
C275 C 0.155800 0.939100 1.329400
C276 C 0.559200 0.338000 -0.439300
C277 C 0.238200 0.961100 1.409000
C278 C 0.610600 0.456700 -0.426600
C279 C 0.327200 1.053700 1.402500
C280 C 1.000700 0.750400 1.025700
C281 C 0.225200 0.576500 -0.330900
C282 C -0.327200 -0.053700 0.597500
C283 C 0.930500 0.439100 1.053110
C284 C 0.214500 0.677400 -0.352900
C285 C -0.238200 0.038900 0.591000
C286 C -0.155800 0.060900 0.670600
C287 C 0.325100 0.755000 -0.320500
C288 C 0.609400 0.590900 -0.049600
C289 C 0.020200 0.170000 0.489900
C290 C 1.396700 0.509200 -0.257900
C291 C 1.303000 0.409300 -0.240900
C292 C -0.165800 -0.333900 0.779700
C293 C -0.045600 -0.308400 0.766600
C294 C 1.143100 0.377200 -0.146300
C295 C -0.018100 -0.188400 0.778900
C296 C -0.316600 0.046400 0.894800
C297 C 1.070700 0.440600 -0.069440
C298 C 1.069500 0.560900 -0.053110
C299 C -0.351300 0.061300 0.988900
C300 C 0.999700 0.379100 -0.014330
C301 C 0.999300 0.249600 -0.025700
C302 C -0.269100 0.020200 1.039000
C303 C 0.456100 0.660600 0.915000
C304 C 0.982100 0.062300 -0.151200
C305 C 0.542200 0.676100 0.990500
C306 C 0.542200 0.676100 -0.009500
C307 C 0.860700 -0.026700 -0.185540
C308 C 1.468500 0.340600 -0.380200
C309 C 0.609400 0.590900 0.950400
C310 C 1.559200 0.338000 -0.439300
C311 C 0.325100 0.755000 0.679500
C312 C 1.610600 0.456700 -0.426600
C313 C 0.214500 0.677400 0.647100
C314 C 1.225200 0.576500 -0.330900
C315 C 0.225200 0.576500 0.669100
C316 C 1.214500 0.677400 -0.352900
C317 C 0.610600 0.456700 0.573400
C318 C 1.325100 0.755000 -0.320500
C319 C 0.559200 0.338000 0.560700
C320 C 1.609400 0.590900 -0.049600
C321 C 0.468500 0.340600 0.619800
C322 C 1.542200 0.676100 -0.009500
C323 C -0.139300 -0.026700 0.814460
C324 C 1.456100 0.660600 -0.085000
C325 C -0.017900 0.062300 0.848800
C326 C 0.730900 0.020200 0.039000
C327 C -0.000700 0.249600 0.974300
C328 C 0.648700 0.061300 -0.011100
C329 C -0.000300 0.379100 0.985670
C330 C 0.683400 0.046400 -0.105200
C331 C 0.396700 0.509200 -0.257900
C332 C 0.981900 -0.188400 -0.221100
C333 C 0.070700 0.440600 0.930560
C334 C 0.954400 -0.308400 -0.233400
C335 C 0.143100 0.377200 0.853700
C336 C 0.834200 -0.333900 -0.220300
C337 C 0.303000 0.409300 0.759100
C338 C 0.844200 0.060900 -0.329400
C339 C 0.396700 0.509200 0.742100
C340 C 0.761800 0.038900 -0.409000
C341 C 0.456100 0.660600 -0.085000
C342 C 0.672800 -0.053700 -0.402500
C343 C 0.390600 0.409100 1.049600
C344 C 0.457800 0.323900 1.009500
C345 C 0.543900 0.339400 1.085000
C346 C -0.269100 0.020200 0.039000
C347 C 0.674900 0.245000 1.320500
C348 C -0.351300 0.061300 -0.011100
C349 C 0.785500 0.322600 1.352900
C350 C -0.316600 0.046400 -0.105200
C351 C 0.774800 0.423500 1.330900
C352 C -0.018100 -0.188400 -0.221100
C353 C 0.389400 0.543300 1.426600
C354 C -0.045600 -0.308400 -0.233400
C355 C 0.440800 0.662000 1.439300
C356 C 0.123200 0.254600 0.482000
C357 C -0.165800 -0.333900 -0.220300
C358 C 1.000300 0.620900 0.014330
C359 C 0.929300 0.559400 0.069440
C360 C 0.856900 0.622800 0.146300
C361 C 0.531500 0.659400 1.380200
C362 C 0.603300 0.490800 1.257900
C363 C 0.697000 0.590700 1.240900
C364 C 0.697000 0.590700 0.240900
C365 C 0.603300 0.490800 0.257900
C366 C -0.155800 0.060900 -0.329400
C367 C 0.531500 0.659400 0.380200
C368 C 0.157900 0.642400 0.277300
C369 C 0.440800 0.662000 0.439300
C370 C -0.238200 0.038900 -0.409000
C371 C 0.389400 0.543300 0.426600
C372 C 0.327200 1.053700 0.402500
C373 C 0.856900 0.622800 1.146300
C374 C 0.929300 0.559400 1.069440
C375 C 0.774800 0.423500 0.330900
C376 C 0.238200 0.961100 0.409000
C377 C 0.785500 0.322600 0.352900
C378 C 0.155800 0.939100 0.329400
C379 C 0.674900 0.245000 0.320500
C380 C 1.000300 0.620900 1.014330
C381 C 1.327200 1.053700 1.402500
C382 C -0.327200 -0.053700 -0.402500
C383 C 0.543900 0.339400 0.085000
C384 C 0.457800 0.323900 0.009500
C385 C 0.390600 0.409100 0.049600
C386 C 0.672800 -0.053700 0.597500
C387 C 0.761800 0.038900 0.591000
C388 C 0.165800 1.333900 0.220300
C389 C 0.045600 1.308400 0.233400
C390 C 0.018100 1.188400 0.221100
C391 C 0.844200 0.060900 0.670600
C392 C 0.930500 0.439100 0.053110
C393 C 0.834200 -0.333900 0.779700
C394 C 1.000700 0.750400 0.025700
C395 C 0.269100 0.979800 -0.039000
C396 C 0.351300 0.938700 0.011100
C397 C 0.316600 0.953600 0.105200
C398 C 1.017900 0.937700 0.151200
C399 C 0.954400 -0.308400 0.766600
C400 C 0.139300 1.026700 0.185540
C401 C 1.139300 1.026700 0.185540
C402 C 0.981900 -0.188400 0.778900
C403 C 1.316600 0.953600 0.105200
C404 C 1.351300 0.938700 0.011100
C405 C 1.269100 0.979800 -0.039000
C406 C 0.017900 0.937700 0.151200
C407 C 0.683400 0.046400 0.894800
C408 C 0.252000 0.668300 0.212100
C409 C 0.000700 0.750400 0.025700
C410 C 0.648700 0.061300 0.988900
C411 C 1.018100 1.188400 0.221100
C412 C -0.069500 0.439100 0.053110
C413 C 1.045600 1.308400 0.233400
C414 C 0.730900 0.020200 1.039000
C415 C 1.165800 1.333900 0.220300
C416 C -0.609400 0.409100 0.049600
C417 C 1.456100 0.660600 0.915000
C418 C 1.542200 0.676100 0.990500
C419 C 1.155800 0.939100 0.329400
C420 C -0.542200 0.323900 0.009500
C421 C 1.238200 0.961100 0.409000
C422 C -0.456100 0.339400 0.085000
C423 C 1.327200 1.053700 0.402500
C424 C 1.609400 0.590900 0.950400
C425 C 1.325100 0.755000 0.679500
C426 C 0.000300 0.620900 0.014330
C427 C 1.214500 0.677400 0.647100
C428 C -0.070700 0.559400 0.069440
C429 C 0.979800 0.830000 0.510100
C430 C 0.876800 0.745400 0.518000
C431 C 1.225200 0.576500 0.669100
C432 C -0.143100 0.622800 0.146300
C433 C 0.069500 0.560900 0.946890
C434 C 1.396700 0.509200 0.742100
C435 C 1.303000 0.409300 0.759100
C436 C -0.325100 0.245000 0.320500
C437 C -0.214500 0.322600 0.352900
C438 C 1.143100 0.377200 0.853700
C439 C -0.225200 0.423500 0.330900
C440 C 1.610600 0.456700 0.573400
C441 C 1.070700 0.440600 0.930560
C442 C 1.069500 0.560900 0.946890
C443 C -0.303000 0.590700 0.240900
C444 C 0.999700 0.379100 0.985670
C445 C 0.999300 0.249600 0.974300
C446 C -0.610600 0.543300 0.426600
C447 C -0.559200 0.662000 0.439300
C448 C 0.982100 0.062300 0.848800
C449 C -0.468500 0.659400 0.380200
C450 C 1.559200 0.338000 0.560700
C451 C 0.860700 -0.026700 0.814460
C452 C 1.468500 0.340600 0.619800
C453 C -0.396700 0.490800 0.257900
C454 C -0.610600 0.543300 1.426600
N455 N -0.556980 0.470300 0.363700
N456 N -0.338170 0.404940 0.287010
N457 N 0.302000 0.088300 0.323610
N458 N 0.212100 0.236870 0.200720
N459 N 1.698000 0.911700 -0.323610
N460 N 1.787900 0.763130 -0.200720
N461 N -0.401600 0.293900 0.280800
N462 N 1.302000 1.088300 0.323610
N463 N -0.195140 -0.016390 -0.278230
N464 N -0.475590 0.427110 0.165200
N465 N -0.302000 -0.088300 -0.323610
N466 N 1.195140 1.016390 0.278230
N467 N -0.119360 -0.147710 -0.201160
N468 N 1.212100 1.236870 0.200720
N469 N -0.212100 -0.236870 -0.200720
N470 N -0.569200 0.473700 0.143520
N471 N -0.186700 -0.017500 -0.018430
N472 N 1.119360 1.147710 0.201160
N473 N -0.218830 -0.002370 -0.108010
N474 N 1.186700 1.017500 0.018430
N475 N 0.569200 0.526300 -0.143520
N476 N 1.218830 1.002370 0.108010
N477 N 0.475590 0.572890 -0.165200
N478 N 0.218830 1.002370 0.108010
N479 N 0.338170 0.595060 -0.287010
N480 N 0.186700 1.017500 0.018430
N481 N 0.401600 0.706100 -0.280800
N482 N 0.119360 1.147710 0.201160
N483 N 0.468020 0.456810 -0.335540
N484 N 0.430800 0.473700 0.143520
N485 N 0.556980 0.529700 -0.363700
N486 N 0.212100 1.236870 0.200720
N487 N 0.524410 0.427110 0.165200
N488 N 1.556980 0.529700 0.636300
N489 N 1.468020 0.456810 0.664460
N490 N 1.401600 0.706100 0.719200
N491 N 1.338170 0.595060 0.712990
N492 N 1.475590 0.572890 0.834800
N493 N 1.569200 0.526300 0.856480
N494 N 0.781170 -0.002370 0.891990
N495 N 0.813300 -0.017500 0.981570
N496 N 0.787900 -0.236870 0.799280
N497 N 0.880640 -0.147710 0.798840
N498 N 0.698000 -0.088300 0.676390
N499 N 0.804860 -0.016390 0.721770
N500 N 0.598400 0.293900 0.280800
N501 N 0.302000 0.088300 1.323610
N502 N 0.195140 1.016390 0.278230
N503 N 0.661830 0.404940 0.287010
N504 N 0.443020 0.470300 0.363700
N505 N 0.302000 1.088300 0.323610
N506 N 0.531980 0.543190 0.335540
N507 N 0.212100 0.236870 1.200720
N508 N 0.787900 0.763130 -0.200720
N509 N 0.698000 0.911700 -0.323610
N510 N 0.531980 0.543190 1.335540
N511 N 0.910600 0.374400 0.671500
N512 N 0.797800 0.678700 0.524100
N513 N 0.804860 -0.016390 -0.278230
N514 N 0.698000 -0.088300 -0.323610
N515 N 0.880640 -0.147710 -0.201160
N516 N 0.787900 -0.236870 -0.200720
N517 N 0.443020 0.470300 1.363700
N518 N 0.661830 0.404940 1.287010
N519 N 0.813300 -0.017500 -0.018430
N520 N 0.781170 -0.002370 -0.108010
N521 N 1.569200 0.526300 -0.143520
N522 N 1.475590 0.572890 -0.165200
N523 N 1.338170 0.595060 -0.287010
N524 N 1.401600 0.706100 -0.280800
N525 N 0.598400 0.293900 1.280800
N526 N 0.524410 0.427110 1.165200
N527 N 1.468020 0.456810 -0.335540
N528 N 1.556980 0.529700 -0.363700
N529 N -0.787900 0.236870 0.200720
N530 N -0.698000 0.088300 0.323610
N531 N 0.430800 0.473700 1.143520
N532 N 0.089400 0.625600 0.328500
N533 N -0.698000 0.088300 1.323610
N534 N -0.787900 0.236870 1.200720
N535 N 0.698000 0.911700 0.676390
N536 N 0.787900 0.763130 0.799280
N537 N 0.302000 1.088300 1.323610
N538 N 0.556980 0.529700 0.636300
N539 N 0.468020 0.456810 0.664460
N540 N 0.401600 0.706100 0.719200
N541 N 1.698000 0.911700 0.676390
N542 N 0.195140 1.016390 1.278230
N543 N 0.212100 1.236870 1.200720
N544 N 0.338170 0.595060 0.712990
N545 N 0.475590 0.572890 0.834800
N546 N 1.218830 1.002370 1.108010
N547 N 0.569200 0.526300 0.856480
N548 N 0.119360 1.147710 1.201160
N549 N -0.218830 -0.002370 0.891990
N550 N -0.186700 -0.017500 0.981570
N551 N 1.186700 1.017500 1.018430
N552 N 0.186700 1.017500 1.018430
N553 N -0.212100 -0.236870 0.799280
N554 N 1.119360 1.147710 1.201160
N555 N 0.218830 1.002370 1.108010
N556 N -0.119360 -0.147710 0.798840
N557 N -0.302000 -0.088300 0.676390
N558 N 0.202200 0.321300 0.475900
N559 N -0.195140 -0.016390 0.721770
N560 N -0.569200 0.473700 1.143520
N561 N 1.212100 1.236870 1.200720
N562 N 1.195140 1.016390 1.278230
N563 N -0.475590 0.427110 1.165200
N564 N -0.401600 0.293900 1.280800
N565 N -0.468020 0.543190 1.335540
N566 N -0.338170 0.404940 1.287010
N567 N -0.556980 0.470300 1.363700
N568 N -0.468020 0.543190 0.335540
N569 N 1.302000 1.088300 1.323610
N570 N 1.787900 0.763130 0.799280
O571 O 0.764880 0.535830 0.166040
O572 O 1.037380 0.819450 1.128380
O573 O -0.037380 0.180550 -0.128380
O574 O -0.235120 0.535830 0.166040
O575 O 0.764880 0.535830 1.166040
O576 O 0.962620 0.180550 0.871620
O577 O 1.235120 0.464170 0.833960
O578 O 0.037380 0.819450 0.128380
O579 O 0.235120 0.464170 0.833960
O580 O -0.037380 0.180550 0.871620
O581 O -0.235120 0.535830 1.166040
O582 O 0.037380 0.819450 1.128380
O583 O 1.235120 0.464170 -0.166040
O584 O 0.962620 0.180550 -0.128380
O585 O 1.037380 0.819450 0.128380
O586 O 0.235120 0.464170 -0.166040
F587 F 0.204900 0.131600 0.653280
F588 F 0.359900 0.040900 0.638400
F589 F 0.313600 0.140800 0.791550
F590 F 0.686400 0.859200 0.208450
F591 F 0.199940 -0.031710 0.699560
F592 F 0.640100 0.959100 0.361600
F593 F 0.795100 0.868400 0.346720
F594 F 0.800060 1.031710 0.300440
Ag595 Ag 0.397190 1.257440 1.287570
Ag596 Ag -0.397190 -0.257440 0.712430
Ag597 Ag -0.602810 0.257440 1.287570
Ag598 Ag 1.602810 0.742560 -0.287570
Ag599 Ag 0.397190 0.257440 1.287570
Ag600 Ag 0.397190 0.257440 0.287570
Ag601 Ag 0.602810 -0.257440 -0.287570
Ag602 Ag 0.602810 0.742560 0.712430
Ag603 Ag 0.397190 1.257440 0.287570
Ag604 Ag -0.397190 -0.257440 -0.287570
Ag605 Ag -0.602810 0.257440 0.287570
Ag606 Ag 1.397190 1.257440 0.287570
Ag607 Ag 1.397190 1.257440 1.287570
Ag608 Ag 0.602810 -0.257440 0.712430
Ag609 Ag 1.602810 0.742560 0.712430
Ag610 Ag 0.602810 0.742560 -0.287570

#END
