./ACUDUX_from_POSCAR.cif_generated_by_CrystalShift
_symmetry_cell_setting triclinic
_symmetry_space_group_name_H-M 'P 1'
loop_
_symmetry_equiv_pos_site_id
_symmetry_equiv_pos_as_xyz
1 x,y,z
_cell_length_a 12.535600
_cell_length_b 12.535600
_cell_length_c 13.273000
_cell_angle_alpha 90.000000
_cell_angle_beta 90.000000
_cell_angle_gamma 120.000000
_cell_volume 1806.300398
loop_
_atom_site_label
_atom_site_type_symbol
_atom_site_fract_x
_atom_site_fract_y
_atom_site_fract_z
H1 H 0.535300 0.479100 0.861600
H2 H 0.592600 0.247500 0.626100
H3 H 0.220000 0.138000 0.627500
H4 H 0.106900 0.133000 0.458200
H5 H 1.050200 0.477100 0.973000
H6 H 0.114500 0.243900 0.397600
H7 H 1.111100 0.577600 0.817500
H8 H 0.055100 0.113000 0.348100
H9 H 1.029300 0.471700 0.670800
H10 H 0.371500 0.284800 0.816800
H11 H 0.892800 0.261300 0.676800
H12 H 0.406800 0.304200 0.371400
H13 H 0.324600 0.347200 0.427600
H14 H 0.652800 -0.022600 0.760900
H15 H 0.695800 0.102600 0.704700
H16 H 0.365400 -0.178900 1.087700
H17 H 0.368500 0.107200 0.343500
H18 H 0.887000 -0.057900 0.681400
H19 H 0.756100 -0.129400 0.730900
H20 H 0.867000 -0.026100 0.791500
H21 H 0.442400 -0.029300 0.337500
H22 H 0.282000 -0.322000 1.098900
H23 H 0.862000 0.082000 0.960800
H24 H 0.466500 -0.111100 0.484200
H25 H 0.426900 -0.050200 0.639700
H26 H 0.752500 0.345100 0.959400
H27 H 0.911400 0.726900 0.786100
H28 H 0.561600 0.317400 1.007800
H29 H 0.834500 0.685000 0.686200
H30 H 0.884800 0.604100 0.733300
H31 H 0.520900 0.056200 1.194900
H32 H 0.455700 0.634600 0.754300
H33 H 0.715200 0.086700 1.150100
H34 H 0.387900 -0.267200 1.018600
H35 H 0.396000 0.718000 0.765500
H36 H 0.273100 0.184500 1.119400
H37 H 0.315000 0.149500 1.019500
H38 H 0.395900 0.280700 1.066600
H39 H 0.344900 0.612100 0.685200
H40 H 0.761700 0.847300 0.409300
H41 H 0.911700 0.418100 1.159600
H42 H 0.664500 0.894300 0.532900
H43 H 1.055200 0.514200 1.280600
H44 H 0.485800 0.541000 0.613900
H45 H 0.581900 0.493600 0.492900
H46 H 1.229800 0.335500 1.199600
H47 H 0.719300 0.115200 0.399900
H48 H 1.085600 0.238300 1.076000
H49 H 0.850500 0.165500 0.352800
H50 H 0.815500 0.088600 0.452700
H51 H 1.267200 0.655100 1.351900
H52 H 1.322000 0.604000 1.432200
H53 H 1.178900 0.544300 1.421000
H54 H 0.506400 0.088300 0.826300
H55 H 0.152700 -0.085600 0.742700
H56 H 0.913300 0.628500 0.483400
H57 H 0.943800 0.464700 0.528200
H58 H 0.682600 0.244200 0.341100
H59 H 0.105700 -0.229800 0.866300
H60 H 0.654900 0.407400 0.292700
H61 H 0.918000 0.780000 0.294100
H62 H 0.459000 -0.055200 0.947300
H63 H 1.026100 0.893100 0.124800
H64 H 0.522900 0.573100 0.306300
H65 H 1.129400 0.885500 0.064200
H66 H 0.422400 0.533500 0.150800
H67 H 1.057900 0.944900 0.014700
H68 H 0.528300 0.557600 0.004100
H69 H 0.897400 0.593200 0.038000
H70 H 0.738700 0.631500 0.010100
H71 H 1.022600 0.675400 0.094200
H72 H 0.755800 0.438400 0.674500
C73 C 0.186700 -0.167100 0.857700
C74 C 0.694700 0.614500 0.070100
C75 C 0.278000 -0.163100 0.915900
C76 C 1.051100 0.881500 0.059300
C77 C 0.568600 0.574100 0.065800
C78 C 0.506000 0.559500 0.152900
C79 C 0.567100 0.583700 0.247200
C80 C 0.758300 0.643700 0.356600
C81 C 0.691500 0.622700 0.252400
C82 C 0.757800 0.630400 0.162100
C83 C 0.776900 0.534100 0.381000
C84 C 0.713900 0.421500 0.341400
C85 C 0.175200 -0.172900 0.375900
C86 C 0.731400 0.322000 0.369100
C87 C 1.172900 0.348100 0.709200
C88 C 0.817300 0.341300 0.434500
C89 C 0.397000 -0.062000 0.904700
C90 C 0.215900 -0.076400 0.785000
C91 C 0.866500 0.551900 0.453200
C92 C 1.232600 0.425000 0.888700
C93 C 1.084600 0.197800 0.858200
C94 C 0.805100 0.147900 0.414600
C95 C 1.255900 0.582300 1.385400
C96 C 0.326400 -0.255900 1.052100
C97 C 1.076400 0.292300 1.118300
C98 C 0.695400 0.669600 0.437100
C99 C 0.601200 0.575100 0.500800
C100 C 1.167100 0.353800 1.191000
C101 C 0.541000 0.603000 0.571300
C102 C 1.163100 0.441100 1.249200
C103 C 0.558900 0.722000 0.582500
C104 C 0.646200 0.813300 0.524300
C105 C 1.062000 0.459000 1.238000
C106 C 0.707700 0.784100 0.451600
C107 C 0.973900 0.398800 1.167500
C108 C 0.424900 0.026100 0.834200
C109 C 0.417700 0.673600 0.718700
C110 C 0.974200 0.304600 1.103800
C111 C 0.342800 0.194900 1.081300
C112 C 0.685400 0.133500 1.119900
C113 C 0.802200 0.886800 0.191500
C114 C 0.330400 0.025800 0.770500
C115 C 0.575000 0.807600 0.222000
C116 C 0.568000 0.114700 1.146600
C117 C 0.651900 0.824800 0.042500
C118 C 0.524000 0.182700 1.101200
C119 C 0.590600 0.268600 1.035800
C120 C 0.369600 0.127400 0.495500
C121 C 0.377300 0.068800 0.585800
C122 C 0.416300 -0.016600 0.580600
C123 C 0.707600 0.286100 1.008100
C124 C 0.440500 -0.053500 0.486300
C125 C 0.757200 0.223100 1.047700
C126 C 0.425900 -0.005500 0.399200
C127 C 0.885400 0.241700 1.023300
C128 C 0.385500 0.080200 0.403500
C129 C 0.830400 -0.051100 0.726000
C130 C 0.852100 0.657200 0.748000
C131 C 0.332000 0.276000 0.410400
C132 C 0.724000 0.056000 0.743700
C133 C 0.113200 -0.084600 0.524900
C134 C 0.919800 0.305300 0.736800
C135 C 0.118500 0.169600 0.392700
C136 C 1.005500 0.431400 0.732500
C137 C 1.053500 0.494000 0.819600
C138 C 1.016600 0.432900 0.913900
C139 C 0.356300 0.114600 0.690000
C140 C 0.448100 0.314600 0.786600
C141 C 0.931200 0.308500 0.919100
C142 C 0.465900 0.242800 0.714400
C143 C 0.578500 0.292400 0.674800
C144 C 0.872600 0.242200 0.828800
C145 C 0.678000 0.409400 0.702500
C146 C 0.944000 0.668000 0.077000
C147 C 0.658700 0.476000 0.767900
C148 C 0.546700 0.432000 0.813300
C149 C 0.885300 0.453300 0.479900
C150 C 0.192400 -0.232600 0.555400
O151 O 0.234400 0.197300 0.354800
O152 O 0.741700 0.591100 0.802200
O153 O 0.340000 0.217100 0.502300
O154 O 0.149400 -0.324600 0.599800
O155 O 0.654600 0.873200 -0.034300
O156 O 0.526000 0.850600 0.266400
O157 O 0.890000 0.976700 0.216800
O158 O 0.501500 0.757500 0.649900
O159 O 0.849400 0.258300 0.468800
O160 O 0.126800 -0.218600 0.299100
O161 O 0.877900 0.755500 0.353300
O162 O 0.962900 0.765600 0.021400
O163 O 0.877100 0.660000 0.168900
O164 O 1.218600 0.345400 0.632400
O165 O 1.324600 0.474000 0.933100
O166 O 1.086700 0.110000 0.883500
O167 O 0.242500 -0.256000 0.983300
O168 O 1.256000 0.498500 1.316600
O169 O 0.408900 0.150600 1.135500
O170 O 0.877600 0.122100 1.020000
O171 O 0.802700 0.037100 0.688100
O172 O 0.782900 0.122900 0.835600
O173 O 0.023300 -0.086700 0.550200
O174 O 0.244500 0.122400 0.686700
Cr175 Cr 0.660100 0.745900 0.154200
Cr176 Cr 1.085800 0.339900 0.820900
Cr177 Cr 0.254100 -0.085800 0.487600

#END
