./ACUKIS_from_POSCAR.cif_generated_by_CrystalShift
_symmetry_cell_setting triclinic
_symmetry_space_group_name_H-M 'P 1'
loop_
_symmetry_equiv_pos_site_id
_symmetry_equiv_pos_as_xyz
1 x,y,z
_cell_length_a 9.692000
_cell_length_b 67.570000
_cell_length_c 9.795000
_cell_angle_alpha 90.000000
_cell_angle_beta 119.630000
_cell_angle_gamma 90.000000
_cell_volume 5575.830469
loop_
_atom_site_label
_atom_site_type_symbol
_atom_site_fract_x
_atom_site_fract_y
_atom_site_fract_z
H1 H 0.224600 0.401900 0.389800
H2 H -0.226900 0.382300 0.218600
H3 H -0.259300 0.400300 0.390900
H4 H -0.058800 0.423500 0.559300
H5 H 0.209800 0.401100 0.843100
H6 H 0.181700 0.399800 1.060200
H7 H 0.181400 0.427600 1.193000
H8 H 0.247900 0.457400 1.121800
H9 H 0.305200 0.459400 0.930200
H10 H 0.036000 0.464400 0.608900
H11 H -0.055700 0.495500 0.497000
H12 H 0.068500 0.512800 0.393800
H13 H 0.278600 0.499700 0.380300
H14 H 0.372700 0.466900 0.490000
H15 H 0.773400 0.473900 0.795200
H16 H 0.696200 0.502300 0.658900
H17 H 0.570400 0.501600 0.382800
H18 H 0.539200 0.470800 0.257400
H19 H 0.624900 0.442200 0.399800
H20 H 0.868100 0.437200 0.760800
H21 H 0.739300 0.426800 0.610200
H22 H 0.950500 0.457200 1.228300
H23 H 0.815300 0.470800 1.108600
H24 H 0.776600 0.453400 1.187700
H25 H 0.571200 0.407400 0.935000
H26 H 0.632300 0.386300 0.933400
H27 H 0.848300 0.408900 0.976500
H28 H 0.852800 0.391300 0.751400
H29 H 0.587500 0.379800 0.573200
H30 H 0.405100 0.391800 0.670100
H31 H 0.486700 0.420600 0.555100
H32 H 0.224600 0.598100 -0.110200
H33 H 0.007900 0.618800 -0.289600
H34 H -0.226900 0.617700 -0.281400
H35 H -0.259300 0.599700 -0.109100
H36 H -0.058800 0.576500 0.059300
H37 H 0.209800 0.598900 0.343100
H38 H 0.651000 0.174600 0.063600
H39 H 0.842000 0.141800 0.169100
H40 H 0.566900 0.128800 0.077600
H41 H 0.480300 0.139600 0.255500
H42 H 0.699400 0.160000 0.471400
H43 H 0.871700 0.137700 0.435900
H44 H 0.930200 0.158900 0.431000
H45 H 0.981200 0.203900 0.688200
H46 H 0.863900 0.221000 0.597500
H47 H 0.842900 0.208700 0.719900
H48 H 0.453500 0.176500 0.124200
H49 H 0.489400 0.187700 0.276600
H50 H 0.580100 0.223700 0.300000
H51 H 0.528400 0.252400 0.156900
H52 H 0.394400 0.252500 -0.113600
H53 H 0.283800 0.223000 -0.238400
H54 H 0.365300 0.193100 -0.108400
H55 H 0.690400 0.218800 0.005000
H56 H 0.673300 0.248800 -0.111200
H57 H 0.888500 0.262200 -0.110800
H58 H 1.135100 0.245400 0.005900
H59 H 1.140800 0.213300 0.101600
H60 H 1.195800 0.210000 0.413800
H61 H 1.454300 0.207200 0.636000
H62 H 1.586800 0.177100 0.689000
H63 H 1.453800 0.148300 0.548200
H64 H 1.191000 0.150800 0.334600
H65 H 1.174100 0.172900 0.048000
H66 H 1.214200 0.154300 -0.121000
H67 H 1.011100 0.131800 -0.292800
H68 H 0.780200 0.130800 -0.275000
H69 H 0.745400 0.150900 -0.112500
H70 H 0.181700 0.600200 0.560200
H71 H 0.181400 0.572400 0.693000
H72 H 0.247900 0.542600 0.621800
H73 H 0.305200 0.540600 0.430200
H74 H 0.036000 0.535600 0.108900
H75 H -0.055700 0.504500 -0.003000
H76 H 0.068500 0.487200 -0.106200
H77 H 0.278600 0.500300 -0.119700
H78 H 0.372700 0.533100 -0.010000
H79 H 0.773400 0.526100 0.295200
H80 H 0.696200 0.497700 0.158900
H81 H 0.570400 0.498400 -0.117200
H82 H 0.539200 0.529200 -0.242600
H83 H 0.624900 0.557800 -0.100200
H84 H 0.868100 0.562800 0.260800
H85 H 0.739300 0.573200 0.110200
H86 H 0.950500 0.542800 0.728300
H87 H 0.815300 0.529200 0.608600
H88 H 0.776600 0.546600 0.687700
H89 H 0.571200 0.592600 0.435000
H90 H 0.632300 0.613700 0.433400
H91 H 0.848300 0.591100 0.476500
H92 H 0.852800 0.608700 0.251400
H93 H 0.587500 0.620200 0.073200
H94 H 0.405100 0.608200 0.170100
H95 H 0.486700 0.579400 0.055100
H96 H 0.724600 0.901900 0.389800
H97 H 0.507900 0.881200 0.210400
H98 H 0.273100 0.882300 0.218600
H99 H 0.240700 0.900300 0.390900
H100 H 0.441200 0.923500 0.559300
H101 H 0.709800 0.901100 0.843100
H102 H 0.681700 0.899800 1.060200
H103 H 0.681400 0.927600 1.193000
H104 H 0.747900 0.957400 1.121800
H105 H 0.805200 0.959400 0.930200
H106 H 0.536000 0.964400 0.608900
H107 H 0.651000 0.825400 0.563600
H108 H 0.842000 0.858200 0.669100
H109 H 0.566900 0.871200 0.577600
H110 H 0.480300 0.860400 0.755500
H111 H 0.699400 0.840000 0.971400
H112 H 0.871700 0.862300 0.935900
H113 H 0.930200 0.841100 0.931000
H114 H 0.981200 0.796100 1.188200
H115 H 0.863900 0.779000 1.097500
H116 H 0.842900 0.791300 1.219900
H117 H 0.453500 0.823500 0.624200
H118 H 0.489400 0.812300 0.776600
H119 H 0.580100 0.776300 0.800000
H120 H 0.528400 0.747600 0.656900
H121 H 0.394400 0.747500 0.386400
H122 H 0.283800 0.777000 0.261600
H123 H 0.365300 0.806900 0.391600
H124 H 0.690400 0.781200 0.505000
H125 H 0.673300 0.751200 0.388800
H126 H 0.888500 0.737800 0.389200
H127 H 1.135100 0.754600 0.505900
H128 H 1.140800 0.786700 0.601600
H129 H 1.195800 0.790000 0.913800
H130 H 1.454300 0.792800 1.136000
H131 H 1.586800 0.822900 1.189000
H132 H 1.453800 0.851700 1.048200
H133 H 1.191000 0.849200 0.834600
H134 H 1.174100 0.827100 0.548000
H135 H 1.214200 0.845700 0.379000
H136 H 1.011100 0.868200 0.207200
H137 H 0.780200 0.869200 0.225000
H138 H 0.745400 0.849100 0.387500
H139 H 0.444300 0.995500 0.497000
H140 H 0.568500 1.012800 0.393800
H141 H 0.778600 0.999700 0.380300
H142 H 0.872700 0.966900 0.490000
H143 H 1.273400 0.973900 0.795200
H144 H 1.196200 1.002300 0.658900
H145 H 1.070400 1.001600 0.382800
H146 H 1.039200 0.970800 0.257400
H147 H 1.124900 0.942200 0.399800
H148 H 1.368100 0.937200 0.760800
H149 H 1.239300 0.926800 0.610200
H150 H 1.450500 0.957200 1.228300
H151 H 1.315300 0.970800 1.108600
H152 H 1.276600 0.953400 1.187700
H153 H 1.071200 0.907400 0.935000
H154 H 1.132300 0.886300 0.933400
H155 H 1.348300 0.908900 0.976500
H156 H 1.352800 0.891300 0.751400
H157 H 1.087500 0.879800 0.573200
H158 H 0.905100 0.891800 0.670100
H159 H 0.986700 0.920600 0.555100
H160 H 0.724600 0.098100 -0.110200
H161 H 0.507900 0.118800 -0.289600
H162 H 0.273100 0.117700 -0.281400
H163 H 0.240700 0.099700 -0.109100
H164 H 0.441200 0.076500 0.059300
H165 H 0.709800 0.098900 0.343100
H166 H 0.681700 0.100200 0.560200
H167 H 0.681400 0.072400 0.693000
H168 H 0.747900 0.042600 0.621800
H169 H 0.805200 0.040600 0.430200
H170 H 0.536000 0.035600 0.108900
H171 H 0.444300 0.004500 -0.003000
H172 H 0.568500 -0.012800 -0.106200
H173 H 0.778600 0.000300 -0.119700
H174 H 0.872700 0.033100 -0.010000
H175 H 1.273400 0.026100 0.295200
H176 H 0.151000 0.674600 0.063600
H177 H 0.342000 0.641800 0.169100
H178 H 0.066900 0.628800 0.077600
H179 H -0.019700 0.639600 0.255500
H180 H 0.199400 0.660000 0.471400
H181 H 0.371700 0.637700 0.435900
H182 H 0.430200 0.658900 0.431000
H183 H 0.481200 0.703900 0.688200
H184 H 0.363900 0.721000 0.597500
H185 H 0.342900 0.708700 0.719900
H186 H -0.046500 0.676500 0.124200
H187 H -0.010600 0.687700 0.276600
H188 H 0.080100 0.723700 0.300000
H189 H 0.028400 0.752400 0.156900
H190 H -0.105600 0.752500 -0.113600
H191 H -0.216200 0.723000 -0.238400
H192 H -0.134700 0.693100 -0.108400
H193 H 0.190400 0.718800 0.005000
H194 H 0.173300 0.748800 -0.111200
H195 H 0.388500 0.762200 -0.110800
H196 H 0.635100 0.745400 0.005900
H197 H 0.640800 0.713300 0.101600
H198 H 0.695800 0.710000 0.413800
H199 H 0.954300 0.707200 0.636000
H200 H 1.086800 0.677100 0.689000
H201 H 0.953800 0.648300 0.548200
H202 H 0.691000 0.650800 0.334600
H203 H 0.674100 0.672900 0.048000
H204 H 0.714200 0.654300 -0.121000
H205 H 0.511100 0.631800 -0.292800
H206 H 0.280200 0.630800 -0.275000
H207 H 0.245400 0.650900 -0.112500
H208 H 1.196200 -0.002300 0.158900
H209 H 1.070400 -0.001600 -0.117200
H210 H 1.039200 0.029200 -0.242600
H211 H 1.124900 0.057800 -0.100200
H212 H 1.368100 0.062800 0.260800
H213 H 1.239300 0.073200 0.110200
H214 H 1.450500 0.042800 0.728300
H215 H 1.315300 0.029200 0.608600
H216 H 1.276600 0.046600 0.687700
H217 H 1.071200 0.092600 0.435000
H218 H 1.132300 0.113700 0.433400
H219 H 1.348300 0.091100 0.476500
H220 H 1.352800 0.108700 0.251400
H221 H 1.087500 0.120200 0.073200
H222 H 0.905100 0.108200 0.170100
H223 H 0.986700 0.079400 0.055100
H224 H 0.245400 0.349100 0.387500
H225 H 0.280200 0.369200 0.225000
H226 H 0.511100 0.368200 0.207200
H227 H 0.714200 0.345700 0.379000
H228 H 0.674100 0.327100 0.548000
H229 H 0.691000 0.349200 0.834600
H230 H 0.953800 0.351700 1.048200
H231 H 1.086800 0.322900 1.189000
H232 H 0.954300 0.292800 1.136000
H233 H 0.695800 0.290000 0.913800
H234 H 0.640800 0.286700 0.601600
H235 H 0.635100 0.254600 0.505900
H236 H 0.388500 0.237800 0.389200
H237 H 0.173300 0.251200 0.388800
H238 H 0.190400 0.281200 0.505000
H239 H -0.134700 0.306900 0.391600
H240 H -0.216200 0.277000 0.261600
H241 H -0.105600 0.247500 0.386400
H242 H 0.028400 0.247600 0.656900
H243 H 0.080100 0.276300 0.800000
H244 H -0.010600 0.312300 0.776600
H245 H 0.151000 0.325400 0.563600
H246 H 0.342000 0.358200 0.669100
H247 H 0.066900 0.371200 0.577600
H248 H -0.019700 0.360400 0.755500
H249 H 0.199400 0.340000 0.971400
H250 H 0.371700 0.362300 0.935900
H251 H 0.430200 0.341100 0.931000
H252 H 0.481200 0.296100 1.188200
H253 H 0.363900 0.279000 1.097500
H254 H 0.342900 0.291300 1.219900
H255 H -0.046500 0.323500 0.624200
H256 H 0.007900 0.381200 0.210400
C257 C 0.360000 0.360300 0.287000
C258 C 0.495000 0.360000 0.277000
C259 C 0.614000 0.346700 0.378000
C260 C 0.586000 0.335500 0.476000
C261 C 0.453000 0.334800 0.489000
C262 C 0.743000 0.337900 0.895000
C263 C 0.898000 0.339200 1.019000
C264 C 0.977000 0.322100 1.105000
C265 C 0.900000 0.304100 1.071000
C266 C 0.745000 0.302500 0.943000
C267 C 0.672000 0.319600 0.865000
C268 C 0.544000 0.279000 0.562000
C269 C 0.541000 0.260300 0.501000
C270 C 0.395000 0.250400 0.434000
C271 C 0.268000 0.258300 0.435000
C272 C 0.278000 0.276000 0.501000
C273 C 0.419000 0.286800 0.570000
C274 C -0.109000 0.294800 0.447000
C275 C -0.148000 0.277000 0.369000
C276 C -0.092000 0.259400 0.442000
C277 C 0.737000 0.173200 0.164000
C278 C 0.773000 0.148100 0.201000
C279 C 0.619000 0.138000 0.159000
C280 C 0.996000 0.080000 0.156000
C281 C 1.002000 0.101900 0.205000
C282 C 1.114000 0.111400 0.157000
C283 C 1.257000 0.105500 0.254000
C284 C 1.250000 0.092300 0.377000
C285 C 1.175000 0.072600 0.285000
C286 C 1.108000 0.101000 0.384000
C287 C 1.174000 0.057200 0.393000
C288 C 1.340000 0.042300 0.644000
C289 C 1.255000 0.063900 0.188000
C290 C 1.202000 0.045100 0.113000
C291 C 1.134000 0.045600 -0.050000
C292 C 1.085000 0.028700 -0.133000
C293 C 1.103000 0.010300 -0.059000
C294 C 1.176000 0.009900 0.103000
C295 C 1.221000 0.026700 0.182000
C296 C 0.714000 0.036400 0.072000
C297 C 0.785000 0.027000 -0.005000
C298 C 0.727000 0.007500 -0.073000
C299 C 0.603000 0.000000 -0.067000
C300 C 0.532000 0.010000 -0.004000
C301 C 0.588000 0.028600 0.065000
C302 C 0.765000 0.069400 0.345000
C303 C 0.772000 0.053200 0.448000
C304 C 0.740000 0.054300 0.565000
C305 C 0.702000 0.071600 0.608000
C306 C 0.698000 0.087700 0.526000
C307 C 0.721000 0.087100 0.398000
C308 C 0.600000 0.086000 -0.008000
C309 C 0.455000 0.085300 -0.007000
C310 C 0.335000 0.098700 -0.114000
C311 C 0.356000 0.109800 -0.212000
C312 C 0.495000 0.110400 -0.218000
C313 C 0.623000 0.098200 -0.112000
C314 C -0.011000 0.259700 0.601000
C315 C 0.022000 0.276800 0.688000
C316 C -0.025000 0.294900 0.610000
C317 C 0.016000 0.313800 0.696000
C318 C 0.371000 0.291800 1.139000
C319 C 0.301000 0.307000 0.907000
C320 C 0.339000 0.349900 0.881000
C321 C 0.183000 0.322300 0.778000
C322 C 0.195000 0.341700 0.872000
C323 C 0.072000 0.356300 0.755000
C324 C 0.119000 0.362000 0.659000
C325 C 0.273000 0.351900 0.701000
C326 C 0.237000 0.326800 0.664000
C327 C 0.572000 0.143700 0.255000
C328 C 0.695000 0.158300 0.372000
C329 C 0.683000 0.177700 0.278000
C330 C 0.340000 0.651600 -0.114000
C331 C 0.360000 0.639700 -0.213000
C332 C 0.495000 0.640000 -0.223000
C333 C 0.614000 0.653300 -0.122000
C334 C 0.586000 0.664500 -0.024000
C335 C 0.453000 0.665200 -0.011000
C336 C 0.743000 0.662100 0.395000
C337 C 0.898000 0.660800 0.519000
C338 C 0.977000 0.677900 0.605000
C339 C 0.900000 0.695900 0.571000
C340 C 0.745000 0.697500 0.443000
C341 C 0.672000 0.680400 0.365000
C342 C 0.544000 0.721000 0.062000
C343 C 0.541000 0.739700 0.001000
C344 C 0.395000 0.749600 -0.066000
C345 C 0.268000 0.741700 -0.065000
C346 C 0.839000 0.150100 0.381000
C347 C 0.801000 0.193000 0.407000
C348 C 0.871000 0.208200 0.639000
C349 C 0.996000 0.920000 0.656000
C350 C 1.002000 0.898100 0.705000
C351 C 1.114000 0.888600 0.657000
C352 C 1.257000 0.894500 0.754000
C353 C 1.250000 0.907700 0.877000
C354 C 1.175000 0.927400 0.785000
C355 C 1.108000 0.899000 0.884000
C356 C 1.174000 0.942800 0.893000
C357 C 1.340000 0.957700 1.144000
C358 C 1.255000 0.936100 0.688000
C359 C 1.202000 0.954900 0.613000
C360 C 1.134000 0.954400 0.450000
C361 C 1.085000 0.971300 0.367000
C362 C 1.103000 0.989700 0.441000
C363 C 1.176000 0.990100 0.603000
C364 C 1.221000 0.973300 0.682000
C365 C 0.714000 0.963600 0.572000
C366 C 0.785000 0.973000 0.495000
C367 C 0.727000 0.992500 0.427000
C368 C 0.603000 1.000000 0.433000
C369 C 0.532000 0.990000 0.496000
C370 C 0.588000 0.971400 0.565000
C371 C 0.765000 0.930600 0.845000
C372 C 0.772000 0.946800 0.948000
C373 C 0.740000 0.945700 1.065000
C374 C 0.702000 0.928400 1.108000
C375 C 0.698000 0.912300 1.026000
C376 C 0.721000 0.912900 0.898000
C377 C 0.600000 0.914000 0.492000
C378 C 0.455000 0.914700 0.493000
C379 C 0.335000 0.901300 0.386000
C380 C 0.356000 0.890200 0.288000
C381 C 0.495000 0.889600 0.282000
C382 C 0.623000 0.901800 0.388000
C383 C 0.278000 0.724000 0.001000
C384 C 0.419000 0.713200 0.070000
C385 C -0.109000 0.705200 -0.053000
C386 C -0.148000 0.723000 -0.131000
C387 C -0.092000 0.740600 -0.058000
C388 C -0.011000 0.740300 0.101000
C389 C 0.022000 0.723200 0.188000
C390 C -0.025000 0.705100 0.110000
C391 C 0.016000 0.686200 0.196000
C392 C 0.371000 0.708200 0.639000
C393 C 0.301000 0.693000 0.407000
C394 C 0.339000 0.650100 0.381000
C395 C 0.183000 0.677700 0.278000
C396 C 0.195000 0.658300 0.372000
C397 C 0.072000 0.643700 0.255000
C398 C 0.119000 0.638000 0.159000
C399 C 0.273000 0.648100 0.201000
C400 C 0.237000 0.673200 0.164000
C401 C 0.516000 0.186200 0.196000
C402 C 0.475000 0.205100 0.110000
C403 C 0.522000 0.223200 0.188000
C404 C 0.840000 0.848400 0.386000
C405 C 0.860000 0.860300 0.287000
C406 C 0.995000 0.860000 0.277000
C407 C 1.114000 0.846700 0.378000
C408 C 1.086000 0.835500 0.476000
C409 C 0.953000 0.834800 0.489000
C410 C 1.243000 0.837900 0.895000
C411 C 1.398000 0.839200 1.019000
C412 C 1.477000 0.822100 1.105000
C413 C 1.400000 0.804100 1.071000
C414 C 1.245000 0.802500 0.943000
C415 C 0.489000 0.240300 0.101000
C416 C 0.408000 0.240600 -0.058000
C417 C 0.352000 0.223000 -0.131000
C418 C 0.496000 0.580000 0.156000
C419 C 0.502000 0.601900 0.205000
C420 C 0.614000 0.611400 0.157000
C421 C 0.757000 0.605500 0.254000
C422 C 0.750000 0.592300 0.377000
C423 C 0.675000 0.572600 0.285000
C424 C 0.608000 0.601000 0.384000
C425 C 0.674000 0.557200 0.393000
C426 C 0.840000 0.542300 0.644000
C427 C 0.755000 0.563900 0.188000
C428 C 0.702000 0.545100 0.113000
C429 C 0.634000 0.545600 -0.050000
C430 C 0.585000 0.528700 -0.133000
C431 C 0.603000 0.510300 -0.059000
C432 C 0.676000 0.509900 0.103000
C433 C 0.721000 0.526700 0.182000
C434 C 0.214000 0.536400 0.072000
C435 C 0.285000 0.527000 -0.005000
C436 C 0.227000 0.507500 -0.073000
C437 C 0.103000 0.500000 -0.067000
C438 C 0.032000 0.510000 -0.004000
C439 C 0.088000 0.528600 0.065000
C440 C 0.265000 0.569400 0.345000
C441 C 0.272000 0.553200 0.448000
C442 C 0.240000 0.554300 0.565000
C443 C 0.202000 0.571600 0.608000
C444 C 0.198000 0.587700 0.526000
C445 C 0.221000 0.587100 0.398000
C446 C 0.100000 0.586000 -0.008000
C447 C -0.045000 0.585300 -0.007000
C448 C -0.165000 0.598700 -0.114000
C449 C -0.144000 0.609800 -0.212000
C450 C -0.005000 0.610400 -0.218000
C451 C 0.123000 0.598200 -0.112000
C452 C 1.172000 0.819600 0.865000
C453 C 1.044000 0.779000 0.562000
C454 C 1.041000 0.760300 0.501000
C455 C 0.895000 0.750400 0.434000
C456 C 0.768000 0.758300 0.435000
C457 C 0.778000 0.776000 0.501000
C458 C 0.919000 0.786800 0.570000
C459 C 0.391000 0.794800 0.447000
C460 C 0.352000 0.777000 0.369000
C461 C 0.408000 0.759400 0.442000
C462 C 0.489000 0.759700 0.601000
C463 C 0.522000 0.776800 0.688000
C464 C 0.475000 0.794900 0.610000
C465 C 0.516000 0.813800 0.696000
C466 C 0.871000 0.791800 1.139000
C467 C 0.801000 0.807000 0.907000
C468 C 0.839000 0.849900 0.881000
C469 C 0.683000 0.822300 0.778000
C470 C 0.695000 0.841700 0.872000
C471 C 0.572000 0.856300 0.755000
C472 C 0.619000 0.862000 0.659000
C473 C 0.773000 0.851900 0.701000
C474 C 0.737000 0.826800 0.664000
C475 C 0.391000 0.205200 -0.053000
C476 C 0.919000 0.213200 0.070000
C477 C 0.778000 0.224000 0.001000
C478 C 0.840000 0.151600 -0.114000
C479 C 0.860000 0.139700 -0.213000
C480 C 0.995000 0.140000 -0.223000
C481 C 1.114000 0.153300 -0.122000
C482 C 1.086000 0.164500 -0.024000
C483 C 0.953000 0.165200 -0.011000
C484 C 0.768000 0.241700 -0.065000
C485 C 0.895000 0.249600 -0.066000
C486 C 1.041000 0.239700 0.001000
C487 C 0.496000 0.420000 0.656000
C488 C 0.502000 0.398100 0.705000
C489 C 0.614000 0.388600 0.657000
C490 C 0.757000 0.394500 0.754000
C491 C 0.750000 0.407700 0.877000
C492 C 0.675000 0.427400 0.785000
C493 C 0.608000 0.399000 0.884000
C494 C 0.674000 0.442800 0.893000
C495 C 0.840000 0.457700 1.144000
C496 C 0.755000 0.436100 0.688000
C497 C 0.702000 0.454900 0.613000
C498 C 0.634000 0.454400 0.450000
C499 C 0.585000 0.471300 0.367000
C500 C 0.603000 0.489700 0.441000
C501 C 0.676000 0.490100 0.603000
C502 C 0.721000 0.473300 0.682000
C503 C 0.214000 0.463600 0.572000
C504 C 0.285000 0.473000 0.495000
C505 C 0.227000 0.492500 0.427000
C506 C 0.103000 0.500000 0.433000
C507 C 0.032000 0.490000 0.496000
C508 C 0.088000 0.471400 0.565000
C509 C 0.265000 0.430600 0.845000
C510 C 0.272000 0.446800 0.948000
C511 C 0.240000 0.445700 1.065000
C512 C 0.202000 0.428400 1.108000
C513 C 0.198000 0.412300 1.026000
C514 C 0.221000 0.412900 0.898000
C515 C 0.100000 0.414000 0.492000
C516 C -0.045000 0.414700 0.493000
C517 C -0.165000 0.401300 0.386000
C518 C -0.144000 0.390200 0.288000
C519 C -0.005000 0.389600 0.282000
C520 C 0.123000 0.401800 0.388000
C521 C 1.243000 0.162100 0.395000
C522 C 1.398000 0.160800 0.519000
C523 C 1.477000 0.177900 0.605000
C524 C 1.400000 0.195900 0.571000
C525 C 1.245000 0.197500 0.443000
C526 C 1.172000 0.180400 0.365000
C527 C 1.044000 0.221000 0.062000
C528 C 0.340000 0.348400 0.386000
O529 O 0.564000 0.452600 0.887000
O530 O 0.895000 0.202080 0.384000
O531 O 0.772000 0.194600 0.520000
O532 O 0.895000 0.797920 0.884000
O533 O 0.772000 0.805400 1.020000
O534 O 0.818000 0.555300 0.519000
O535 O 0.564000 0.547400 0.387000
O536 O 1.064000 0.047400 0.387000
O537 O 1.318000 0.055300 0.519000
O538 O 0.395000 0.702080 0.384000
O539 O 0.272000 0.694600 0.520000
O540 O 1.318000 0.944700 1.019000
O541 O 1.064000 0.952600 0.887000
O542 O 0.272000 0.305400 1.020000
O543 O 0.395000 0.297920 0.884000
O544 O 0.818000 0.444700 1.019000
Sn545 Sn 0.427000 0.683830 0.154000
Sn546 Sn 0.283000 0.566160 0.154000
Sn547 Sn 0.783000 0.066160 0.154000
Sn548 Sn 0.927000 0.816170 0.654000
Sn549 Sn 0.283000 0.433840 0.654000
Sn550 Sn 0.783000 0.933840 0.654000
Sn551 Sn 0.427000 0.316170 0.654000
Sn552 Sn 0.927000 0.183830 0.154000

#END
