./ACUNAP_from_POSCAR.cif_generated_by_CrystalShift
_symmetry_cell_setting triclinic
_symmetry_space_group_name_H-M 'P 1'
loop_
_symmetry_equiv_pos_site_id
_symmetry_equiv_pos_as_xyz
1 x,y,z
_cell_length_a 8.822770
_cell_length_b 12.755600
_cell_length_c 18.361100
_cell_angle_alpha 90.000000
_cell_angle_beta 90.000000
_cell_angle_gamma 90.000000
_cell_volume 2066.353145
loop_
_atom_site_label
_atom_site_type_symbol
_atom_site_fract_x
_atom_site_fract_y
_atom_site_fract_z
H1 H 0.322600 0.220700 0.972400
H2 H 0.312100 0.141100 0.905300
H3 H 0.232500 0.357400 0.897700
H4 H 0.221500 0.277400 0.830300
H5 H 0.821000 0.308000 0.554800
H6 H 0.905000 0.178700 0.474300
H7 H 0.556800 -0.007100 0.534700
H8 H 0.474900 0.120900 0.616600
H9 H 0.623500 0.377600 0.635200
H10 H 0.487400 0.303400 0.661100
H11 H 0.930300 0.416000 0.678200
H12 H 1.179900 0.357200 0.658800
H13 H 0.594400 0.506800 0.747100
H14 H 1.243200 0.184100 0.683500
H15 H 0.765300 0.048700 0.762800
H16 H 1.063400 0.065000 0.727900
H17 H 1.177400 0.779300 0.472400
H18 H 1.339200 0.810200 0.439300
H19 H 1.187900 0.858900 0.405300
H20 H 1.267500 0.642600 0.397700
H21 H 1.278500 0.722600 0.330300
H22 H 0.679000 0.692000 0.054800
H23 H 0.595000 0.821300 -0.025700
H24 H 0.943200 1.007100 0.034700
H25 H 1.025100 0.879100 0.116600
H26 H 0.876500 0.622400 0.135200
H27 H 1.012600 0.696600 0.161100
H28 H 0.569700 0.584000 0.178200
H29 H 0.320100 0.642800 0.158800
H30 H 0.563400 0.435000 0.272100
H31 H 0.265300 0.451300 0.237200
H32 H 0.743200 0.315900 0.316500
H33 H 0.094400 -0.006800 0.252900
H34 H 0.679900 0.142800 0.341200
H35 H 0.430300 0.084000 0.321800
H36 H -0.012600 0.196600 0.338900
H37 H 0.123500 0.122400 0.364800
H38 H -0.025100 0.379100 0.383400
H39 H 0.056800 0.507100 0.465300
H40 H 0.405000 0.321300 0.525700
H41 H 0.321000 0.192000 0.445200
H42 H -0.278500 0.222600 0.169700
H43 H -0.267500 0.142600 0.102300
H44 H -0.187900 0.358900 0.094700
H45 H -0.339200 0.310200 0.060700
H46 H -0.177400 0.279300 0.027600
H47 H 0.905600 0.493200 0.247100
H48 H 0.256800 0.815900 0.183500
H49 H 0.734700 0.951300 0.262800
H50 H 0.436600 0.935000 0.227900
H51 H 0.677400 0.720700 0.527600
H52 H 0.839200 0.689800 0.560700
H53 H 0.687900 0.641100 0.594700
H54 H 0.767500 0.857400 0.602300
H55 H 0.778500 0.777400 0.669700
H56 H 0.179000 0.808000 0.945200
H57 H 0.095000 0.678700 1.025700
H58 H 0.443200 0.492900 0.965300
H59 H 0.525100 0.620900 0.883400
H60 H 0.376500 0.877600 0.864800
H61 H 0.512600 0.803400 0.838900
H62 H 0.069700 0.916000 0.821800
H63 H -0.179900 0.857200 0.841200
H64 H 0.405600 1.006800 0.752900
H65 H -0.243200 0.684100 0.816500
H66 H 0.234700 0.548700 0.737200
H67 H -0.063400 0.565000 0.772100
H68 H 0.160800 0.189800 0.939300
C69 C 0.181900 0.666700 0.996290
C70 C 0.231800 0.743200 0.948110
C71 C 0.360900 0.874100 0.716050
C72 C 0.265800 0.866400 0.646900
C73 C 0.530400 0.868700 0.697300
C74 C 0.722600 0.793700 0.624400
C75 C 0.732600 0.703600 0.572300
C76 C 0.388100 0.556500 0.960270
C77 C 0.436700 0.632800 0.911750
C78 C 0.357500 0.726500 0.904180
C79 C 0.401700 0.806500 0.846920
C80 C 0.149600 0.775800 0.785820
C81 C 0.042900 0.845300 0.811840
C82 C -0.105000 0.810400 0.823300
C83 C -0.142100 0.706900 0.808500
C84 C -0.036500 0.635500 0.782400
C85 C 0.107800 0.671400 0.772180
C86 C 0.363100 0.674800 0.748830
C87 C 0.318500 0.786900 0.773110
C88 C 0.181500 0.213100 0.273110
C89 C 0.136900 0.325200 0.248830
C90 C 0.392200 0.328600 0.272180
C91 C 0.536500 0.364500 0.282400
C92 C 0.642100 0.293100 0.308500
C93 C 0.605000 0.189600 0.323300
C94 C 0.457100 0.154700 0.311840
C95 C 0.267400 0.203600 0.927700
C96 C 0.277400 0.293700 0.875600
C97 C 0.469600 0.368700 0.802700
C98 C 0.734200 0.366400 0.853100
C99 C 0.639100 0.374100 0.783950
C100 C 0.768200 0.243200 0.551890
C101 C 0.818100 0.166700 0.503710
C102 C 0.818500 0.713100 0.226890
C103 C 0.863100 0.825200 0.251170
C104 C 0.607800 0.828600 0.227820
C105 C 0.463500 0.864500 0.217600
C106 C 0.357900 0.793100 0.191500
C107 C 0.395000 0.689600 0.176700
C108 C 0.542900 0.654700 0.188160
C109 C 0.649600 0.724200 0.214180
C110 C 0.901700 0.693500 0.153080
C111 C 0.857500 0.773500 0.095820
C112 C 0.936700 0.867200 0.088250
C113 C 0.888100 0.943500 0.039730
C114 C 0.759400 0.926500 -0.001050
C115 C 0.681900 0.833300 0.003710
C116 C 0.731800 0.756800 0.051890
C117 C 0.860900 0.625900 0.283950
C118 C 0.765800 0.633600 0.353100
C119 C 1.030400 0.631300 0.302700
C120 C 1.222600 0.706300 0.375600
C121 C 1.232600 0.796400 0.427700
C122 C 0.740600 0.073500 0.498950
C123 C 0.611900 0.056500 0.539730
C124 C 0.563300 0.132800 0.588250
C125 C 0.642500 0.226500 0.595820
C126 C -0.232600 0.296400 0.072300
C127 C -0.222600 0.206300 0.124400
C128 C -0.030400 0.131300 0.197300
C129 C 0.234200 0.133600 0.146900
C130 C 0.139100 0.125900 0.216050
C131 C 0.268200 0.256800 0.448110
C132 C 0.318100 0.333300 0.496290
C133 C 0.240600 0.426500 0.501050
C134 C 0.111900 0.443500 0.460270
C135 C 0.063300 0.367200 0.411750
C136 C 0.142500 0.273500 0.404180
C137 C 0.098300 0.193500 0.346920
C138 C 0.350400 0.224200 0.285820
C139 C 0.598300 0.306500 0.653080
C140 C 0.850400 0.275800 0.714180
C141 C 0.957100 0.345300 0.688160
C142 C 1.105000 0.310400 0.676700
C143 C 1.142100 0.206900 0.691500
C144 C 1.036500 0.135500 0.717600
C145 C 0.892200 0.171400 0.727820
C146 C 0.636900 0.174800 0.751170
C147 C 0.681500 0.286900 0.726890
C148 C 0.259400 0.573500 1.001050
N149 N 0.263500 0.384700 0.249550
N150 N 0.236500 0.615300 0.749550
N151 N 0.763500 0.115300 0.750450
N152 N 0.736500 0.884700 0.250450
O153 O 0.674500 0.472580 0.753670
O154 O 0.174500 0.027420 0.246330
O155 O -0.122100 0.083520 0.233930
O156 O -0.062200 0.189160 0.140230
O157 O 0.437800 0.310840 0.859770
O158 O 0.377900 0.416480 0.766070
O159 O 0.562200 0.810840 0.640230
O160 O 0.622100 0.916480 0.733930
O161 O 0.507100 0.145290 0.763960
O162 O 1.062200 0.689160 0.359770
O163 O 1.122100 0.583520 0.266070
O164 O 0.825500 0.527420 0.253670
O165 O 0.992900 0.854710 0.263960
O166 O 0.007100 0.354710 0.236040
O167 O 0.325500 0.972580 0.746330
O168 O 0.492900 0.645290 0.736040
F169 F 0.180700 0.069790 0.094490
F170 F 0.761900 0.731100 0.380980
F171 F 0.620600 0.605140 0.342960
F172 F 0.319300 0.930210 0.594490
F173 F 0.120600 0.894860 0.657040
F174 F 0.261900 0.768900 0.619020
F175 F 0.379400 0.105140 0.157040
F176 F 0.238100 0.231100 0.119020
F177 F 0.738100 0.268900 0.880980
F178 F 0.879400 0.394860 0.842960
F179 F 0.680700 0.430210 0.905510
F180 F 0.819300 0.569790 0.405510
Br181 Br 0.812450 -0.032950 0.435310
Br182 Br 0.187550 0.467050 1.064690
Br183 Br 0.687550 1.032950 -0.064690
Br184 Br 0.312450 0.532950 0.564690

#END
