
#######################################################################
#
#                 Cambridge Crystallographic Data Centre
#                                CCDC 
#
#######################################################################
#
# If this CIF has been generated from an entry in the Cambridge 
# Structural Database, then it will include bibliographic, chemical, 
# crystal, experimental, refinement or atomic coordinate data resulting 
# from the CCDC's data processing and validation procedures.
#
#######################################################################

data_ACUPEV
_symmetry_cell_setting           orthorhombic
_symmetry_space_group_name_H-M   'P 21 21 21'
_symmetry_Int_Tables_number      19
_space_group_name_Hall           'P 2ac 2ab'
loop_
_symmetry_equiv_pos_site_id
_symmetry_equiv_pos_as_xyz
1 x,y,z
2 1/2+x,1/2-y,-z
3 -x,1/2+y,1/2-z
4 1/2-x,-y,1/2+z
_cell_length_a                   6.0165(4)
_cell_length_b                   8.1091(4)
_cell_length_c                   35.4091(18)
_cell_angle_alpha                90
_cell_angle_beta                 90
_cell_angle_gamma                90
_cell_volume                     1727.55
loop_
_atom_site_label
_atom_site_type_symbol
_atom_site_fract_x
_atom_site_fract_y
_atom_site_fract_z
O1 O -0.0010(3) -0.0421(2) 0.54551(6)
O2 O -0.0568(3) -0.0142(2) 0.60555(6)
O3 O 0.5572(3) 0.6102(2) 0.80184(6)
O4 O 0.8621(3) 0.4660(2) 0.62449(5)
N1 N 0.9456(4) 0.4405(3) 0.55976(7)
N2 N 0.0516(4) 0.0101(3) 0.57670(7)
C1 C 0.8270(5) 0.4085(3) 0.58846(8)
C2 C 1.0362(5) 0.5745(3) 0.63199(9)
C3 C 1.1870(5) 0.6079(4) 0.60022(9)
C4 C 1.3793(5) 0.7027(4) 0.60404(9)
C5 C 1.5139(5) 0.7332(3) 0.57291(9)
C6 C 1.4565(5) 0.6686(3) 0.53808(9)
C7 C 1.2679(5) 0.5729(3) 0.53405(9)
C8 C 1.1332(5) 0.5415(3) 0.56504(9)
C9 C 1.0525(5) 0.6386(3) 0.66670(8)
C10 C 0.9163(5) 0.6227(3) 0.70065(8)
C11 C 0.7181(5) 0.5322(4) 0.70299(9)
C12 C 0.5934(5) 0.5252(4) 0.73614(8)
C13 C 0.6655(5) 0.6096(4) 0.76775(9)
C14 C 0.8597(6) 0.7012(4) 0.76598(9)
C15 C 0.9818(5) 0.7071(4) 0.73311(9)
C16 C 0.6280(5) 0.3028(3) 0.58610(8)
C17 C 0.5704(5) 0.2335(3) 0.55100(8)
C18 C 0.3817(5) 0.1365(3) 0.54776(8)
C19 C 0.2549(5) 0.1096(3) 0.57961(8)
C20 C 0.3093(5) 0.1731(3) 0.61441(9)
C21 C 0.4967(5) 0.2694(4) 0.61709(8)
C22 C 0.3758(5) 0.4979(4) 0.80601(9)
H1 H 1.4183 0.7466 0.6280
H2 H 1.6445 0.7980 0.5755
H3 H 1.5476 0.6903 0.5167
H4 H 1.2305 0.5286 0.5100
H5 H 0.6674 0.4740 0.6814
H6 H 0.4599 0.4628 0.7370
H7 H 0.9089 0.7604 0.7876
H8 H 1.1145 0.7704 0.7325
H9 H 0.6610 0.2533 0.5295
H10 H 0.3408 0.0897 0.5242
H11 H 0.2201 0.1510 0.6360
H12 H 0.5367 0.3142 0.6409
H13 H 0.3117 0.5095 0.8313
H14 H 0.4292 0.3847 0.8025
H15 H 0.2620 0.5224 0.7870
H16 H 1.1779 0.7084 0.6699
O1 O -0.5010(3) 0.5421(2) 0.45449(6)
O2 O -0.5568(3) 0.5142(2) 0.39445(6)
O3 O 0.0572(3) -0.1102(2) 0.19816(6)
O4 O 0.3621(3) 0.0340(2) 0.37551(5)
N1 N 0.4456(4) 0.0595(3) 0.44024(7)
N2 N -0.4484(4) 0.4899(3) 0.42330(7)
C1 C 0.3270(5) 0.0915(3) 0.41154(8)
C2 C 0.5362(5) -0.0745(3) 0.36801(9)
C3 C 0.6870(5) -0.1079(4) 0.39978(9)
C4 C 0.8793(5) -0.2027(4) 0.39596(9)
C5 C 1.0139(5) -0.2332(3) 0.42709(9)
C6 C 0.9565(5) -0.1686(3) 0.46192(9)
C7 C 0.7679(5) -0.0729(3) 0.46595(9)
C8 C 0.6332(5) -0.0415(3) 0.43496(9)
C9 C 0.5525(5) -0.1386(3) 0.33330(8)
C10 C 0.4163(5) -0.1227(3) 0.29935(8)
C11 C 0.2181(5) -0.0322(4) 0.29701(9)
C12 C 0.0934(5) -0.0252(4) 0.26386(8)
C13 C 0.1655(5) -0.1096(4) 0.23225(9)
C14 C 0.3597(6) -0.2012(4) 0.23402(9)
C15 C 0.4818(5) -0.2071(4) 0.26689(9)
C16 C 0.1280(5) 0.1972(3) 0.41390(8)
C17 C 0.0704(5) 0.2665(3) 0.44900(8)
C18 C -0.1183(5) 0.3635(3) 0.45224(8)
C19 C -0.2451(5) 0.3904(3) 0.42039(8)
C20 C -0.1907(5) 0.3269(3) 0.38559(9)
C21 C -0.0033(5) 0.2306(4) 0.38291(8)
C22 C -0.1242(5) 0.0021(4) 0.19399(9)
H1 H 0.9183 -0.2466 0.3720
H2 H 1.1445 -0.2980 0.4245
H3 H 1.0476 -0.1903 0.4833
H4 H 0.7305 -0.0286 0.4900
H5 H 0.1674 0.0260 0.3186
H6 H -0.0401 0.0372 0.2630
H7 H 0.4089 -0.2604 0.2124
H8 H 0.6145 -0.2704 0.2675
H9 H 0.1610 0.2467 0.4705
H10 H -0.1592 0.4103 0.4758
H11 H -0.2799 0.3490 0.3640
H12 H 0.0367 0.1858 0.3591
H13 H -0.1883 -0.0095 0.1687
H14 H -0.0708 0.1153 0.1975
H15 H -0.2380 -0.0224 0.2130
H16 H 0.6779 -0.2084 0.3301
O1 O 1.0010(3) 0.4579(2) 0.95449(6)
O2 O 1.0568(3) 0.4858(2) 0.89445(6)
O3 O 0.4428(3) 1.1102(2) 0.69816(6)
O4 O 0.1379(3) 0.9660(2) 0.87551(5)
N1 N 0.0544(4) 0.9405(3) 0.94024(7)
N2 N 0.9484(4) 0.5101(3) 0.92330(7)
C1 C 0.1730(5) 0.9085(3) 0.91154(8)
C2 C -0.0362(5) 1.0745(3) 0.86801(9)
C3 C -0.1870(5) 1.1079(4) 0.89978(9)
C4 C -0.3793(5) 1.2027(4) 0.89596(9)
C5 C -0.5139(5) 1.2332(3) 0.92709(9)
C6 C -0.4565(5) 1.1686(3) 0.96192(9)
C7 C -0.2679(5) 1.0729(3) 0.96595(9)
C8 C -0.1332(5) 1.0415(3) 0.93496(9)
C9 C -0.0525(5) 1.1386(3) 0.83330(8)
C10 C 0.0837(5) 1.1227(3) 0.79935(8)
C11 C 0.2819(5) 1.0322(4) 0.79701(9)
C12 C 0.4066(5) 1.0252(4) 0.76386(8)
C13 C 0.3345(5) 1.1096(4) 0.73225(9)
C14 C 0.1403(6) 1.2012(4) 0.73402(9)
C15 C 0.0182(5) 1.2071(4) 0.76689(9)
C16 C 0.3720(5) 0.8028(3) 0.91390(8)
C17 C 0.4296(5) 0.7335(3) 0.94900(8)
C18 C 0.6183(5) 0.6365(3) 0.95224(8)
C19 C 0.7451(5) 0.6096(3) 0.92039(8)
C20 C 0.6907(5) 0.6731(3) 0.88559(9)
C21 C 0.5033(5) 0.7694(4) 0.88291(8)
C22 C 0.6242(5) 0.9979(4) 0.69399(9)
H1 H -0.4183 1.2466 0.8720
H2 H -0.6445 1.2980 0.9245
H3 H -0.5476 1.1903 0.9833
H4 H -0.2305 1.0286 0.9900
H5 H 0.3326 0.9740 0.8186
H6 H 0.5401 0.9628 0.7630
H7 H 0.0911 1.2604 0.7124
H8 H -0.1145 1.2704 0.7675
H9 H 0.3390 0.7533 0.9705
H10 H 0.6592 0.5897 0.9758
H11 H 0.7799 0.6510 0.8640
H12 H 0.4633 0.8142 0.8591
H13 H 0.6883 1.0095 0.6687
H14 H 0.5708 0.8847 0.6975
H15 H 0.7380 1.0224 0.7130
H16 H -0.1779 1.2084 0.8301
O1 O 1.5010(3) 1.0421(2) 0.04551(6)
O2 O 1.5568(3) 1.0142(2) 0.10555(6)
O3 O 0.9428(3) 0.3898(2) 0.30184(6)
O4 O 0.6379(3) 0.5340(2) 0.12449(5)
N1 N 0.5544(4) 0.5595(3) 0.05976(7)
N2 N 1.4484(4) 0.9899(3) 0.07670(7)
C1 C 0.6730(5) 0.5915(3) 0.08846(8)
C2 C 0.4638(5) 0.4255(3) 0.13199(9)
C3 C 0.3130(5) 0.3921(4) 0.10022(9)
C4 C 0.1207(5) 0.2973(4) 0.10404(9)
C5 C -0.0139(5) 0.2668(3) 0.07291(9)
C6 C 0.0435(5) 0.3314(3) 0.03808(9)
C7 C 0.2321(5) 0.4271(3) 0.03405(9)
C8 C 0.3668(5) 0.4585(3) 0.06504(9)
C9 C 0.4475(5) 0.3614(3) 0.16670(8)
C10 C 0.5837(5) 0.3773(3) 0.20065(8)
C11 C 0.7819(5) 0.4678(4) 0.20299(9)
C12 C 0.9066(5) 0.4748(4) 0.23614(8)
C13 C 0.8345(5) 0.3904(4) 0.26775(9)
C14 C 0.6403(6) 0.2988(4) 0.26598(9)
C15 C 0.5182(5) 0.2929(4) 0.23311(9)
C16 C 0.8720(5) 0.6972(3) 0.08610(8)
C17 C 0.9296(5) 0.7665(3) 0.05100(8)
C18 C 1.1183(5) 0.8635(3) 0.04776(8)
C19 C 1.2451(5) 0.8904(3) 0.07961(8)
C20 C 1.1907(5) 0.8269(3) 0.11441(9)
C21 C 1.0033(5) 0.7306(4) 0.11709(8)
C22 C 1.1242(5) 0.5021(4) 0.30601(9)
H1 H 0.0817 0.2534 0.1280
H2 H -0.1445 0.2020 0.0755
H3 H -0.0476 0.3097 0.0167
H4 H 0.2695 0.4714 0.0100
H5 H 0.8326 0.5260 0.1814
H6 H 1.0401 0.5372 0.2370
H7 H 0.5911 0.2396 0.2876
H8 H 0.3855 0.2296 0.2325
H9 H 0.8390 0.7467 0.0295
H10 H 1.1592 0.9103 0.0242
H11 H 1.2799 0.8490 0.1360
H12 H 0.9633 0.6858 0.1409
H13 H 1.1883 0.4905 0.3313
H14 H 1.0708 0.6153 0.3025
H15 H 1.2380 0.4776 0.2870
H16 H 0.3221 0.2916 0.1699

#END
