./ACUPIX_from_POSCAR.cif_generated_by_CrystalShift
_symmetry_cell_setting triclinic
_symmetry_space_group_name_H-M 'P 1'
loop_
_symmetry_equiv_pos_site_id
_symmetry_equiv_pos_as_xyz
1 x,y,z
_cell_length_a 7.543000
_cell_length_b 25.740000
_cell_length_c 14.221000
_cell_angle_alpha 90.000000
_cell_angle_beta 102.167000
_cell_angle_gamma 90.000000
_cell_volume 2699.082688
loop_
_atom_site_label
_atom_site_type_symbol
_atom_site_fract_x
_atom_site_fract_y
_atom_site_fract_z
H1 H 0.323100 0.843100 1.056600
H2 H 0.413100 0.896400 1.031500
H3 H 0.904400 0.781700 1.079100
H4 H 0.109600 0.890800 0.948500
H5 H 0.243300 0.893200 0.874400
H6 H 0.719400 0.859600 1.073100
H7 H 0.631000 0.807700 1.104900
H8 H 0.120000 0.835600 0.746900
H9 H -0.064500 0.846200 0.782900
H10 H 0.444000 0.794000 0.945000
H11 H -0.100200 0.756100 0.803400
H12 H -0.092800 0.768900 0.694000
H13 H 0.637900 1.005100 0.911100
H14 H 0.834400 0.979500 0.921700
H15 H 0.222100 0.666400 0.821000
H16 H 0.015600 0.677300 0.825400
H17 H 0.763000 0.996100 1.015600
H18 H 0.113900 0.736700 0.954300
H19 H 0.184100 0.678900 0.981400
H20 H 0.680300 0.955500 0.777000
H21 H 0.471700 0.785400 0.805700
H22 H 0.514600 0.678500 0.901700
H23 H 0.474200 0.657200 1.001100
H24 H 0.528800 0.815100 0.660300
H25 H 0.685100 0.719800 1.085700
H26 H 0.781900 0.679000 1.027300
H27 H 0.632700 0.941000 0.287400
H28 H 0.576800 0.907100 0.433700
H29 H 0.803400 1.035600 0.574300
H30 H 0.881000 1.067100 0.433500
H31 H 1.176900 0.343100 0.443400
H32 H 1.086900 0.396400 0.468500
H33 H 1.390400 0.390800 0.551500
H34 H 0.381000 0.432900 -0.066500
H35 H 1.256700 0.393200 0.625600
H36 H 0.303400 0.464400 0.074300
H37 H 1.380000 0.335600 0.753100
H38 H 1.564500 0.346200 0.717100
H39 H 0.076800 0.592900 -0.066300
H40 H 1.600200 0.256100 0.696600
H41 H 0.132700 0.559000 -0.212600
H42 H 1.592800 0.268900 0.806000
H43 H 1.277900 0.166400 0.679000
H44 H 1.484400 0.177300 0.674600
H45 H 1.386100 0.236700 0.545700
H46 H 0.028800 0.684900 0.160300
H47 H 1.315900 0.178900 0.518600
H48 H -0.028300 0.714600 0.305700
H49 H 0.985400 0.178500 0.598300
H50 H 1.025800 0.157200 0.498900
H51 H 0.814900 0.219800 0.414300
H52 H 0.180300 0.544500 0.277000
H53 H 0.718100 0.179000 0.472700
H54 H 0.617200 0.315200 0.517500
H55 H 0.263000 0.503900 0.515600
H56 H 0.334400 0.520500 0.421700
H57 H 0.137900 0.494900 0.411100
H58 H 0.595600 0.281700 0.420900
H59 H -0.056000 0.706000 0.445000
H60 H 0.780600 0.359600 0.426900
H61 H 0.131000 0.692300 0.604900
H62 H 0.219400 0.640400 0.573100
H63 H 0.869000 0.307700 0.395100
H64 H 0.404400 0.718300 0.579100
H65 H 0.382800 0.684800 0.482500
H66 H 1.056000 0.294000 0.555000
H67 H 0.862100 0.505100 0.588900
H68 H 0.281900 0.821000 0.527300
H69 H 0.185100 0.780200 0.585700
H70 H 0.665600 0.479500 0.578300
H71 H -0.025800 0.842800 0.501100
H72 H 0.014600 0.821500 0.401700
H73 H 0.737000 0.496100 0.484400
H74 H 0.819700 0.455500 0.723000
H75 H -0.315900 0.821100 0.481400
H76 H -0.386100 0.763300 0.454300
H77 H 1.028300 0.285400 0.694300
H78 H -0.484400 0.822700 0.325400
H79 H -0.277900 0.833600 0.321000
H80 H 0.971200 0.315100 0.839700
H81 H 0.867300 0.441000 1.212600
H82 H -0.592800 0.731100 0.194000
H83 H -0.600200 0.743900 0.303400
H84 H 0.923200 0.407100 1.066300
H85 H -0.564500 0.653800 0.282900
H86 H -0.380000 0.664400 0.246900
H87 H 0.696600 0.535600 0.925700
H88 H 0.619000 0.567100 1.066500
H89 H -0.256700 0.606800 0.374400
H90 H -0.390400 0.609200 0.448500
H91 H 0.676900 0.156900 -0.056600
H92 H -0.086900 0.603600 0.531500
H93 H -0.176900 0.656900 0.556600
H94 H 0.586900 0.103600 -0.031500
H95 H 0.890400 0.109200 0.051500
H96 H 0.756700 0.106800 0.125600
H97 H 0.880000 0.164400 0.253100
H98 H 1.064500 0.153800 0.217100
H99 H 0.119000 -0.067100 0.566500
H100 H 1.100200 0.243900 0.196600
H101 H 0.196600 -0.035600 0.425700
H102 H 1.092800 0.231100 0.306000
H103 H 0.777900 0.333600 0.179000
H104 H 0.423200 0.092900 0.566300
H105 H 0.984400 0.322700 0.174600
H106 H 0.367300 0.059000 0.712600
H107 H 0.886100 0.263300 0.045700
H108 H 0.815900 0.321100 0.018600
H109 H 0.485400 0.321500 0.098300
H110 H 0.525800 0.342800 -0.001100
H111 H 0.471200 0.184900 0.339700
H112 H 0.314900 0.280200 -0.085700
H113 H 0.528300 0.214600 0.194300
H114 H 0.218100 0.321000 -0.027300
H115 H 0.882800 0.815200 0.982500
H116 H 0.117200 0.184800 0.017500
H117 H 0.319700 0.044500 0.223000
H118 H 0.095600 0.218300 -0.079100
H119 H 0.280600 0.140400 -0.073100
H120 H 0.237000 0.003900 -0.015600
H121 H 0.165600 0.020500 0.078300
H122 H 0.362100 -0.005100 0.088900
H123 H 0.369000 0.192300 -0.104900
H124 H 0.556000 0.206000 0.055000
C125 C 0.330000 0.174900 -0.050600
C126 C 0.362400 0.862800 1.004700
C127 C 0.272700 0.017900 0.049700
C128 C 0.183300 0.206700 -0.020900
C129 C 0.816700 0.793300 1.020900
C130 C 0.359300 0.079000 0.216000
C131 C 0.382700 0.097200 0.126700
C132 C 0.308100 0.292500 -0.020600
C133 C 0.448500 0.147600 0.120000
C134 C 0.483700 0.180400 0.199400
C135 C 0.491200 0.311600 0.031800
C136 C 0.452600 0.162500 0.285400
C137 C 0.394900 0.112400 0.293700
C138 C 0.205900 0.871900 0.924900
C139 C 0.803300 0.290800 0.059500
C140 C 0.670000 0.825100 1.050600
C141 C 0.041400 0.822700 0.789600
C142 C 0.862500 0.306700 0.164900
C143 C 0.328300 0.040800 0.653700
C144 C 0.363700 0.060500 0.567300
C145 C -0.021200 0.768800 0.760900
C146 C 1.021200 0.231200 0.239100
C147 C 0.310500 0.031800 0.483900
C148 C 0.225400 -0.016000 0.483500
C149 C 0.958600 0.177300 0.210400
C150 C 0.182200 -0.035200 0.566500
C151 C 0.235300 -0.005800 0.651000
C152 C 0.137500 0.693300 0.835100
C153 C 0.794100 0.128100 0.075100
C154 C 0.727300 0.982100 0.950300
C155 C 0.196700 0.709200 0.940500
C156 C 0.637600 0.137200 -0.004700
C157 C 0.640700 0.921000 0.784000
C158 C -0.137600 0.637200 0.504700
C159 C 0.617300 0.902800 0.873300
C160 C 0.551500 0.852400 0.880000
C161 C 0.516300 0.819600 0.800600
C162 C 0.735300 0.505800 1.151000
C163 C 0.682200 0.535200 1.066500
C164 C -0.294100 0.628100 0.424900
C165 C 0.725400 0.516000 0.983500
C166 C 0.508800 0.688400 0.968200
C167 C 0.810500 0.468200 0.983900
C168 C 0.863700 0.439500 1.067300
C169 C -0.458600 0.677300 0.289600
C170 C 0.828300 0.459200 1.153700
C171 C -0.521200 0.731200 0.260900
C172 C 0.547400 0.837500 0.714600
C173 C 0.605100 0.887600 0.706300
C174 C 0.894900 0.387600 0.793700
C175 C 0.952600 0.337500 0.785400
C176 C 0.691900 0.707500 1.020600
C177 C 0.983700 0.319600 0.699400
C178 C -0.362500 0.806700 0.335100
C179 C 0.948500 0.352400 0.620000
C180 C 0.882700 0.402800 0.626700
C181 C 0.859300 0.421000 0.716000
C182 C -0.303300 0.790800 0.440500
C183 C 0.671700 0.959200 0.346300
C184 C 0.772700 0.482100 0.549700
C185 C 0.636300 0.939500 0.432700
C186 C 0.008800 0.811600 0.468200
C187 C 0.191900 0.792500 0.520600
C188 C 0.689500 0.968200 0.516100
C189 C 0.774600 1.016000 0.516500
C190 C 0.830000 0.325100 0.449400
C191 C 0.316700 0.706700 0.520900
C192 C 0.170000 0.674900 0.550600
C193 C 0.683300 0.293300 0.479100
C194 C 0.817800 1.035200 0.433500
C195 C 0.227300 0.517900 0.450300
C196 C 0.764700 1.005800 0.349000
C197 C 0.808100 0.207500 0.479400
C198 C 0.264700 0.494200 -0.151000
C199 C 0.140700 0.579000 0.284000
C200 C 0.991200 0.188400 0.531800
C201 C 0.117300 0.597200 0.373300
C202 C 0.051500 0.647600 0.380000
C203 C 1.137600 0.362800 0.495300
C204 C 1.303300 0.209200 0.559500
C205 C 0.016300 0.680400 0.300600
C206 C 0.047400 0.662500 0.214600
C207 C 1.362500 0.193300 0.664900
C208 C 0.105100 0.612400 0.206300
C209 C 0.317800 0.464800 -0.066500
C210 C 0.274600 0.484000 0.016500
C211 C 1.521200 0.268800 0.739100
C212 C 1.294100 0.371900 0.575100
C213 C 0.171700 0.540800 -0.153700
C214 C 1.458600 0.322700 0.710400
C215 C 0.136300 0.560500 -0.067300
C216 C 0.189500 0.531800 0.016100
N217 N 0.869300 0.403450 0.887400
N218 N 0.161900 0.548930 0.107800
N219 N 0.369300 0.096550 0.387400
N220 N 0.130700 0.596550 0.112600
N221 N 0.338100 0.048930 0.392200
N222 N 0.506100 0.832270 0.968000
N223 N 0.312400 0.474700 -0.238100
N224 N 0.187600 -0.025300 0.738100
N225 N 0.687600 0.525300 1.238100
N226 N 0.812400 1.025300 0.261900
N227 N 0.838100 0.451070 0.892200
N228 N 0.006100 0.667730 0.468000
N229 N 0.630700 0.903450 0.612600
N230 N 0.661900 0.951070 0.607800
N231 N 0.993900 0.332270 0.532000
N232 N 0.493900 0.167730 0.032000
O233 O -0.122900 0.772210 0.466000
O234 O 0.744500 0.749160 0.965800
O235 O 0.850800 0.431350 0.545900
O236 O -0.368600 0.765070 0.267800
O237 O 0.244500 0.750840 0.465800
O238 O 0.228100 0.492280 -0.315800
O239 O 1.360900 0.322530 0.613800
O240 O 0.755500 0.249160 0.534200
O241 O -0.360900 0.677470 0.386200
O242 O 0.728100 1.007720 0.184200
O243 O 0.377100 0.727790 0.966000
O244 O 0.771900 0.507720 1.315800
O245 O 0.566900 0.558140 1.230000
O246 O 0.066900 -0.058140 0.730000
O247 O 0.271900 -0.007720 0.815800
O248 O 0.649200 0.931350 0.954100
O249 O 0.933100 1.058140 0.270000
O250 O 0.860900 0.177470 0.113800
O251 O 0.131400 0.734930 0.767800
O252 O 0.868600 0.265070 0.232200
O253 O 0.149200 0.568650 0.454100
O254 O 1.122900 0.227790 0.534000
O255 O 1.368600 0.234930 0.732200
O256 O 0.139100 0.822530 0.886200
O257 O 0.622900 0.272210 0.034000
O258 O 0.350800 0.068650 0.045900
O259 O 0.433100 0.441860 -0.230000
O260 O 0.255500 0.250840 0.034200
F261 F 0.050600 0.901890 0.112200
F262 F 0.109200 0.951980 0.246100
F263 F 0.222800 0.882170 0.333800
F264 F 0.166300 0.833090 0.199400
F265 F -0.059000 0.879300 0.240800
F266 F 0.331900 0.905770 0.204900
F267 F 0.831900 0.594230 0.704900
F268 F 0.449400 0.401890 0.387800
F269 F 0.390800 0.451980 0.253900
F270 F 0.277200 0.382170 0.166200
F271 F 0.333700 0.333090 0.300600
F272 F 0.559000 0.379300 0.259200
F273 F 0.168100 0.405770 0.295100
F274 F 0.441000 0.620700 0.740800
F275 F 0.949400 0.098110 0.887800
F276 F 0.890800 0.048020 0.753900
F277 F 0.777200 0.117830 0.666200
F278 F 0.833700 0.166910 0.800600
F279 F 1.059000 0.120700 0.759200
F280 F 0.668100 0.094230 0.795100
F281 F 0.666300 0.666910 0.699400
F282 F 0.550600 0.598110 0.612200
F283 F 0.609200 0.548020 0.746100
F284 F 0.722800 0.617830 0.833800
P285 P 0.364300 0.392430 0.277340
P286 P 0.135700 0.892430 0.222660
P287 P 0.635700 0.607570 0.722660
P288 P 0.864300 0.107570 0.777340

#END
