./ACUYUU_from_POSCAR.cif_generated_by_CrystalShift
_symmetry_cell_setting triclinic
_symmetry_space_group_name_H-M 'P 1'
loop_
_symmetry_equiv_pos_site_id
_symmetry_equiv_pos_as_xyz
1 x,y,z
_cell_length_a 15.423000
_cell_length_b 9.935000
_cell_length_c 17.829000
_cell_angle_alpha 90.000000
_cell_angle_beta 105.284000
_cell_angle_gamma 90.000000
_cell_volume 2635.269043
loop_
_atom_site_label
_atom_site_type_symbol
_atom_site_fract_x
_atom_site_fract_y
_atom_site_fract_z
H1 H 1.007800 0.064900 0.890200
H2 H 1.094400 0.159800 0.916000
H3 H 1.091500 0.359400 1.006500
H4 H 1.081900 0.248000 1.068700
H5 H 1.010600 0.368300 1.047000
H6 H 0.945200 0.173500 0.983000
H7 H 0.662900 0.292700 0.719600
H8 H 0.664000 0.441600 0.685500
H9 H 0.581800 0.394000 0.718300
H10 H 0.609300 0.594000 0.813900
H11 H 0.686400 0.639900 0.774300
H12 H 0.709400 0.619200 0.866400
H13 H 0.675400 0.383700 0.845200
H14 H 1.047300 0.371500 0.857900
H15 H 0.969100 0.515000 0.760000
H16 H 0.815600 0.545400 0.738000
H17 H 0.456200 0.415800 0.942300
H18 H 0.479400 0.398200 0.860500
H19 H 0.555500 0.447000 0.935100
H20 H 0.397500 0.180600 0.922000
H21 H 0.465700 0.057200 0.928300
H22 H 0.436100 0.142900 0.849700
H23 H 0.576600 0.218500 0.910400
H24 H 0.846200 0.302200 1.159400
H25 H 0.914800 0.202600 1.216400
H26 H 0.831500 0.264800 1.242500
H27 H 0.770700 -0.083700 1.193800
H28 H 0.788900 0.019100 1.265400
H29 H 0.870800 -0.033600 1.233900
H30 H 0.814800 0.081500 1.116300
H31 H 0.456700 0.266500 1.057900
H32 H 0.517100 0.226100 1.190000
H33 H 0.133200 0.549100 0.442700
H34 H 0.211600 0.596600 0.405100
H35 H 0.227700 0.597600 0.497500
H36 H 0.163800 0.351500 0.736500
H37 H 0.017100 0.273900 0.690000
H38 H -0.043300 0.233500 0.557900
H39 H 0.314800 0.418500 0.616300
H40 H 0.370800 0.533600 0.733900
H41 H 0.288900 0.480900 0.765400
H42 H 0.270700 0.583700 0.693800
H43 H 0.331500 0.235200 0.742500
H44 H 0.414800 0.297400 0.716400
H45 H 0.346200 0.197800 0.659400
H46 H 0.076600 0.281500 0.410400
H47 H -0.063900 0.357100 0.349700
H48 H -0.034300 0.442800 0.428300
H49 H -0.102500 0.319400 0.422000
H50 H 0.055500 0.053000 0.435100
H51 H -0.020600 0.101800 0.360500
H52 H -0.043800 0.084200 0.442300
H53 H 0.315600 -0.045400 0.238000
H54 H 0.469100 -0.015000 0.260000
H55 H 0.547300 0.128500 0.357900
H56 H 0.175400 0.116300 0.345200
H57 H 0.209400 -0.119200 0.366400
H58 H 0.186400 -0.139900 0.274300
H59 H 0.109300 -0.094000 0.313900
H60 H 0.081800 0.106000 0.218300
H61 H 0.164000 0.058400 0.185500
H62 H 0.162900 0.207300 0.219600
H63 H 0.445200 0.326500 0.483000
H64 H 0.510600 0.131700 0.547000
H65 H 0.581900 0.252000 0.568700
H66 H 0.591500 0.140600 0.506500
H67 H 0.594400 0.340200 0.416000
H68 H 0.572900 0.446200 0.476200
H69 H 0.507800 0.435100 0.390200
H70 H 0.663800 0.148500 1.236500
H71 H 0.727700 -0.097600 0.997500
H72 H 0.711600 -0.096600 0.905100
H73 H 0.633200 -0.049100 0.942700
H74 H 0.492200 0.564900 0.609800
H75 H 0.427100 0.553800 0.523800
H76 H 0.405600 0.659800 0.584000
H77 H 0.408500 0.859400 0.493500
H78 H 0.418100 0.748000 0.431300
H79 H 0.489400 0.868300 0.453000
H80 H 0.554800 0.673500 0.517000
H81 H 0.837100 0.792700 0.780400
H82 H 0.836000 0.941600 0.814500
H83 H 0.918200 0.894000 0.781700
H84 H 0.890700 1.094000 0.686100
H85 H 0.813600 1.139900 0.725700
H86 H 0.790600 1.119200 0.633600
H87 H 0.824600 0.883700 0.654800
H88 H 0.452700 0.871500 0.642100
H89 H 0.530900 1.015000 0.740000
H90 H 0.684400 1.045400 0.762000
H91 H 1.043800 0.915800 0.557700
H92 H 1.020600 0.898200 0.639500
H93 H 0.944500 0.947000 0.564900
H94 H 1.102500 0.680600 0.578000
H95 H 1.034300 0.557200 0.571700
H96 H 1.063900 0.642900 0.650300
H97 H 0.923400 0.718500 0.589600
H98 H 0.653800 0.802200 0.340600
H99 H 0.585200 0.702600 0.283600
H100 H 0.668500 0.764800 0.257500
H101 H 0.729300 0.416300 0.306200
H102 H 0.366800 1.049100 0.057300
H103 H 0.288400 1.096600 0.094900
H104 H 0.272300 1.097600 0.002500
H105 H 0.336200 0.851500 -0.236500
H106 H 0.482900 0.773900 -0.190000
H107 H 0.543300 0.733500 -0.057900
H108 H 0.185200 0.918500 -0.116300
H109 H 0.129200 1.033600 -0.233900
H110 H 0.211100 0.980900 -0.265400
H111 H 0.229300 1.083700 -0.193800
H112 H 0.168500 0.735200 -0.242500
H113 H 0.085200 0.797400 -0.216400
H114 H 0.153800 0.697800 -0.159400
H115 H 0.423400 0.781500 0.089600
H116 H 0.563900 0.857100 0.150300
H117 H 0.534300 0.942800 0.071700
H118 H 0.602500 0.819400 0.078000
H119 H 0.444500 0.553000 0.064900
H120 H 0.520600 0.601800 0.139500
H121 H 0.543800 0.584200 0.057700
H122 H 0.184400 0.454600 0.262000
H123 H 0.030900 0.485000 0.240000
H124 H -0.047300 0.628500 0.142100
H125 H 0.324600 0.616300 0.154800
H126 H 0.290600 0.380800 0.133600
H127 H 0.313600 0.360100 0.225700
H128 H 0.390700 0.406000 0.186100
H129 H 0.418200 0.606000 0.281700
H130 H 0.336000 0.558400 0.314500
H131 H 0.337100 0.707300 0.280400
H132 H 0.054800 0.826500 0.017000
H133 H -0.010600 0.631700 -0.047000
H134 H -0.081900 0.752000 -0.068700
H135 H -0.091500 0.640600 -0.006500
H136 H -0.094400 0.840200 0.084000
H137 H -0.072900 0.946200 0.023800
H138 H -0.007800 0.935100 0.109800
H139 H 0.711100 0.519100 0.234600
H140 H 0.629200 0.466400 0.266100
H141 H 0.685200 0.581500 0.383700
H142 H 1.043300 0.766500 0.442100
H143 H 0.982900 0.726100 0.310000
H144 H 0.836200 0.648500 0.263500
H145 H 0.772300 0.402400 0.502500
H146 H 0.788400 0.403400 0.594900
H147 H 0.866800 0.450900 0.557300
H148 H 1.072900 0.053800 0.976200
C149 C 0.858900 0.668600 0.317230
C150 C 0.946800 0.712900 0.345080
C151 C 0.982550 0.738100 0.423730
C152 C 0.930240 0.722200 0.476010
C153 C 0.705890 0.611100 0.337650
C154 C 0.692700 0.492600 0.281080
C155 C 0.648200 0.730900 0.301600
C156 C 0.970700 0.742400 0.562850
C157 C 1.049900 0.647300 0.593440
C158 C 0.997300 0.889100 0.583050
C159 C 0.653720 0.830500 0.620780
C160 C 0.702610 0.917500 0.678360
C161 C 0.653930 0.985600 0.722160
C162 C 0.562350 0.967900 0.708970
C163 C 0.515790 0.882200 0.650770
C164 C 0.560980 0.811400 0.604690
C165 C 0.803570 0.937800 0.693920
C166 C 0.826700 1.086200 0.683900
C167 C 0.853200 0.886900 0.774900
C168 C 0.509680 0.721700 0.538490
C169 C 0.451200 0.807000 0.473220
C170 C 0.453600 0.615500 0.566550
C171 C 0.840170 0.683100 0.446420
C172 C 0.801700 0.449800 0.550660
C173 C 0.781150 0.689600 0.499600
C174 C 0.736850 0.803000 0.517620
C175 C 0.263150 0.197000 0.482380
C176 C 0.218850 0.310400 0.500400
C177 C 0.198300 0.550200 0.449340
C178 C 0.159830 0.316900 0.553580
C179 C 0.196530 0.346900 0.632920
C180 C -0.046400 0.884500 0.066550
C181 C -0.048800 0.693000 -0.026780
C182 C 0.009680 0.778300 0.038490
C183 C 0.353200 0.613100 0.274900
C184 C 0.326700 0.413800 0.183900
C185 C 0.303570 0.562200 0.193920
C186 C 0.060980 0.688600 0.104690
C187 C 0.015790 0.617800 0.150770
C188 C 0.062350 0.532100 0.208970
C189 C 0.153930 0.514400 0.222160
C190 C 0.202610 0.582500 0.178360
C191 C 0.153720 0.669500 0.120780
C192 C 0.497300 0.610900 0.083050
C193 C 0.549900 0.852700 0.093440
C194 C 0.470700 0.757600 0.062850
C195 C 0.148200 0.769100 -0.198400
C196 C 0.192700 1.007400 -0.218920
C197 C 0.205890 0.888900 -0.162350
C198 C 0.430240 0.777800 -0.023990
C199 C 0.482550 0.761900 -0.076270
C200 C 0.446800 0.787100 -0.154920
C201 C 0.358900 0.831400 -0.182770
C202 C 0.303470 0.846900 -0.132920
C203 C 0.340170 0.816900 -0.053580
C204 C 0.301700 1.050200 0.050660
C205 C 0.281150 0.810400 -0.000400
C206 C 0.236850 0.697000 0.017620
C207 C 0.141100 0.331400 0.682770
C208 C 0.053200 0.287100 0.654920
C209 C 0.017450 0.261900 0.576270
C210 C 0.069760 0.277800 0.523990
C211 C 0.294110 0.388900 0.662350
C212 C 0.803470 0.653100 0.367080
C213 C 0.763150 0.303000 0.982380
C214 C 0.718850 0.189600 1.000400
C215 C 0.698300 -0.050200 0.949340
C216 C 0.659830 0.183100 1.053580
C217 C 0.696530 0.153100 1.132920
C218 C 0.641100 0.168600 1.182770
C219 C 0.553200 0.212900 1.154920
C220 C 0.517450 0.238100 1.076270
C221 C 0.569760 0.222200 1.023990
C222 C 0.794110 0.111100 1.162350
C223 C 0.807300 -0.007400 1.218920
C224 C 0.851800 0.230900 1.198400
C225 C 0.529300 0.242400 0.937150
C226 C 0.450100 0.147300 0.906560
C227 C 0.502700 0.389100 0.916950
C228 C 0.846280 0.330500 0.879220
C229 C 0.797390 0.417500 0.821640
C230 C 0.846070 0.485600 0.777840
C231 C 0.937650 0.467900 0.791030
C232 C 0.984210 0.382200 0.849230
C233 C 0.939020 0.311400 0.895310
C234 C 0.696430 0.437800 0.806080
C235 C 0.673300 0.586200 0.816100
C236 C 0.646800 0.386900 0.725100
C237 C 0.990320 0.221700 0.961510
C238 C 1.048800 0.307000 1.026780
C239 C 1.046400 0.115500 0.933450
C240 C 0.307300 0.507400 0.718920
C241 C 0.351800 0.269100 0.698400
C242 C 0.029300 0.257600 0.437150
C243 C -0.049900 0.352700 0.406560
C244 C 0.546400 0.384500 0.433450
C245 C 0.548800 0.193000 0.526780
C246 C 0.490320 0.278300 0.461510
C247 C 0.146800 0.113100 0.225100
C248 C 0.173300 -0.086200 0.316100
C249 C 0.196430 0.062200 0.306080
C250 C 0.439020 0.188600 0.395310
C251 C 0.484210 0.117800 0.349230
C252 C 0.437650 0.032100 0.291030
C253 C 0.346070 0.014400 0.277840
C254 C 0.297390 0.082500 0.321640
C255 C 0.346280 0.169500 0.379220
C256 C 0.002700 0.110900 0.416950
N257 N 0.731880 0.088100 0.953280
N258 N 0.231880 0.411900 0.453280
N259 N 0.202760 0.744300 0.075750
N260 N 0.220400 0.873900 0.094760
N261 N 0.779600 0.126100 0.905240
N262 N 0.797240 0.255700 0.924250
N263 N 0.768120 0.588100 0.546720
N264 N 0.297240 0.244300 0.424250
N265 N 0.268120 0.911900 0.046720
N266 N 0.720400 0.626100 0.594760
N267 N 0.702760 0.755700 0.575750
N268 N 0.279600 0.373900 0.405240
Cl269 Cl 0.757420 0.660250 1.082560
Cl270 Cl 0.242580 0.339750 -0.082560
Cl271 Cl 0.257420 -0.160250 0.582560
Cl272 Cl 0.742580 1.160250 0.417440
Cu273 Cu 0.735400 0.975260 0.473234
Cu274 Cu 0.764600 0.475260 1.026766
Cu275 Cu 0.235400 0.524740 -0.026766
Cu276 Cu 0.264600 0.024740 0.526766

#END
