./ACUZED_from_POSCAR.cif_generated_by_CrystalShift
_symmetry_cell_setting triclinic
_symmetry_space_group_name_H-M 'P 1'
loop_
_symmetry_equiv_pos_site_id
_symmetry_equiv_pos_as_xyz
1 x,y,z
_cell_length_a 15.101000
_cell_length_b 13.303000
_cell_length_c 15.842000
_cell_angle_alpha 90.000000
_cell_angle_beta 97.290000
_cell_angle_gamma 90.000000
_cell_volume 3156.752026
loop_
_atom_site_label
_atom_site_type_symbol
_atom_site_fract_x
_atom_site_fract_y
_atom_site_fract_z
H1 H 0.368200 0.358900 0.475800
H2 H 0.517500 0.395800 0.523900
H3 H 0.624400 0.387000 0.430600
H4 H 0.584500 0.329100 0.292600
H5 H 0.436300 0.287900 0.244900
H6 H 0.336100 0.436000 0.205000
H7 H 0.318600 1.225800 0.052800
H8 H 0.303100 0.508700 0.070000
H9 H 0.313000 1.293700 -0.083900
H10 H 0.178400 0.453700 -0.020000
H11 H 0.289100 1.189500 -0.203100
H12 H 0.091800 0.322500 0.019800
H13 H 0.273800 1.017600 -0.185700
H14 H 0.125200 0.248700 0.153200
H15 H 0.279500 0.948500 -0.050200
H16 H -0.022200 0.174900 0.505900
H17 H 0.009800 0.044700 0.603400
H18 H 0.382100 1.023000 0.320300
H19 H 0.156100 0.014600 0.663900
H20 H 0.523600 1.047900 0.393200
H21 H 0.270300 0.114300 0.625700
H22 H 0.638300 1.108800 0.322300
H23 H 0.240400 0.244200 0.527000
H24 H 0.612200 1.143200 0.177400
H25 H 0.063900 0.115500 0.357700
H26 H 0.473000 1.111200 0.101400
H27 H -0.001400 0.020400 0.243200
H28 H -0.087600 0.098000 0.129400
H29 H 0.543000 0.867000 0.255700
H30 H -0.104300 0.271500 0.127400
H31 H 0.604300 0.771500 0.372600
H32 H -0.043000 0.367000 0.244300
H33 H 0.587600 0.598000 0.370600
H34 H 0.027000 0.611200 0.398600
H35 H 0.501400 0.520400 0.256800
H36 H -0.112200 0.643200 0.322600
H37 H 0.436100 0.615500 0.142300
H38 H -0.138300 0.608800 0.177700
H39 H -0.023600 0.547900 0.106800
H40 H 0.259600 0.744200 -0.027000
H41 H 0.117900 0.523000 0.179700
H42 H 0.229700 0.614300 -0.125700
H43 H 0.220500 0.448500 0.550200
H44 H 0.343900 0.514600 -0.163900
H45 H 0.226200 0.517600 0.685700
H46 H 0.490200 0.544700 -0.103400
H47 H 0.210900 0.689500 0.703100
H48 H 0.522200 0.674900 -0.005900
H49 H 0.187000 0.793700 0.583900
H50 H 0.181400 0.725800 0.447200
H51 H 0.374800 0.748700 0.346800
H52 H 0.868200 0.141100 0.975800
H53 H 0.408200 0.822500 0.480200
H54 H 1.017500 0.104200 1.023900
H55 H 0.321600 0.953700 0.520000
H56 H 1.124400 0.113000 0.930600
H57 H 0.196900 1.008700 0.430000
H58 H 1.084500 0.170900 0.792600
H59 H 0.163900 0.936000 0.295000
H60 H 0.936300 0.212100 0.744900
H61 H 0.836100 0.064000 0.705000
H62 H 0.063700 0.787900 0.255100
H63 H 0.803100 -0.008700 0.570000
H64 H -0.084500 0.829100 0.207400
H65 H 0.678400 0.046300 0.480000
H66 H -0.124400 0.887000 0.069400
H67 H 0.591800 0.177500 0.519800
H68 H -0.017500 0.895800 -0.023900
H69 H 0.625200 0.251300 0.653200
H70 H 0.131800 0.858900 0.024200
H71 H 0.477800 0.325100 1.005900
H72 H 0.509800 0.455300 1.103400
H73 H 0.656100 0.485400 1.163900
H74 H 0.770300 0.385700 1.125700
H75 H 0.740400 0.255800 1.027000
H76 H 0.563900 0.384500 0.857700
H77 H 0.818600 0.274200 0.552800
H78 H 0.498600 0.479600 0.743200
H79 H 0.813000 0.206300 0.416100
H80 H 0.412400 0.402000 0.629400
H81 H 0.789100 0.310500 0.296900
H82 H 0.395700 0.228500 0.627400
H83 H 0.773800 0.482400 0.314300
H84 H 0.457000 0.133000 0.744300
H85 H 0.779500 0.551500 0.449800
H86 H 0.527000 -0.111200 0.898600
H87 H 0.387800 -0.143200 0.822600
H88 H 0.882100 0.477000 0.820300
H89 H 0.361700 -0.108800 0.677700
H90 H 1.023600 0.452100 0.893200
H91 H 0.476400 -0.047900 0.606800
H92 H 1.138300 0.391200 0.822300
H93 H 0.617900 -0.023000 0.679700
H94 H 1.112200 0.356800 0.677400
H95 H 0.720500 0.051500 1.050200
H96 H 0.973000 0.388800 0.601400
H97 H 0.726200 -0.017600 1.185700
H98 H 0.710900 -0.189500 1.203100
H99 H 1.043000 0.633000 0.755700
H100 H 0.687000 -0.293700 1.083900
H101 H 1.104300 0.728500 0.872600
H102 H 0.681400 -0.225800 0.947200
H103 H 1.087600 0.902000 0.870600
H104 H 0.631800 0.641100 0.524200
H105 H 1.001400 0.979600 0.756800
H106 H 0.482500 0.604200 0.476100
H107 H 0.936100 0.884500 0.642300
H108 H 0.375600 0.613000 0.569400
H109 H 0.415500 0.670900 0.707400
H110 H 0.759600 0.755800 0.473000
H111 H 0.563700 0.712100 0.755100
H112 H 0.729700 0.885700 0.374300
H113 H 0.663900 0.564000 0.795000
H114 H 0.843900 0.985400 0.336100
H115 H 0.696900 0.491300 0.930000
H116 H 0.990200 0.955300 0.396600
H117 H 0.821600 0.546300 1.020000
H118 H 1.022200 0.825100 0.494100
H119 H 0.908200 0.677500 0.980200
H120 H 0.874800 0.751300 0.846800
C121 C 0.838500 0.698200 0.863000
C122 C 0.858600 0.654300 0.942300
C123 C 0.765200 0.665400 0.806200
C124 C 0.806800 0.577100 0.966000
C125 C 0.962100 0.837500 0.470600
C126 C 0.733300 0.543500 0.912500
C127 C 0.943100 0.914600 0.412000
C128 C 0.713700 0.587600 0.832400
C129 C 0.856600 0.932600 0.376200
C130 C 0.613800 0.679200 0.644000
C131 C 0.547900 0.688900 0.698500
C132 C 0.789400 0.873700 0.399000
C133 C 0.459600 0.664500 0.670000
C134 C 0.807100 0.796300 0.458000
C135 C 0.435700 0.631200 0.588100
C136 C 0.894000 0.778300 0.494800
C137 C 0.499200 0.624500 0.533400
C138 C 0.971500 0.852300 0.688300
C139 C 0.588100 0.647500 0.562100
C140 C 1.009800 0.908900 0.756600
C141 C 0.500800 0.375500 0.466600
C142 C 0.564300 0.368800 0.411900
C143 C 0.540400 0.335500 0.330000
C144 C 0.298900 1.079400 0.015600
C145 C 0.701100 -0.079400 0.984400
C146 C 0.690800 -0.182900 0.995500
C147 C 1.060400 0.862700 0.824300
C148 C 0.694200 -0.223400 1.076900
C149 C 1.071400 0.760500 0.825000
C150 C 0.707900 -0.161600 1.147600
C151 C 1.034100 0.703700 0.755500
C152 C 0.717300 -0.060100 1.137200
C153 C 0.984200 0.748700 0.686100
C154 C 0.713900 -0.019100 1.056400
C155 C 0.982600 0.401100 0.661000
C156 C 0.587700 -0.062300 0.797700
C157 C 0.570900 -0.045600 0.709600
C158 C 1.065500 0.382900 0.705900
C159 C 0.487300 -0.061700 0.666000
C160 C 1.080800 0.402500 0.791900
C161 C 0.419200 -0.097500 0.708100
C162 C 1.012700 0.438300 0.834000
C163 C 0.434500 -0.117100 0.794100
C164 C 0.929100 0.454400 0.790400
C165 C 0.517400 -0.098900 0.839000
C166 C 0.912300 0.437700 0.702300
C167 C 0.515800 0.248700 0.813900
C168 C 0.465900 0.203700 0.744500
C169 C 0.786100 0.480900 0.443600
C170 C 0.428600 0.260500 0.675000
C171 C 0.782700 0.439900 0.362800
C172 C 0.439600 0.362700 0.675700
C173 C 0.792100 0.338400 0.352400
C174 C 0.490200 0.408900 0.743400
C175 C 0.805800 0.276600 0.423100
C176 C 0.528500 0.352300 0.811700
C177 C 0.809200 0.317100 0.504500
C178 C 0.606000 0.278300 1.005200
C179 C 0.692900 0.296300 1.042000
C180 C 0.798900 0.420600 0.515600
C181 C 0.710600 0.373700 1.101000
C182 C 0.452100 0.311100 0.301500
C183 C 0.643400 0.432600 1.123800
C184 C 0.386200 0.320800 0.356000
C185 C 0.556900 0.414600 1.088000
C186 C 0.309200 1.182900 0.004500
C187 C 0.537900 0.337500 1.029400
C188 C 0.286300 0.412400 0.167600
C189 C 0.734800 0.165400 0.693800
C190 C 0.661500 0.198200 0.637000
C191 C 0.088100 0.852500 0.062100
C192 C 0.641400 0.154300 0.557700
C193 C -0.000800 0.875500 0.033400
C194 C 0.693200 0.077100 0.534000
C195 C -0.064300 0.868800 0.088100
C196 C 0.766700 0.043500 0.587500
C197 C -0.040400 0.835500 0.170000
C198 C 0.786300 0.087600 0.667600
C199 C 0.047900 0.811100 0.198500
C200 C 0.886200 0.179200 0.856000
C201 C 0.952100 0.188900 0.801500
C202 C 0.113800 0.820800 0.144000
C203 C 1.040400 0.164500 0.830000
C204 C 0.213700 0.912400 0.332400
C205 C 1.064300 0.131200 0.911900
C206 C 0.233300 0.956500 0.412500
C207 C 1.000800 0.124500 0.966600
C208 C 0.306800 0.922900 0.466000
C209 C 0.911900 0.147500 0.937900
C210 C 0.358600 0.845700 0.442300
C211 C 0.305800 1.223400 -0.076900
C212 C 0.266700 0.456500 0.087500
C213 C 0.292100 1.161600 -0.147600
C214 C 0.193200 0.422900 0.034000
C215 C 0.201100 0.579400 0.484400
C216 C 0.190800 0.682900 0.495500
C217 C 0.338500 0.801800 0.363000
C218 C 0.194200 0.723400 0.576900
C219 C 0.265200 0.834600 0.306200
C220 C 0.207900 0.661600 0.647600
C221 C 0.462100 0.662500 -0.029400
C222 C 0.217300 0.560100 0.637200
C223 C 0.443100 0.585400 -0.088000
C224 C 0.213900 0.519100 0.556400
C225 C 0.356600 0.567400 -0.123800
C226 C 0.087700 0.562300 0.297700
C227 C 0.070900 0.545600 0.209600
C228 C 0.289400 0.626300 -0.101000
C229 C -0.012700 0.561700 0.166000
C230 C 0.307100 0.703700 -0.042000
C231 C -0.080800 0.597500 0.208100
C232 C 0.394000 0.721700 -0.005200
C233 C -0.065500 0.617100 0.294100
C234 C 0.471500 0.647700 0.188300
C235 C 0.017400 0.598900 0.339000
C236 C 0.509800 0.591100 0.256600
C237 C 0.015800 0.251300 0.313900
C238 C -0.034100 0.296300 0.244500
C239 C 0.560400 0.637300 0.324300
C240 C -0.071400 0.239500 0.175000
C241 C 0.571400 0.739500 0.325000
C242 C -0.060400 0.137300 0.175700
C243 C 0.534100 0.796300 0.255500
C244 C -0.009800 0.091100 0.243400
C245 C 0.484200 0.751300 0.186100
C246 C 0.028500 0.147700 0.311700
C247 C 0.482600 1.098900 0.161000
C248 C 0.106000 0.221700 0.505200
C249 C 0.192900 0.203700 0.542000
C250 C 0.565500 1.117100 0.205900
C251 C 0.210600 0.126300 0.601000
C252 C 0.580800 1.097500 0.291900
C253 C 0.143400 0.067400 0.623800
C254 C 0.512700 1.061700 0.334000
C255 C 0.056900 0.085400 0.588000
C256 C 0.429100 1.045600 0.290400
C257 C 0.037900 0.162500 0.529400
C258 C 0.412300 1.062300 0.202300
C259 C 0.234800 0.334600 0.193800
C260 C 0.161500 0.301800 0.137000
C261 C 0.286100 1.019100 -0.056400
C262 C 0.141400 0.345700 0.057700
C263 C 0.282700 1.060100 -0.137200
C264 C 0.411900 0.352500 0.437900
N265 N 0.307700 0.874800 0.114900
N266 N 0.692300 0.125200 0.885100
N267 N 0.807700 0.625200 0.614900
N268 N 0.192300 0.374800 0.385100
Sb269 Sb 0.932121 0.654370 0.580359
Sb270 Sb 0.747438 0.733030 0.681256
Sb271 Sb 0.218577 0.523100 0.360357
Sb272 Sb 0.067879 0.345630 0.419641
Sb273 Sb 0.752562 0.233030 0.818744
Sb274 Sb 0.252562 0.266970 0.318744
Sb275 Sb 0.567879 0.154370 0.919641
Sb276 Sb 0.247438 0.766970 0.181256
Sb277 Sb 0.718577 -0.023100 0.860357
Sb278 Sb 0.432121 0.845630 0.080359
Sb279 Sb 0.781423 0.476900 0.639643
Sb280 Sb 0.281423 1.023100 0.139643

#END
