./ADAFUG_from_POSCAR.cif_generated_by_CrystalShift
_symmetry_cell_setting triclinic
_symmetry_space_group_name_H-M 'P 1'
loop_
_symmetry_equiv_pos_site_id
_symmetry_equiv_pos_as_xyz
1 x,y,z
_cell_length_a 8.908400
_cell_length_b 15.503000
_cell_length_c 12.717000
_cell_angle_alpha 90.000000
_cell_angle_beta 97.790000
_cell_angle_gamma 90.000000
_cell_volume 1740.097721
loop_
_atom_site_label
_atom_site_type_symbol
_atom_site_fract_x
_atom_site_fract_y
_atom_site_fract_z
H1 H 0.723400 0.776500 0.534600
H2 H 0.757800 0.913100 0.603200
H3 H 0.840900 0.933600 0.782600
H4 H 0.854400 0.679100 0.823700
H5 H 1.090500 0.591300 0.596900
H6 H 1.011100 0.624900 0.487000
H7 H 1.016000 0.683100 0.588300
H8 H 0.581000 0.339800 0.516300
H9 H 0.841700 0.301800 0.466600
H10 H 1.011800 0.435200 0.499700
H11 H 0.622500 -0.063400 0.012500
H12 H 0.683300 0.626500 0.333800
H13 H 0.668700 0.066800 -0.101900
H14 H 0.448200 0.530500 0.322800
H15 H 0.852400 0.165000 0.002900
H16 H 0.515800 0.382400 0.257800
H17 H 0.913900 0.101900 0.187800
H18 H 0.792500 0.383800 0.227400
H19 H 0.773900 -0.035100 0.194300
H20 H 0.899100 0.536500 0.272700
H21 H 0.365600 0.154600 -0.027100
H22 H 0.945100 0.409300 0.792800
H23 H 0.549300 0.268300 0.060200
H24 H 0.861200 0.156000 0.743200
H25 H 0.634600 0.226600 0.251600
H26 H 0.608900 0.180600 0.754700
H27 H 0.522600 0.317200 0.787100
H28 H 0.834900 0.519400 1.012600
H29 H 0.686700 0.475700 1.040800
H30 H 0.199400 -0.077400 0.017400
H31 H 0.313300 -0.024300 -0.040800
H32 H 0.165100 0.019400 -0.012600
H33 H 0.800600 0.422600 0.982600
H34 H 0.365400 0.726600 0.748400
H35 H 0.477400 -0.182800 0.212900
H36 H 0.450700 0.768300 0.939800
H37 H 0.391100 -0.319400 0.245300
H38 H 0.634400 0.654600 1.027100
H39 H 0.138800 -0.344000 0.256800
H40 H 0.226100 0.464900 0.805700
H41 H 0.086100 0.601900 0.812200
H42 H 0.054900 -0.090700 0.207200
H43 H 0.147600 0.665000 0.997100
H44 H 0.100900 0.036500 0.727300
H45 H 0.331300 0.566800 1.101900
H46 H 0.207500 -0.116200 0.772600
H47 H 0.377500 0.436600 0.987500
H48 H 0.484200 -0.117600 0.742200
H49 H 0.276600 0.276500 0.465400
H50 H 0.551800 0.030500 0.677200
H51 H 0.242200 0.413100 0.396800
H52 H 0.316700 0.126500 0.666200
H53 H 0.159100 0.433600 0.217400
H54 H -0.011800 -0.064800 0.500300
H55 H 0.145600 0.179100 0.176300
H56 H 0.158300 -0.198200 0.533400
H57 H -0.090500 0.091300 0.403100
H58 H 0.419000 -0.160200 0.483700
H59 H -0.011100 0.124900 0.513000
H60 H -0.016000 0.183100 0.411700
C61 C 0.139500 0.086590 0.415500
C62 C -0.007800 0.124900 0.437800
C63 C 0.181300 -0.001770 0.447100
C64 C 0.329400 -0.035310 0.440980
C65 C 0.331100 -0.121580 0.477200
C66 C 0.210700 0.213520 0.328300
C67 C 0.163100 0.226200 0.221700
C68 C 0.187300 -0.142700 0.505200
C69 C 0.141300 0.308900 0.182200
C70 C 0.171600 0.378200 0.245200
C71 C 0.094100 -0.069050 0.487800
C72 C 0.221900 0.365600 0.352500
C73 C 0.323200 0.066050 0.689000
C74 C 0.242000 0.284150 0.393700
C75 C 0.452800 0.013290 0.695600
C76 C 0.778100 0.865600 0.647500
C77 C 0.828400 0.878200 0.754800
C78 C 0.858700 0.808900 0.817800
C79 C 0.836900 0.726200 0.778300
C80 C 0.789300 0.713520 0.671700
C81 C 1.007800 0.624900 0.562200
C82 C 0.860500 0.586590 0.584500
C83 C 0.818700 0.498230 0.552900
C84 C 0.670600 0.464690 0.559020
C85 C 0.314200 0.487000 0.966000
C86 C 0.415500 -0.068100 0.731200
C87 C 0.287300 0.558000 1.027800
C88 C 0.263100 -0.067700 0.747200
C89 C 0.188500 0.611400 0.971500
C90 C 0.204100 0.016600 0.722200
C91 C 0.155700 0.577000 0.870700
C92 C 0.123700 -0.136200 0.214300
C93 C 0.230900 0.503000 0.867500
C94 C 0.076900 -0.219800 0.231500
C95 C 0.583300 0.653900 0.953900
C96 C 0.173500 -0.288900 0.244100
C97 C 0.483700 0.716700 0.904800
C98 C 0.323000 -0.273700 0.237200
C99 C 0.436500 0.693900 0.799000
C100 C 0.375500 -0.191600 0.218400
C101 C 0.505400 0.614220 0.778000
C102 C 0.596700 0.589770 0.875500
C103 C 0.673600 0.506110 0.884200
C104 C 0.756400 0.478400 0.989600
C105 C 0.275400 -0.122600 0.208000
C106 C 0.243600 -0.021600 0.010400
C107 C 0.326400 0.006110 0.115800
C108 C 0.724600 0.377400 0.792000
C109 C 0.624500 0.308400 0.781600
C110 C 0.403300 0.089770 0.124500
C111 C 0.677000 0.226300 0.762800
C112 C 0.494600 0.114220 0.222000
C113 C 0.826500 0.211100 0.755900
C114 C 0.563500 0.193900 0.201000
C115 C 0.923100 0.280200 0.768500
C116 C 0.876300 0.363800 0.785700
C117 C 0.516300 0.216700 0.095200
C118 C 0.795900 0.516600 0.277800
C119 C 0.416700 0.153900 0.046100
C120 C 0.736900 0.432300 0.252800
C121 C 0.769100 0.003000 0.132500
C122 C 0.584500 0.431900 0.268800
C123 C 0.844300 0.077000 0.129300
C124 C 0.547200 0.513290 0.304400
C125 C 0.811500 0.111400 0.028500
C126 C 0.676800 0.566050 0.311000
C127 C 0.712700 0.058000 -0.027800
C128 C 0.905900 0.430950 0.512200
C129 C 0.685800 -0.013000 0.034000
C130 C 0.812700 0.357300 0.494800
C131 C 0.668900 0.378420 0.522800
C132 C 0.758000 0.784150 0.606300
N133 N 0.335150 -0.037690 0.202000
N134 N 0.763630 0.626690 0.634220
N135 N 0.664850 0.462310 0.798000
N136 N 0.236370 0.126690 0.365780
Cl137 Cl 1.114290 0.263370 0.756430
Cl138 Cl 0.078780 0.321810 0.047570
Cl139 Cl -0.114290 -0.236630 0.243570
Cl140 Cl 0.680110 -0.061670 0.374230
Cl141 Cl 0.921220 0.821810 0.952430
Cl142 Cl 0.402040 0.640940 0.510570
Cl143 Cl 0.597960 0.140940 0.489430
Cl144 Cl 0.319890 0.438330 0.625770
Fe145 Fe 0.278150 -0.039200 0.593150
Fe146 Fe 0.378710 0.599720 0.900690
Fe147 Fe 0.621290 0.099720 0.099310
Fe148 Fe 0.721850 0.460800 0.406850
Sn149 Sn 0.527233 0.541131 0.640368
Sn150 Sn 0.472767 0.041131 0.359632

#END
