./ADAJUK_from_POSCAR.cif_generated_by_CrystalShift
_symmetry_cell_setting triclinic
_symmetry_space_group_name_H-M 'P 1'
loop_
_symmetry_equiv_pos_site_id
_symmetry_equiv_pos_as_xyz
1 x,y,z
_cell_length_a 15.271000
_cell_length_b 9.390000
_cell_length_c 17.055000
_cell_angle_alpha 90.000000
_cell_angle_beta 112.800000
_cell_angle_gamma 90.000000
_cell_volume 2254.505240
loop_
_atom_site_label
_atom_site_type_symbol
_atom_site_fract_x
_atom_site_fract_y
_atom_site_fract_z
H1 H 0.969000 0.392000 -0.055000
H2 H 1.022900 0.258600 0.172000
H3 H 0.998500 0.117500 0.118700
H4 H 0.749400 0.454500 0.361700
H5 H 0.858000 0.420000 0.406600
H6 H 0.824100 0.578200 0.385800
H7 H 0.366100 0.702600 -0.109800
H8 H 0.394200 0.611500 -0.026600
H9 H 0.243500 1.276800 0.384700
H10 H 0.180100 1.221800 0.431900
H11 H 0.416800 0.775000 -0.020700
H12 H 0.941200 -0.011100 0.209500
H13 H 0.973600 0.115300 0.274500
H14 H 0.869700 0.056000 0.244800
H15 H 0.410600 1.229900 0.440400
H16 H 0.866100 0.266100 0.294700
H17 H 0.467000 0.561500 -0.299300
H18 H 0.287200 0.865800 0.651200
H19 H 0.347800 0.807700 0.742400
H20 H 0.386100 0.794700 0.669700
H21 H 0.504700 0.431300 -0.334700
H22 H 0.223400 1.165500 0.258600
H23 H 0.467200 0.408800 -0.262100
H24 H 0.781900 0.177800 0.032800
H25 H 0.830000 0.028600 0.060800
H26 H 0.376000 1.183100 0.772500
H27 H 0.349800 1.046300 0.811500
H28 H 0.281500 1.101200 0.721800
H29 H 0.757200 0.085000 0.097900
H30 H 0.457600 0.571200 -0.172900
H31 H 0.542400 1.071200 0.672900
H32 H 0.718500 0.601200 -0.221800
H33 H 0.650200 0.546300 -0.311500
H34 H 0.242800 0.585000 0.402100
H35 H 0.170000 0.528600 0.439200
H36 H 0.218100 0.677800 0.467200
H37 H 0.624000 0.683100 -0.272500
H38 H 0.532800 0.908800 0.762100
H39 H 0.495300 0.931300 0.834700
H40 H 0.533000 1.061500 0.799300
H41 H 0.776600 0.665500 0.241400
H42 H 0.133900 0.766100 0.205300
H43 H 0.613900 0.294700 -0.169700
H44 H 0.130300 0.556000 0.255200
H45 H 0.026400 0.615300 0.225500
H46 H 0.058800 0.488900 0.290500
H47 H 0.652200 0.307700 -0.242400
H48 H 0.583200 1.275000 0.520700
H49 H 0.605800 1.111500 0.526600
H50 H 0.633900 1.202600 0.609800
H51 H 0.712800 0.365800 -0.151200
H52 H 0.175900 1.078200 0.114200
H53 H 0.142000 0.920000 0.093400
H54 H 0.250600 0.954500 0.138300
H55 H 0.589400 0.729900 0.059600
H56 H 0.001500 0.617500 0.381300
H57 H -0.022900 0.758600 0.328000
H58 H 0.046200 0.762200 0.424000
H59 H 0.031000 0.892000 0.555000
H60 H 0.819900 0.721800 0.068100
H61 H 0.756500 0.776800 0.115300
H62 H 0.969000 0.108000 0.445000
H63 H 0.953800 0.237800 0.576000
H64 H 1.022900 0.241400 0.672000
H65 H 0.998500 0.382500 0.618700
H66 H 0.749400 0.045500 0.861700
H67 H 0.858000 0.080000 0.906600
H68 H 0.243500 0.223200 0.884700
H69 H 0.180100 0.278200 0.931900
H70 H 0.824100 -0.078200 0.885800
H71 H 0.366100 -0.202600 0.390200
H72 H 0.394200 -0.111500 0.473400
H73 H 0.416800 -0.275000 0.479300
H74 H 0.410600 0.270100 0.940400
H75 H 0.941200 0.511100 0.709500
H76 H 0.973600 0.384700 0.774500
H77 H 0.287200 0.634200 1.151200
H78 H 0.347800 0.692300 1.242400
H79 H 0.386100 0.705300 1.169700
H80 H 0.869700 0.444000 0.744800
H81 H 0.223400 0.334500 0.758600
H82 H 0.866100 0.233900 0.794700
H83 H 0.467000 -0.061500 0.200700
H84 H 0.504700 0.068700 0.165300
H85 H 0.376000 0.316900 1.272500
H86 H 0.349800 0.453700 1.311500
H87 H 0.281500 0.398800 1.221800
H88 H 0.467200 0.091200 0.237900
H89 H 0.781900 0.322200 0.532800
H90 H 0.542400 0.428800 1.172900
H91 H 0.830000 0.471400 0.560800
H92 H 0.757200 0.415000 0.597900
H93 H 0.242800 0.915000 0.902100
H94 H 0.170000 0.971400 0.939200
H95 H 0.218100 0.822200 0.967200
H96 H 0.457600 -0.071200 0.327100
H97 H 0.532800 0.591200 1.262100
H98 H 0.495300 0.568700 1.334700
H99 H 0.533000 0.438500 1.299300
H100 H 0.718500 -0.101200 0.278200
H101 H 0.133900 0.733900 0.705300
H102 H 0.650200 -0.046300 0.188500
H103 H 0.130300 0.944000 0.755200
H104 H 0.026400 0.884700 0.725500
H105 H 0.058800 1.011100 0.790500
H106 H 0.624000 -0.183100 0.227500
H107 H 0.583200 0.225000 1.020700
H108 H 0.605800 0.388500 1.026600
H109 H 0.633900 0.297400 1.109800
H110 H 0.776600 -0.165500 0.741400
H111 H 0.175900 0.421800 0.614200
H112 H 0.142000 0.580000 0.593400
H113 H 0.250600 0.545500 0.638300
H114 H 0.613900 0.205300 0.330300
H115 H 0.001500 0.882500 0.881300
H116 H -0.022900 0.741400 0.828000
H117 H 0.046200 0.737800 0.924000
H118 H 0.031000 0.608000 1.055000
H119 H 0.652200 0.192300 0.257600
H120 H 0.712800 0.134200 0.348800
H121 H 0.589400 -0.229900 0.559600
H122 H 0.819900 -0.221800 0.568100
H123 H 0.756500 -0.276800 0.615300
H124 H 0.953800 0.262200 0.076000
C125 C 0.818600 0.031900 0.780800
C126 C 0.768300 -0.196200 0.585200
C127 C 0.974100 0.207600 0.127600
C128 C 0.400100 1.072600 0.637500
C129 C 0.681500 -0.111900 0.431900
C130 C 0.855200 0.176200 0.677800
C131 C 0.798200 -0.069600 0.644700
C132 C 0.591900 -0.190900 0.510400
C133 C 0.811900 0.481400 0.366500
C134 C 0.680100 -0.166600 0.506700
C135 C 0.649500 0.146900 0.307000
C136 C 0.181400 0.968100 0.219200
C137 C 0.231700 1.196200 0.414800
C138 C 0.025900 0.792400 0.872400
C139 C 0.795200 -0.079900 0.725100
C140 C 0.188100 0.518600 0.633500
C141 C 0.601100 0.001400 0.282200
C142 C 0.508200 -0.158700 0.443500
C143 C 0.653300 -0.090900 0.240200
C144 C 0.587400 0.310200 1.053100
C145 C 0.078600 0.924400 0.772500
C146 C 0.150900 0.658200 0.743500
C147 C 0.888600 0.317400 0.653400
C148 C 0.513700 -0.097200 0.371500
C149 C 0.499500 0.527400 1.284800
C150 C 0.827900 0.058100 0.623500
C151 C 0.806700 0.388200 0.579200
C152 C 0.193300 0.888200 0.920800
C153 C 0.172100 0.558100 0.876500
C154 C 0.486300 0.402800 1.128500
C155 C 0.500500 0.027400 0.215200
C156 C 0.111400 0.817400 0.846600
C157 C 0.346700 0.409100 1.259800
C158 C 0.491800 0.341300 1.056500
C159 C 0.849100 0.158200 0.756500
C160 C 0.398900 0.501400 1.217800
C161 C 0.921400 0.424400 0.727500
C162 C 0.204800 0.420100 0.774900
C163 C 0.350500 0.646900 1.193000
C164 C 0.319900 0.333400 0.993300
C165 C 0.412600 -0.189800 0.446900
C166 C 0.408100 0.309100 0.989600
C167 C 0.201800 0.430400 0.855300
C168 C 0.144800 0.676200 0.822200
C169 C 0.811900 0.018600 0.866500
C170 C 0.318500 0.388100 1.068100
C171 C 0.231700 0.303800 0.914800
C172 C 0.181400 0.531900 0.719200
C173 C 0.974100 0.292400 0.627600
C174 C 0.400100 0.427400 1.137500
C175 C 0.318500 1.111900 0.568100
C176 C 0.412600 0.689800 -0.053100
C177 C 0.144800 0.823800 0.322200
C178 C 0.201800 1.069600 0.355300
C179 C 0.408100 1.190900 0.489600
C180 C 0.599900 -0.072600 0.362500
C181 C 0.921400 0.075600 0.227500
C182 C 0.319900 1.166600 0.493300
C183 C 0.599900 0.572600 -0.137500
C184 C 0.818600 0.468100 0.280800
C185 C 0.768300 0.696200 0.085200
C186 C 0.849100 0.341800 0.256500
C187 C 0.350500 0.853100 0.693000
C188 C 0.681500 0.611900 -0.068100
C189 C 0.855200 0.323800 0.177800
C190 C 0.798200 0.569600 0.144700
C191 C 0.591900 0.690900 0.010400
C192 C 0.025900 0.707600 0.372400
C193 C 0.680100 0.666600 0.006700
C194 C 0.649500 0.353100 -0.193000
C195 C 0.188100 0.981400 0.133500
C196 C 0.587400 1.189800 0.553100
C197 C 0.078600 0.575600 0.272500
C198 C 0.795200 0.579900 0.225100
C199 C 0.150900 0.841800 0.243500
C200 C 0.601100 0.498600 -0.217800
C201 C 0.508200 0.658700 -0.056500
C202 C 0.653300 0.590900 -0.259800
C203 C 0.499500 0.972600 0.784800
C204 C 0.193300 0.611800 0.420800
C205 C 0.172100 0.941900 0.376500
C206 C 0.888600 0.182600 0.153400
C207 C 0.513700 0.597200 -0.128500
C208 C 0.486300 1.097200 0.628500
C209 C 0.827900 0.441900 0.123500
C210 C 0.806700 0.111800 0.079200
C211 C 0.111400 0.682600 0.346600
C212 C 0.346700 1.090900 0.759800
C213 C 0.491800 1.158700 0.556500
C214 C 0.500500 0.472600 -0.284800
C215 C 0.398900 0.998600 0.717800
C216 C 0.204800 1.079900 0.274900
O217 O 0.938570 0.614800 0.035310
O218 O 0.175900 0.579000 0.959910
O219 O 0.770320 0.599000 -0.076270
O220 O 0.886790 0.418000 -0.073510
O221 O 0.824100 0.421000 0.040090
O222 O 0.061430 1.114800 0.464690
O223 O 0.061430 0.385200 0.964690
O224 O 0.113210 0.582000 1.073510
O225 O 0.229680 0.401000 1.076270
O226 O 0.175900 0.921000 0.459910
O227 O 0.824100 0.079000 0.540090
O228 O 0.938570 -0.114800 0.535310
O229 O 0.886790 0.082000 0.426490
O230 O 0.229680 1.099000 0.576270
O231 O 0.113210 0.918000 0.573510
O232 O 0.770320 -0.099000 0.423730
P233 P 0.861000 -0.018260 0.485150
P234 P 0.861000 0.518260 -0.014850
P235 P 0.139000 0.481740 1.014850
P236 P 0.139000 1.018260 0.514850

#END
