./ADAMAN02_from_POSCAR.cif_generated_by_CrystalShift
_symmetry_cell_setting triclinic
_symmetry_space_group_name_H-M 'P 1'
loop_
_symmetry_equiv_pos_site_id
_symmetry_equiv_pos_as_xyz
1 x,y,z
_cell_length_a 6.600000
_cell_length_b 6.600000
_cell_length_c 8.810000
_cell_angle_alpha 90.000000
_cell_angle_beta 90.000000
_cell_angle_gamma 90.000000
_cell_volume 383.763600
loop_
_atom_site_label
_atom_site_type_symbol
_atom_site_fract_x
_atom_site_fract_y
_atom_site_fract_z
H1 H 0.146000 0.371000 0.436000
H2 H 0.854000 0.629000 0.436000
H3 H 0.263000 0.210000 0.570000
H4 H -0.054000 0.317000 0.164000
H5 H 0.141000 0.017000 0.267000
H6 H 0.290000 0.237000 0.070000
H7 H 0.129000 0.354000 -0.064000
H8 H 0.790000 0.263000 0.430000
H9 H 0.737000 0.790000 0.570000
H10 H 0.483000 0.359000 0.767000
H11 H 0.641000 0.483000 0.233000
H12 H 0.517000 0.641000 0.767000
H13 H 0.183000 0.554000 0.664000
H14 H 0.446000 0.183000 0.336000
H15 H -0.317000 -0.054000 -0.164000
H16 H 0.054000 -0.317000 0.164000
H17 H 0.317000 0.054000 -0.164000
H18 H -0.017000 0.141000 -0.267000
H19 H -0.141000 -0.017000 0.267000
H20 H 0.017000 -0.141000 -0.267000
H21 H -0.237000 0.290000 -0.070000
H22 H -0.290000 -0.237000 0.070000
H23 H 0.237000 -0.290000 -0.070000
H24 H -0.354000 0.129000 0.064000
H25 H -0.129000 -0.354000 -0.064000
H26 H 0.354000 -0.129000 0.064000
H27 H 0.817000 0.446000 0.664000
H28 H 0.371000 0.854000 0.564000
H29 H 0.210000 0.737000 0.430000
H30 H -0.054000 0.317000 1.164000
H31 H 0.141000 0.017000 1.267000
H32 H 0.290000 0.237000 1.070000
H33 H 0.129000 0.354000 0.936000
H34 H 0.359000 0.517000 0.233000
H35 H 0.554000 0.817000 0.336000
H36 H 1.354000 0.871000 1.064000
H37 H 0.871000 0.646000 0.936000
H38 H 0.646000 1.129000 1.064000
H39 H 1.237000 0.710000 0.930000
H40 H 0.710000 0.763000 1.070000
H41 H -0.317000 -0.054000 0.836000
H42 H 0.054000 -0.317000 1.164000
H43 H 0.317000 0.054000 0.836000
H44 H -0.017000 0.141000 0.733000
H45 H -0.141000 -0.017000 1.267000
H46 H 0.017000 -0.141000 0.733000
H47 H -0.237000 0.290000 0.930000
H48 H -0.290000 -0.237000 1.070000
H49 H 0.237000 -0.290000 0.930000
H50 H -0.354000 0.129000 1.064000
H51 H -0.129000 -0.354000 0.936000
H52 H 0.354000 -0.129000 1.064000
H53 H 0.763000 1.290000 0.930000
H54 H 1.017000 0.859000 0.733000
H55 H 0.859000 0.983000 1.267000
H56 H -0.054000 1.317000 0.164000
H57 H 0.141000 1.017000 0.267000
H58 H 0.290000 1.237000 0.070000
H59 H 0.129000 1.354000 -0.064000
H60 H 0.983000 1.141000 0.733000
H61 H 1.317000 1.054000 0.836000
H62 H 1.054000 0.683000 1.164000
H63 H 0.683000 0.946000 0.836000
H64 H 1.129000 1.354000 0.936000
H65 H 1.290000 1.237000 1.070000
H66 H 1.141000 1.017000 1.267000
H67 H -0.317000 0.946000 -0.164000
H68 H 0.054000 0.683000 0.164000
H69 H 0.317000 1.054000 -0.164000
H70 H -0.017000 1.141000 -0.267000
H71 H -0.141000 0.983000 0.267000
H72 H 0.017000 0.859000 -0.267000
H73 H -0.237000 1.290000 -0.070000
H74 H -0.290000 0.763000 0.070000
H75 H 0.237000 0.710000 -0.070000
H76 H -0.354000 1.129000 0.064000
H77 H -0.129000 0.646000 -0.064000
H78 H 0.354000 0.871000 0.064000
H79 H 0.946000 1.317000 1.164000
H80 H 1.354000 0.871000 0.064000
H81 H 0.871000 0.646000 -0.064000
H82 H -0.054000 1.317000 1.164000
H83 H 0.141000 1.017000 1.267000
H84 H 0.290000 1.237000 1.070000
H85 H 0.129000 1.354000 0.936000
H86 H 0.646000 1.129000 0.064000
H87 H 1.237000 0.710000 -0.070000
H88 H 0.710000 0.763000 0.070000
H89 H 0.763000 1.290000 -0.070000
H90 H 1.017000 0.859000 -0.267000
H91 H 0.859000 0.983000 0.267000
H92 H 0.983000 1.141000 -0.267000
H93 H -0.317000 0.946000 0.836000
H94 H 0.054000 0.683000 1.164000
H95 H 0.317000 1.054000 0.836000
H96 H -0.017000 1.141000 0.733000
H97 H -0.141000 0.983000 1.267000
H98 H 0.017000 0.859000 0.733000
H99 H -0.237000 1.290000 0.930000
H100 H -0.290000 0.763000 1.070000
H101 H 0.237000 0.710000 0.930000
H102 H -0.354000 1.129000 1.064000
H103 H -0.129000 0.646000 0.936000
H104 H 0.354000 0.871000 1.064000
H105 H 1.317000 1.054000 -0.164000
H106 H 1.054000 0.683000 0.164000
H107 H 0.683000 0.946000 -0.164000
H108 H 0.946000 0.317000 0.164000
H109 H 1.141000 0.017000 0.267000
H110 H 1.290000 0.237000 0.070000
H111 H 1.129000 0.354000 -0.064000
H112 H 1.129000 1.354000 -0.064000
H113 H 1.290000 1.237000 0.070000
H114 H 1.141000 1.017000 0.267000
H115 H 0.946000 1.317000 0.164000
H116 H 1.354000 -0.129000 1.064000
H117 H 0.629000 0.146000 0.564000
H118 H 0.871000 -0.354000 0.936000
H119 H 0.683000 -0.054000 -0.164000
H120 H 1.054000 -0.317000 0.164000
H121 H 1.317000 0.054000 -0.164000
H122 H 0.983000 0.141000 -0.267000
H123 H 0.859000 -0.017000 0.267000
H124 H 1.017000 -0.141000 -0.267000
H125 H 0.763000 0.290000 -0.070000
H126 H 0.710000 -0.237000 0.070000
H127 H 1.237000 -0.290000 -0.070000
H128 H 0.646000 0.129000 0.064000
H129 H 0.871000 -0.354000 -0.064000
H130 H 1.354000 -0.129000 0.064000
H131 H 0.646000 0.129000 1.064000
H132 H 1.237000 -0.290000 0.930000
H133 H 0.710000 -0.237000 1.070000
H134 H 0.946000 0.317000 1.164000
H135 H 1.141000 0.017000 1.267000
H136 H 1.290000 0.237000 1.070000
H137 H 1.129000 0.354000 0.936000
H138 H 0.763000 0.290000 0.930000
H139 H 1.017000 -0.141000 0.733000
H140 H 0.859000 -0.017000 1.267000
H141 H 0.983000 0.141000 0.733000
H142 H 1.317000 0.054000 0.836000
H143 H 1.054000 -0.317000 1.164000
H144 H 0.683000 -0.054000 0.836000
C145 C 1.000000 0.000000 0.799400
C146 C 1.218700 -0.158000 1.000900
C147 C 0.842000 -0.218700 0.999100
C148 C 0.781300 0.158000 1.000900
C149 C 1.187000 0.029600 0.901000
C150 C 1.029600 -0.187000 1.099000
C151 C 0.813000 -0.029600 0.901000
C152 C 1.000000 0.000000 1.200600
C153 C 1.158000 0.218700 0.999100
C154 C 0.970400 0.187000 1.099000
C155 C 1.000000 0.000000 -0.200600
C156 C 0.842000 -0.218700 -0.000900
C157 C 0.970400 1.187000 0.099000
C158 C 1.158000 1.218700 -0.000900
C159 C 1.000000 1.000000 0.200600
C160 C 0.781300 0.158000 0.000900
C161 C 1.187000 0.029600 -0.099000
C162 C 1.029600 -0.187000 0.099000
C163 C 0.813000 -0.029600 -0.099000
C164 C 0.813000 0.970400 -0.099000
C165 C 1.029600 0.813000 0.099000
C166 C 1.187000 1.029600 -0.099000
C167 C 0.781300 1.158000 0.000900
C168 C 0.842000 0.781300 -0.000900
C169 C 1.218700 0.842000 0.000900
C170 C 1.000000 1.000000 -0.200600
C171 C 1.000000 0.000000 0.200600
C172 C 1.158000 0.218700 -0.000900
C173 C 0.970400 0.187000 0.099000
C174 C 0.000000 1.000000 0.799400
C175 C 0.218700 0.842000 1.000900
C176 C -0.158000 0.781300 0.999100
C177 C -0.218700 1.158000 1.000900
C178 C 0.187000 1.029600 0.901000
C179 C 0.029600 0.813000 1.099000
C180 C -0.187000 0.970400 0.901000
C181 C 0.000000 1.000000 1.200600
C182 C 0.158000 1.218700 0.999100
C183 C 0.970400 1.187000 1.099000
C184 C 1.158000 1.218700 0.999100
C185 C 1.000000 1.000000 1.200600
C186 C -0.029600 1.187000 1.099000
C187 C 0.000000 1.000000 -0.200600
C188 C 0.218700 0.842000 0.000900
C189 C -0.158000 0.781300 -0.000900
C190 C 0.813000 0.970400 0.901000
C191 C 1.029600 0.813000 1.099000
C192 C 1.187000 1.029600 0.901000
C193 C 0.781300 1.158000 1.000900
C194 C 0.842000 0.781300 0.999100
C195 C 1.218700 0.842000 1.000900
C196 C 1.000000 1.000000 0.799400
C197 C -0.218700 1.158000 0.000900
C198 C 0.187000 1.029600 -0.099000
C199 C 0.029600 0.813000 0.099000
C200 C -0.187000 0.970400 -0.099000
C201 C 0.000000 1.000000 0.200600
C202 C 0.158000 1.218700 -0.000900
C203 C -0.029600 1.187000 0.099000
C204 C 0.000000 0.000000 0.799400
C205 C 0.218700 -0.158000 1.000900
C206 C -0.158000 -0.218700 0.999100
C207 C -0.218700 0.158000 1.000900
C208 C 0.187000 0.029600 0.901000
C209 C 0.529600 0.687000 0.401000
C210 C 0.342000 0.718700 0.500900
C211 C 0.500000 0.500000 0.299400
C212 C 0.029600 -0.187000 1.099000
C213 C -0.187000 -0.029600 0.901000
C214 C 0.000000 0.000000 1.200600
C215 C 0.158000 0.218700 0.999100
C216 C 0.687000 0.470400 0.599000
C217 C 0.470400 0.313000 0.401000
C218 C 0.313000 0.529600 0.599000
C219 C 0.718700 0.658000 0.499100
C220 C 0.658000 0.281300 0.500900
C221 C 0.281300 0.342000 0.499100
C222 C 0.500000 0.500000 0.700600
C223 C -0.029600 0.187000 1.099000
C224 C 0.000000 0.000000 -0.200600
C225 C 0.218700 -0.158000 0.000900
C226 C -0.158000 -0.218700 -0.000900
C227 C -0.218700 0.158000 0.000900
C228 C 0.187000 0.029600 -0.099000
C229 C 0.029600 -0.187000 0.099000
C230 C -0.187000 -0.029600 -0.099000
C231 C 0.000000 0.000000 0.200600
C232 C 0.158000 0.218700 -0.000900
C233 C 1.218700 -0.158000 0.000900
C234 C -0.029600 0.187000 0.099000

#END
