
#######################################################################
#
#                 Cambridge Crystallographic Data Centre
#                                CCDC 
#
#######################################################################
#
# If this CIF has been generated from an entry in the Cambridge 
# Structural Database, then it will include bibliographic, chemical, 
# crystal, experimental, refinement or atomic coordinate data resulting 
# from the CCDC's data processing and validation procedures.
#
#######################################################################

data_ADAVEH
_symmetry_cell_setting           triclinic
_symmetry_space_group_name_H-M   'P -1'
_symmetry_Int_Tables_number      2
_space_group_name_Hall           '-P 1'
loop_
_symmetry_equiv_pos_site_id
_symmetry_equiv_pos_as_xyz
1 x,y,z
2 -x,-y,-z
_cell_length_a                   6.0470(10)
_cell_length_b                   7.591(2)
_cell_length_c                   17.112(3)
_cell_angle_alpha                94.46(3)
_cell_angle_beta                 94.22(3)
_cell_angle_gamma                98.86(3)
_cell_volume                     770.841
loop_
_atom_site_label
_atom_site_type_symbol
_atom_site_fract_x
_atom_site_fract_y
_atom_site_fract_z
O1 O 0.4649(4) 0.4985(3) 0.36925(12)
C1 C 0.4028(5) 0.5015(4) 0.28908(18)
C2 C 0.5577(5) 0.6132(4) 0.25539(17)
C3 C 0.7339(5) 0.6841(4) 0.31637(17)
C4 C 0.6687(5) 0.6106(4) 0.38437(19)
C5 C 0.1958(5) 0.3818(4) 0.25961(18)
C6 C 0.0212(6) 0.3422(5) 0.3071(2)
H1 H 0.0354 0.3914 0.3590
C7 C -0.1738(6) 0.2295(5) 0.2772(3)
H2 H -0.2900 0.2037 0.3093
C8 C -0.1974(7) 0.1550(5) 0.2001(3)
H3 H -0.3296 0.0806 0.1802
C9 C -0.0244(8) 0.1915(5) 0.1531(3)
H4 H -0.0389 0.1400 0.1015
C10 C 0.1706(6) 0.3041(5) 0.1820(2)
H5 H 0.2862 0.3285 0.1495
C11 C 0.5491(5) 0.6617(4) 0.17328(17)
C12 C 0.3739(6) 0.7399(5) 0.1423(2)
H6 H 0.2573 0.7588 0.1729
C13 C 0.3707(7) 0.7902(5) 0.0667(2)
H7 H 0.2524 0.8434 0.0468
C14 C 0.5389(8) 0.7628(5) 0.0206(2)
H8 H 0.5341 0.7962 -0.0306
C15 C 0.7145(7) 0.6863(5) 0.0495(2)
H9 H 0.8295 0.6678 0.0181
C16 C 0.7209(6) 0.6361(5) 0.12634(19)
H10 H 0.8411 0.5850 0.1462
C17 C 0.9379(5) 0.8009(4) 0.31973(18)
H11 H 0.9833 0.8535 0.2750
C18 C 1.0720(5) 0.8379(4) 0.3902(2)
C19 C 0.9968(6) 0.7605(5) 0.4569(2)
H12 H 1.0867 0.7870 0.5041
C20 C 0.7943(6) 0.6460(5) 0.45594(19)
H13 H 0.7461 0.5961 0.5009
C21 C 1.2956(6) 0.9614(5) 0.3946(2)
H14 H 1.3154 1.0081 0.3446
H15 H 1.4149 0.8958 0.4076
H16 H 1.2982 1.0584 0.4343
O1 O 0.5351(4) 0.5015(3) 0.63075(12)
C1 C 0.5972(5) 0.4985(4) 0.71092(18)
C2 C 0.4423(5) 0.3868(4) 0.74461(17)
C3 C 0.2661(5) 0.3159(4) 0.68363(17)
C4 C 0.3313(5) 0.3894(4) 0.61563(19)
C5 C 0.8042(5) 0.6182(4) 0.74039(18)
C6 C 0.9788(6) 0.6578(5) 0.6929(2)
H1 H 0.9646 0.6086 0.6410
C7 C 1.1738(6) 0.7705(5) 0.7228(3)
H2 H 1.2900 0.7963 0.6907
C8 C 1.1974(7) 0.8450(5) 0.7999(3)
H3 H 1.3296 0.9194 0.8198
C9 C 1.0244(8) 0.8085(5) 0.8469(3)
H4 H 1.0389 0.8600 0.8985
C10 C 0.8294(6) 0.6959(5) 0.8180(2)
H5 H 0.7138 0.6715 0.8505
C11 C 0.4509(5) 0.3383(4) 0.82672(17)
C12 C 0.6261(6) 0.2601(5) 0.8577(2)
H6 H 0.7427 0.2412 0.8271
C13 C 0.6293(7) 0.2098(5) 0.9333(2)
H7 H 0.7476 0.1566 0.9532
C14 C 0.4611(8) 0.2372(5) 0.9794(2)
H8 H 0.4659 0.2038 1.0306
C15 C 0.2855(7) 0.3137(5) 0.9505(2)
H9 H 0.1705 0.3322 0.9819
C16 C 0.2791(6) 0.3639(5) 0.87366(19)
H10 H 0.1589 0.4150 0.8538
C17 C 0.0621(5) 0.1991(4) 0.68027(18)
H11 H 0.0167 0.1465 0.7250
C18 C -0.0720(5) 0.1621(4) 0.6098(2)
C19 C 0.0032(6) 0.2395(5) 0.5431(2)
H12 H -0.0867 0.2130 0.4959
C20 C 0.2057(6) 0.3540(5) 0.54406(19)
H13 H 0.2539 0.4039 0.4991
C21 C -0.2956(6) 0.0386(5) 0.6054(2)
H14 H -0.3154 -0.0081 0.6554
H15 H -0.4149 0.1042 0.5924
H16 H -0.2982 -0.0584 0.5657

#END
