./ADECUI_from_POSCAR.cif_generated_by_CrystalShift
_symmetry_cell_setting triclinic
_symmetry_space_group_name_H-M 'P 1'
loop_
_symmetry_equiv_pos_site_id
_symmetry_equiv_pos_as_xyz
1 x,y,z
_cell_length_a 4.722000
_cell_length_b 20.087000
_cell_length_c 12.824000
_cell_angle_alpha 90.000000
_cell_angle_beta 91.130000
_cell_angle_gamma 90.000000
_cell_volume 1216.130284
loop_
_atom_site_label
_atom_site_type_symbol
_atom_site_fract_x
_atom_site_fract_y
_atom_site_fract_z
H1 H 0.400000 0.652800 0.200900
H2 H 0.346000 0.650000 0.077400
H3 H 0.360900 0.513200 0.238400
H4 H 0.298600 0.017100 0.558000
H5 H 0.604700 0.560000 0.287000
H6 H 0.637300 0.100300 0.539400
H7 H 0.608200 0.486200 0.415800
H8 H 0.772200 0.428900 0.558300
H9 H 0.957800 0.186900 0.618600
H10 H 1.097300 0.343500 0.637600
H11 H 1.121800 0.243400 0.762000
H12 H 1.447900 0.262900 0.618700
H13 H 1.619700 0.237200 0.454600
H14 H 1.119700 0.262800 0.954600
H15 H 1.621800 0.256600 0.262000
H16 H 0.947900 0.237100 1.118700
H17 H 1.457800 0.313100 0.118600
H18 H 0.597300 0.156500 1.137600
H19 H 1.137300 0.399700 0.039400
H20 H 0.798600 0.482900 0.058000
H21 H 0.272200 0.071100 1.058300
H22 H 1.100000 1.152800 0.299100
H23 H 0.108200 0.013800 0.915800
H24 H 1.342900 1.105700 0.347000
H25 H 1.154000 1.150000 0.422600
H26 H 1.139100 1.013200 0.261600
H27 H 0.895300 1.060000 0.213000
H28 H 0.104700 -0.060000 0.787000
H29 H -0.139100 -0.013200 0.738400
H30 H 0.891800 0.986200 0.084200
H31 H -0.154000 -0.150000 0.577400
H32 H -0.342900 -0.105700 0.653000
H33 H -0.100000 -0.152800 0.700900
H34 H 0.727800 0.928900 -0.058300
H35 H 0.402700 0.843500 -0.137600
H36 H 0.052100 0.762900 -0.118700
H37 H 0.201400 0.517100 0.942000
H38 H -0.119700 0.737200 0.045400
H39 H -0.137300 0.600300 0.960600
H40 H -0.121800 0.756600 0.238000
H41 H 0.042200 0.813100 0.381400
H42 H -0.457800 0.686900 0.881400
H43 H 0.362700 0.899700 0.460600
H44 H -0.621800 0.743400 0.738000
H45 H 0.701400 0.982900 0.442000
H46 H 0.600000 0.347200 0.799100
H47 H -0.619700 0.762800 0.545400
H48 H 0.842900 0.394300 0.847000
H49 H -0.447900 0.737100 0.381300
H50 H 0.654000 0.350000 0.922600
H51 H -0.097300 0.656500 0.362400
H52 H 0.639100 0.486800 0.761600
H53 H 0.395300 0.440000 0.713000
H54 H 0.227800 0.571100 0.441700
H55 H 0.391800 0.513800 0.584200
H56 H 0.157100 0.605700 0.153000
C57 C 0.143940 0.559500 0.695520
C58 C -0.063720 0.610440 0.706560
C59 C -0.165500 0.646100 0.616980
C60 C 0.448700 0.468060 0.773730
C61 C 0.152830 0.580860 0.508200
C62 C -0.060590 0.631210 0.516720
C63 C 0.653400 0.375980 0.857890
C64 C -0.167540 0.665980 0.429650
C65 C -0.375500 0.714270 0.441030
C66 C -0.478490 0.729470 0.538790
C67 C 0.262590 0.023800 0.715490
C68 C 0.737410 0.976200 0.284510
C69 C 0.633380 0.959710 0.382020
C70 C -0.376680 0.696200 0.627830
C71 C 0.431230 0.909770 0.393290
C72 C -0.481380 0.710040 0.729930
C73 C 0.328420 0.874460 0.306680
C74 C 0.115750 0.823450 0.314960
C75 C -0.384250 0.676550 0.814960
C76 C 0.018620 0.789960 0.229930
C77 C -0.171580 0.625540 0.806680
C78 C 0.123320 0.803800 0.127830
C79 C 0.021510 0.770530 0.038790
C80 C -0.068770 0.590230 0.893290
C81 C 0.124500 0.785730 -0.058970
C82 C 0.133380 0.540290 0.882020
C83 C 0.332460 0.834020 -0.070350
C84 C 0.237410 0.523800 0.784510
C85 C 0.439410 0.868790 0.016720
C86 C 0.652830 0.919140 0.008200
C87 C 0.346600 0.624020 0.142110
C88 C 0.750120 0.953150 0.092770
C89 C -0.153400 -0.124020 0.642110
C90 C 0.643940 0.940500 0.195520
C91 C 0.436280 0.889560 0.206560
C92 C 0.334500 0.853900 0.116980
C93 C 0.948700 1.031940 0.273730
C94 C 0.051300 -0.031940 0.726270
C95 C 0.665500 0.146100 0.883020
C96 C 1.153400 1.124020 0.357890
C97 C 0.563720 0.110440 0.793440
C98 C 0.356060 0.059500 0.804480
C99 C 0.249880 0.046850 0.907230
C100 C 0.366620 0.040290 0.617980
C101 C 0.762590 0.476200 0.215490
C102 C 0.866620 0.459710 0.117980
C103 C 0.347170 0.080860 0.991800
C104 C 1.068770 0.409770 0.106710
C105 C 0.560590 0.131210 0.983280
C106 C 1.171580 0.374460 0.193320
C107 C 1.384250 0.323450 0.185040
C108 C 0.667540 0.165980 1.070350
C109 C 1.481380 0.289960 0.270070
C110 C 0.875500 0.214270 1.058970
C111 C 1.376680 0.303800 0.372170
C112 C 1.478490 0.270530 0.461210
C113 C 0.978490 0.229470 0.961210
C114 C 1.375500 0.285730 0.558970
C115 C 0.876680 0.196200 0.872170
C116 C 1.167540 0.334020 0.570350
C117 C 0.981380 0.210040 0.770070
C118 C 1.060590 0.368790 0.483280
C119 C 0.847170 0.419140 0.491800
C120 C 0.884250 0.176550 0.685040
C121 C 0.749880 0.453150 0.407230
C122 C 0.671580 0.125540 0.693320
C123 C 0.856060 0.440500 0.304480
C124 C 1.063720 0.389560 0.293440
C125 C 1.165500 0.353900 0.383020
C126 C 0.551300 0.531940 0.226270
C127 C 0.568770 0.090230 0.606710
C128 C 0.250120 0.546850 0.592770
O129 O 0.955760 1.071230 0.365210
O130 O 0.455760 0.428770 0.865210
O131 O 0.544240 0.571230 0.134790
O132 O 0.044240 -0.071230 0.634790

#END
