./ADEKAW01_from_POSCAR.cif_generated_by_CrystalShift
_symmetry_cell_setting triclinic
_symmetry_space_group_name_H-M 'P 1'
loop_
_symmetry_equiv_pos_site_id
_symmetry_equiv_pos_as_xyz
1 x,y,z
_cell_length_a 7.452400
_cell_length_b 11.236700
_cell_length_c 14.394900
_cell_angle_alpha 90.000000
_cell_angle_beta 102.701000
_cell_angle_gamma 90.000000
_cell_volume 1175.938312
loop_
_atom_site_label
_atom_site_type_symbol
_atom_site_fract_x
_atom_site_fract_y
_atom_site_fract_z
H1 H 0.576100 -0.228600 0.040900
H2 H 0.708400 0.217700 -0.223600
H3 H 1.056900 0.451000 -0.061400
H4 H 0.923900 0.271400 0.459100
H5 H 0.906200 0.146500 0.327900
H6 H 0.725500 0.198700 0.179400
H7 H 0.569200 0.501000 0.294900
H8 H 0.593800 -0.353500 0.172100
H9 H 0.831400 0.451800 0.533800
H10 H 0.745100 0.614000 0.602400
H11 H 0.486000 1.077700 0.690600
H12 H 0.443100 0.951000 0.561400
H13 H 0.791600 0.717700 0.723600
H14 H 0.821700 0.851300 0.849400
H15 H 0.774500 -0.301300 0.320600
H16 H 1.014000 0.577700 -0.190600
H17 H 0.754900 0.114000 -0.102400
H18 H 0.423900 1.228600 0.959100
H19 H 0.178300 0.148700 0.150600
H20 H 0.208400 0.282300 0.276400
H21 H 0.556900 0.049000 0.438600
H22 H 0.514000 -0.077700 0.309400
H23 H 0.254900 0.386000 0.397600
H24 H 0.168600 0.548200 0.466200
H25 H 0.430800 0.499000 0.705100
H26 H 0.274500 0.801300 0.820600
H27 H 0.093800 0.853500 0.672100
H28 H 0.076100 0.728600 0.540900
H29 H 0.406200 1.353500 0.827900
H30 H 0.225500 1.301300 0.679400
H31 H 0.069200 0.999000 0.794900
H32 H 0.331400 1.048200 1.033800
H33 H 0.245100 0.886000 1.102400
H34 H -0.014000 0.422300 1.190600
H35 H -0.056900 0.549000 1.061400
H36 H 0.930800 0.001000 0.205100
H37 H 0.291600 0.782300 1.223600
H38 H 0.321700 0.648700 1.349400
H39 H 0.668600 -0.048200 -0.033800
H40 H 0.678300 0.351300 -0.349400
C41 C 0.139000 1.070450 0.801890
C42 C 0.132300 1.144970 0.725110
C43 C 0.259600 1.024680 0.973640
C44 C 0.231500 1.251000 0.733030
C45 C 0.338600 1.281120 0.820880
C46 C 0.348900 1.207000 0.899180
C47 C 0.651100 -0.207000 0.100820
C48 C 0.661400 -0.281120 0.179120
C49 C 0.096400 0.752330 1.037630
C50 C 0.049600 0.496130 1.197280
C51 C 0.024000 0.570980 1.119560
C52 C 0.117200 0.678590 1.127000
C53 C 0.228400 0.708300 1.214850
C54 C 0.245400 0.627660 1.289700
C55 C 0.768500 -0.251000 0.266970
C56 C 0.151100 0.707000 0.600820
C57 C 0.254600 0.127660 0.210300
C58 C 0.745400 0.872340 0.789700
C59 C 0.728400 0.791700 0.714850
C60 C 0.617200 0.821410 0.627000
C61 C 0.524000 0.929020 0.619560
C62 C 0.549600 1.003870 0.697280
C63 C 0.596400 0.747670 0.537630
C64 C 0.161400 0.781120 0.679120
C65 C 0.867700 -0.144970 0.274890
C66 C 0.861000 -0.070450 0.198110
C67 C 0.759600 0.475320 0.473640
C68 C 0.749400 0.398830 0.389940
C69 C 0.639000 0.429550 0.301890
C70 C 0.632300 0.355030 0.225110
C71 C 0.268500 0.751000 0.766970
C72 C 0.731500 0.249000 0.233030
C73 C 0.838600 0.218880 0.320880
C74 C 0.848900 0.293000 0.399180
C75 C 0.367700 0.644970 0.774890
C76 C 0.361000 0.570450 0.698110
C77 C 0.250600 0.601170 0.610060
C78 C 0.240400 0.524680 0.526360
C79 C 0.750600 -0.101170 0.110060
C80 C 0.740400 -0.024680 0.026360
C81 C 0.403600 0.252330 0.462370
C82 C 0.450400 -0.003870 0.302720
C83 C 0.476000 0.070980 0.380440
C84 C 0.382800 0.178590 0.373000
C85 C 0.271600 0.208300 0.285150
C86 C 0.754600 0.372340 -0.289700
C87 C 0.771600 0.291700 -0.214850
C88 C 0.882800 0.321410 -0.127000
C89 C 0.976000 0.429020 -0.119560
C90 C 0.950400 0.503870 -0.197280
C91 C 0.903600 0.247670 -0.037630
C92 C 0.249400 1.101170 0.889940
N93 N 0.816320 0.139980 -0.046740
N94 N 0.828770 0.073970 0.034900
N95 N 0.316320 0.360020 0.453260
N96 N 0.328770 0.426030 0.534900
N97 N 0.671230 0.573970 0.465100
N98 N 0.683680 0.639980 0.546740
N99 N 0.660110 0.977910 0.782250
N100 N 0.160110 0.522090 1.282250
N101 N 0.183680 0.860020 1.046740
N102 N 0.171230 0.926030 0.965100
N103 N 0.839890 0.477910 -0.282250
N104 N 0.339890 0.022090 0.217750
O105 O 0.491120 0.214690 0.538170
O106 O 0.508880 0.785310 0.461830
O107 O 0.008880 0.714690 0.961830
O108 O 0.991120 0.285310 0.038170
Cl109 Cl 0.506520 0.605570 0.884510
Cl110 Cl -0.006520 1.105570 0.615490
Cl111 Cl 0.493480 0.394430 0.115490
Cl112 Cl 1.006520 -0.105570 0.384510

#END
