./ADEMIG_from_POSCAR.cif_generated_by_CrystalShift
_symmetry_cell_setting triclinic
_symmetry_space_group_name_H-M 'P 1'
loop_
_symmetry_equiv_pos_site_id
_symmetry_equiv_pos_as_xyz
1 x,y,z
_cell_length_a 7.428000
_cell_length_b 14.202000
_cell_length_c 8.805000
_cell_angle_alpha 90.000000
_cell_angle_beta 106.760000
_cell_angle_gamma 90.000000
_cell_volume 889.404029
loop_
_atom_site_label
_atom_site_type_symbol
_atom_site_fract_x
_atom_site_fract_y
_atom_site_fract_z
H1 H 0.110700 1.116000 0.395100
H2 H 0.179500 1.238000 0.572300
H3 H 0.554200 0.561500 0.379200
H4 H 0.378200 1.215000 0.823100
H5 H 0.508900 1.068000 0.897200
H6 H -0.017000 0.789200 0.011000
H7 H -0.127900 0.884900 -0.009700
H8 H 0.372100 0.615100 0.490300
H9 H 0.483000 0.710800 0.511000
H10 H 0.054200 0.938500 -0.120800
H11 H 0.389300 0.616000 0.104900
H12 H 0.320500 0.738000 -0.072300
H13 H 0.121800 0.715000 -0.323100
H14 H -0.008900 0.568000 -0.397200
H15 H 1.008900 0.432000 1.397200
H16 H 0.517000 0.289200 0.489000
H17 H 0.878200 0.285000 1.323100
H18 H 0.627900 0.384900 0.509700
H19 H 0.679500 0.262000 1.072300
H20 H 0.445800 0.438500 0.620800
H21 H 0.610700 0.384000 0.895100
H22 H 0.889300 -0.116000 0.604900
H23 H 0.820500 -0.238000 0.427700
H24 H 0.945800 0.061500 1.120800
H25 H 0.621800 -0.215000 0.176900
H26 H 0.491100 -0.068000 0.102800
H27 H 1.017000 0.210800 0.989000
H28 H 1.127900 0.115100 1.009700
C29 C 1.003500 0.143000 0.976900
C30 C 0.231900 1.178970 0.602200
C31 C 0.909100 0.119330 0.807500
C32 C 0.787300 0.058800 0.584800
C33 C 0.734900 -0.015330 0.463000
C34 C 0.614600 -0.002900 0.310200
C35 C 0.572100 -0.077200 0.204100
C36 C 0.350100 1.165200 0.751400
C37 C 0.649900 -0.165200 0.248600
C38 C 0.427900 1.077200 0.795900
C39 C 0.768100 -0.178970 0.397800
C40 C 0.385400 1.002900 0.689800
C41 C 0.809500 -0.105540 0.503500
C42 C 0.265100 1.015330 0.537000
C43 C 0.212700 0.941200 0.415200
C44 C 0.090900 0.880670 0.192500
C45 C 0.690500 0.394460 0.996500
C46 C 0.496500 0.643000 0.523100
C47 C -0.003500 0.857000 0.023100
C48 C 0.590900 0.619330 0.692500
C49 C 0.503500 0.357000 0.476900
C50 C 0.731900 0.321030 1.102200
C51 C 0.850100 0.334800 1.251400
C52 C 0.409100 0.380670 0.307500
C53 C 0.287300 0.441200 0.084800
C54 C 0.234900 0.515330 -0.037000
C55 C 0.114600 0.502900 -0.189800
C56 C 0.072100 0.577200 -0.295900
C57 C 0.927900 0.422800 1.295900
C58 C 0.149900 0.665200 -0.251400
C59 C 0.885400 0.497100 1.189800
C60 C 0.268100 0.678970 -0.102200
C61 C 0.765100 0.484670 1.037000
C62 C 0.309500 0.605540 0.003500
C63 C 0.712700 0.558800 0.915200
C64 C 0.190500 1.105540 0.496500
N65 N 0.607100 0.538920 0.761800
N66 N 0.243200 0.352470 0.062000
N67 N 0.743200 0.147530 0.562000
N68 N 0.107100 0.961080 0.261800
N69 N 0.256800 0.852470 0.438000
N70 N 0.392900 0.461080 0.238200
N71 N 0.756800 0.647530 0.938000
N72 N 0.892900 0.038920 0.738200
O73 O 0.176300 0.811350 0.287600
O74 O 0.676300 0.688650 0.787600
O75 O 0.895100 0.108450 1.072900
O76 O 0.823700 0.188650 0.712400
O77 O 0.104900 0.891550 -0.072900
O78 O 0.395100 0.391550 0.572900
O79 O 0.323700 0.311350 0.212400
O80 O 0.604900 0.608450 0.427100
Cl81 Cl 0.010260 0.395330 -0.253900
Cl82 Cl 0.510260 0.104670 0.246100
Cl83 Cl 0.489740 0.895330 0.753900
Cl84 Cl 0.989740 0.604670 1.253900

#END
