
#######################################################################
#
#                 Cambridge Crystallographic Data Centre
#                                CCDC 
#
#######################################################################
#
# If this CIF has been generated from an entry in the Cambridge 
# Structural Database, then it will include bibliographic, chemical, 
# crystal, experimental, refinement or atomic coordinate data resulting 
# from the CCDC's data processing and validation procedures.
#
#######################################################################

data_ADEMIG
_symmetry_cell_setting           monoclinic
_symmetry_space_group_name_H-M   'P 21/n'
_symmetry_Int_Tables_number      14
_space_group_name_Hall           '-P 2yn'
loop_
_symmetry_equiv_pos_site_id
_symmetry_equiv_pos_as_xyz
1 x,y,z
2 1/2-x,1/2+y,1/2-z
3 -x,-y,-z
4 1/2+x,1/2-y,1/2+z
_cell_length_a                   7.4280(15)
_cell_length_b                   14.202(3)
_cell_length_c                   8.8050(18)
_cell_angle_alpha                90
_cell_angle_beta                 106.76(3)
_cell_angle_gamma                90
_cell_volume                     889.404
loop_
_atom_site_label
_atom_site_type_symbol
_atom_site_fract_x
_atom_site_fract_y
_atom_site_fract_z
Cl1 Cl 0.98974(10) 0.60467(5) 1.25390(8)
O1 O 0.6049(3) 0.60845(13) 0.4271(2)
H1 H 0.5542 0.5615 0.3792
O2 O 0.6763(3) 0.68865(12) 0.7876(2)
N1 N 0.6071(3) 0.53892(14) 0.7618(2)
N2 N 0.7568(3) 0.64753(16) 0.9380(3)
C1 C 0.4965(4) 0.6430(2) 0.5231(3)
H2 H 0.3721 0.6151 0.4903
H3 H 0.4830 0.7108 0.5110
C2 C 0.5909(3) 0.61933(16) 0.6925(3)
C3 C 0.7127(3) 0.55880(16) 0.9152(3)
C4 C 0.7651(3) 0.48467(16) 1.0370(3)
C5 C 0.8854(3) 0.49710(17) 1.1898(3)
C6 C 0.9279(4) 0.4228(2) 1.2959(3)
H4 H 1.0089 0.4320 1.3972
C7 C 0.8501(4) 0.3348(2) 1.2514(3)
H5 H 0.8782 0.2850 1.3231
C8 C 0.7319(4) 0.32103(19) 1.1022(3)
H6 H 0.6795 0.2620 1.0723
C9 C 0.6905(4) 0.39446(16) 0.9965(3)
H7 H 0.6107 0.3840 0.8951
Cl1 Cl 0.51026(10) 0.10467(5) 0.24610(8)
O1 O 0.8951(3) 0.10845(13) 1.0729(2)
H1 H 0.9458 0.0615 1.1208
O2 O 0.8237(3) 0.18865(12) 0.7124(2)
N1 N 0.8929(3) 0.03892(14) 0.7382(2)
N2 N 0.7432(3) 0.14753(16) 0.5620(3)
C1 C 1.0035(4) 0.1430(2) 0.9769(3)
H2 H 1.1279 0.1151 1.0097
H3 H 1.0170 0.2108 0.9890
C2 C 0.9091(3) 0.11933(16) 0.8075(3)
C3 C 0.7873(3) 0.05880(16) 0.5848(3)
C4 C 0.7349(3) -0.01533(16) 0.4630(3)
C5 C 0.6146(3) -0.00290(17) 0.3102(3)
C6 C 0.5721(4) -0.0772(2) 0.2041(3)
H4 H 0.4911 -0.0680 0.1028
C7 C 0.6499(4) -0.1652(2) 0.2486(3)
H5 H 0.6218 -0.2150 0.1769
C8 C 0.7681(4) -0.17897(19) 0.3978(3)
H6 H 0.8205 -0.2380 0.4277
C9 C 0.8095(4) -0.10554(16) 0.5035(3)
H7 H 0.8893 -0.1160 0.6049
Cl1 Cl 0.01026(10) 0.39533(5) -0.25390(8)
O1 O 0.3951(3) 0.39155(13) 0.5729(2)
H1 H 0.4458 0.4385 0.6208
O2 O 0.3237(3) 0.31135(12) 0.2124(2)
N1 N 0.3929(3) 0.46108(14) 0.2382(2)
N2 N 0.2432(3) 0.35247(16) 0.0620(3)
C1 C 0.5035(4) 0.3570(2) 0.4769(3)
H2 H 0.6279 0.3849 0.5097
H3 H 0.5170 0.2892 0.4890
C2 C 0.4091(3) 0.38067(16) 0.3075(3)
C3 C 0.2873(3) 0.44120(16) 0.0848(3)
C4 C 0.2349(3) 0.51533(16) -0.0370(3)
C5 C 0.1146(3) 0.50290(17) -0.1898(3)
C6 C 0.0721(4) 0.5772(2) -0.2959(3)
H4 H -0.0089 0.5680 -0.3972
C7 C 0.1499(4) 0.6652(2) -0.2514(3)
H5 H 0.1218 0.7150 -0.3231
C8 C 0.2681(4) 0.67897(19) -0.1022(3)
H6 H 0.3205 0.7380 -0.0723
C9 C 0.3095(4) 0.60554(16) 0.0035(3)
H7 H 0.3893 0.6160 0.1049
Cl1 Cl 0.48974(10) 0.89533(5) 0.75390(8)
O1 O 0.1049(3) 0.89155(13) -0.0729(2)
H1 H 0.0542 0.9385 -0.1208
O2 O 0.1763(3) 0.81135(12) 0.2876(2)
N1 N 0.1071(3) 0.96108(14) 0.2618(2)
N2 N 0.2568(3) 0.85247(16) 0.4380(3)
C1 C -0.0035(4) 0.8570(2) 0.0231(3)
H2 H -0.1279 0.8849 -0.0097
H3 H -0.0170 0.7892 0.0110
C2 C 0.0909(3) 0.88067(16) 0.1925(3)
C3 C 0.2127(3) 0.94120(16) 0.4152(3)
C4 C 0.2651(3) 1.01533(16) 0.5370(3)
C5 C 0.3854(3) 1.00290(17) 0.6898(3)
C6 C 0.4279(4) 1.0772(2) 0.7959(3)
H4 H 0.5089 1.0680 0.8972
C7 C 0.3501(4) 1.1652(2) 0.7514(3)
H5 H 0.3782 1.2150 0.8231
C8 C 0.2319(4) 1.17897(19) 0.6022(3)
H6 H 0.1795 1.2380 0.5723
C9 C 0.1905(4) 1.10554(16) 0.4965(3)
H7 H 0.1107 1.1160 0.3951

#END
