
#######################################################################
#
#                 Cambridge Crystallographic Data Centre
#                                CCDC 
#
#######################################################################
#
# If this CIF has been generated from an entry in the Cambridge 
# Structural Database, then it will include bibliographic, chemical, 
# crystal, experimental, refinement or atomic coordinate data resulting 
# from the CCDC's data processing and validation procedures.
#
#######################################################################

data_ADERIL
_symmetry_cell_setting           triclinic
_symmetry_space_group_name_H-M   'P -1'
_symmetry_Int_Tables_number      2
_space_group_name_Hall           '-P 1'
loop_
_symmetry_equiv_pos_site_id
_symmetry_equiv_pos_as_xyz
1 x,y,z
2 -x,-y,-z
_cell_length_a                   6.4220(13)
_cell_length_b                   7.4720(15)
_cell_length_c                   17.181(3)
_cell_angle_alpha                79.48(3)
_cell_angle_beta                 82.16(3)
_cell_angle_gamma                85.45(3)
_cell_volume                     801.745
loop_
_atom_site_label
_atom_site_type_symbol
_atom_site_fract_x
_atom_site_fract_y
_atom_site_fract_z
O1 O 0.7585(3) 0.4799(3) 0.49471(10)
H1 H 0.8232 0.4562 0.5336
C1 C 1.2925(6) 0.9255(5) 0.07132(17)
H2 H 1.4143 0.9749 0.0843
H3 H 1.2111 1.0207 0.0416
H4 H 1.3362 0.8323 0.0398
N1 N 0.5933(3) 0.5677(3) 0.36661(12)
H5 H 0.5227 0.5175 0.4102
H6 H 0.5341 0.5959 0.3237
C2 C 1.1597(4) 0.8444(3) 0.14751(15)
C3 C 1.2212(4) 0.8477(3) 0.22104(15)
H7 H 1.3450 0.9020 0.2235
C4 C 1.1037(3) 0.7725(3) 0.29118(14)
H8 H 1.1488 0.7781 0.3398
N2 N 0.8938(3) 0.5636(3) 0.42707(11)
C5 C 0.9182(3) 0.6883(3) 0.28989(12)
C6 C 0.8543(4) 0.6872(3) 0.21607(13)
H9 H 0.7295 0.6345 0.2134
C7 C 0.9735(4) 0.7633(4) 0.14619(14)
H10 H 0.9278 0.7600 0.0974
C8 C 0.7973(3) 0.6021(3) 0.36550(12)
O1 O 0.2415(3) 0.5201(3) 0.50529(10)
H1 H 0.1768 0.5438 0.4664
C1 C -0.2925(6) 0.0745(5) 0.92868(17)
H2 H -0.4143 0.0251 0.9157
H3 H -0.2111 -0.0207 0.9584
H4 H -0.3362 0.1677 0.9602
N1 N 0.4067(3) 0.4323(3) 0.63339(12)
H5 H 0.4773 0.4825 0.5898
H6 H 0.4659 0.4041 0.6763
C2 C -0.1597(4) 0.1556(3) 0.85249(15)
C3 C -0.2212(4) 0.1523(3) 0.77896(15)
H7 H -0.3450 0.0980 0.7765
C4 C -0.1037(3) 0.2275(3) 0.70882(14)
H8 H -0.1488 0.2219 0.6602
N2 N 0.1062(3) 0.4364(3) 0.57293(11)
C5 C 0.0818(3) 0.3117(3) 0.71011(12)
C6 C 0.1457(4) 0.3128(3) 0.78393(13)
H9 H 0.2705 0.3655 0.7866
C7 C 0.0265(4) 0.2367(4) 0.85381(14)
H10 H 0.0722 0.2400 0.9026
C8 C 0.2027(3) 0.3979(3) 0.63450(12)
O2 O 0.7465(2) 0.4901(3) 0.00134(9)
H11 H 0.6786 0.5489 -0.0328
N3 N 0.6073(3) 0.4297(3) 0.07206(11)
N4 N 0.9204(3) 0.2999(3) 0.11458(12)
H12 H 0.9910 0.3387 0.0692
H13 H 0.9835 0.2373 0.1526
C9 C 0.2353(6) 0.0804(5) 0.43483(17)
H14 H 0.0973 0.1404 0.4372
H15 H 0.3069 0.1084 0.4763
H16 H 0.2234 -0.0490 0.4420
C10 C 0.3589(4) 0.1458(3) 0.35450(14)
C11 C 0.2718(4) 0.2750(3) 0.29760(14)
H17 H 0.1342 0.3208 0.3090
C12 C 0.3834(3) 0.3377(3) 0.22445(13)
H18 H 0.3212 0.4259 0.1879
C13 C 0.5897(3) 0.2692(3) 0.20495(12)
C14 C 0.6770(4) 0.1402(3) 0.26139(13)
H19 H 0.8136 0.0926 0.2497
C15 C 0.5651(4) 0.0805(3) 0.33501(14)
H20 H 0.6288 -0.0050 0.3722
C16 C 0.7098(3) 0.3374(3) 0.12622(12)
O2 O 0.2535(2) 0.5099(3) 0.99866(9)
H11 H 0.3214 0.4511 1.0328
N3 N 0.3927(3) 0.5703(3) 0.92794(11)
N4 N 0.0796(3) 0.7001(3) 0.88542(12)
H12 H 0.0090 0.6613 0.9308
H13 H 0.0165 0.7627 0.8474
C9 C 0.7647(6) 0.9196(5) 0.56517(17)
H14 H 0.9027 0.8596 0.5628
H15 H 0.6931 0.8916 0.5237
H16 H 0.7766 1.0490 0.5580
C10 C 0.6411(4) 0.8542(3) 0.64550(14)
C11 C 0.7282(4) 0.7250(3) 0.70240(14)
H17 H 0.8658 0.6792 0.6910
C12 C 0.6166(3) 0.6623(3) 0.77555(13)
H18 H 0.6788 0.5741 0.8121
C13 C 0.4103(3) 0.7308(3) 0.79505(12)
C14 C 0.3230(4) 0.8598(3) 0.73861(13)
H19 H 0.1864 0.9074 0.7503
C15 C 0.4349(4) 0.9195(3) 0.66499(14)
H20 H 0.3712 1.0050 0.6278
C16 C 0.2902(3) 0.6626(3) 0.87378(12)

#END
