./ADIBAS_from_POSCAR.cif_generated_by_CrystalShift
_symmetry_cell_setting triclinic
_symmetry_space_group_name_H-M 'P 1'
loop_
_symmetry_equiv_pos_site_id
_symmetry_equiv_pos_as_xyz
1 x,y,z
_cell_length_a 9.375400
_cell_length_b 11.161000
_cell_length_c 11.962000
_cell_angle_alpha 90.000000
_cell_angle_beta 105.572000
_cell_angle_gamma 90.000000
_cell_volume 1205.745109
loop_
_atom_site_label
_atom_site_type_symbol
_atom_site_fract_x
_atom_site_fract_y
_atom_site_fract_z
H1 H 0.345700 0.519100 0.387700
H2 H 0.215800 0.783200 0.471800
H3 H 0.212000 0.250600 0.715700
H4 H 0.046400 0.251500 0.630800
H5 H -0.046600 0.516600 0.783300
H6 H 0.115800 0.503700 0.869500
H7 H 0.032800 0.388500 0.803000
H8 H 0.032800 1.111500 0.303000
H9 H 0.115800 0.996300 0.369500
H10 H -0.046600 0.983400 0.283300
H11 H 0.245800 0.637500 0.361600
H12 H 0.046400 1.248500 0.130800
H13 H 0.212000 1.249400 0.215700
H14 H 0.404000 0.641000 0.455100
H15 H 0.215800 0.716800 -0.028200
H16 H 0.134100 0.681000 0.068300
H17 H 0.273700 0.999300 0.632700
H18 H 0.345700 0.980900 -0.112300
H19 H 0.245800 0.862500 -0.138400
H20 H 0.404000 0.859000 -0.044900
H21 H 0.487600 0.517300 0.739300
H22 H 0.273700 0.500700 0.132700
H23 H 0.343800 0.518300 0.025800
H24 H 0.508200 0.614500 0.840800
H25 H 0.448300 0.704700 0.106500
H26 H 0.373900 0.687400 0.211500
H27 H 0.414900 0.495200 0.844300
H28 H 0.585100 0.504800 0.155700
H29 H 0.491800 0.385500 0.159200
H30 H 0.512400 0.482700 0.260700
H31 H 0.512400 1.017300 0.760700
H32 H 0.491800 1.114500 0.659200
H33 H 0.585100 0.995200 0.655700
H34 H 0.626100 0.312600 0.788500
H35 H 0.551700 0.295300 0.893500
H36 H 0.656200 0.481700 0.974200
H37 H 0.726300 0.499300 0.867300
H38 H 0.596000 0.141000 1.044900
H39 H 0.754200 0.137500 1.138400
H40 H 0.654300 0.019100 1.112300
H41 H 0.865900 0.319000 0.931700
H42 H 0.967200 0.611500 0.197000
H43 H 0.884200 0.496300 0.130500
H44 H 1.046600 0.483400 0.216700
H45 H 0.784200 0.283200 1.028200
H46 H 0.953600 0.748500 0.369200
H47 H 0.788000 0.749400 0.284300
H48 H 0.788000 -0.249400 0.784300
H49 H 0.784200 0.216800 0.528200
H50 H 0.865900 0.181000 0.431700
H51 H 0.953600 -0.248500 0.869200
H52 H 0.654300 0.480900 0.612300
H53 H 0.754200 0.362500 0.638400
H54 H 0.596000 0.359000 0.544900
H55 H 1.046600 0.016600 0.716700
H56 H 0.726300 0.000700 0.367300
H57 H 0.656200 0.018300 0.474200
H58 H 0.884200 0.003700 0.630500
H59 H 0.551700 0.204700 0.393500
H60 H 0.626100 0.187400 0.288500
H61 H 0.967200 -0.111500 0.697000
H62 H 0.414900 0.004800 0.344300
H63 H 0.508200 -0.114500 0.340800
H64 H 0.487600 -0.017300 0.239300
H65 H 0.373900 0.812600 0.711500
H66 H 0.448300 0.795300 0.606500
H67 H 0.343800 0.981700 0.525800
H68 H 0.134100 0.819000 0.568300
C69 C 0.844830 -0.086550 0.867740
C70 C 0.858570 0.122440 0.825860
C71 C 0.754970 0.057880 0.984800
C72 C 0.779750 -0.058370 0.958220
C73 C 0.885280 -0.001230 0.801760
C74 C 0.748230 -0.170940 1.010880
C75 C 0.951580 -0.025170 0.702920
C76 C 0.500360 -0.028760 0.322680
C77 C 0.637400 0.169770 0.371580
C78 C 0.640870 0.034600 0.390460
C79 C 0.850790 -0.220780 0.859890
C80 C 0.683730 0.408200 0.578170
C81 C 0.780860 0.225720 0.445190
C82 C 0.780860 0.274280 0.945190
C83 C 0.850790 0.720780 0.359890
C84 C 0.951580 0.525170 0.202920
C85 C 0.683730 0.091800 1.078170
C86 C 0.748230 0.670940 0.510880
C87 C 0.885280 0.501230 0.301760
C88 C 0.779750 0.558370 0.458220
C89 C 0.640870 0.465400 0.890460
C90 C 0.754970 0.442120 0.484800
C91 C 0.858570 0.377560 0.325860
C92 C 0.637400 0.330230 0.871580
C93 C 0.844830 0.586550 0.367740
C94 C 0.499640 1.028760 0.677320
C95 C 0.500360 0.528760 0.822680
C96 C 0.499640 0.471240 0.177320
C97 C 0.362600 0.669770 0.128420
C98 C 0.359130 0.534600 0.109540
C99 C 0.316270 0.908200 -0.078170
C100 C 0.359130 0.965400 0.609540
C101 C 0.219140 0.725720 0.054810
C102 C 0.149210 1.220780 0.140110
C103 C 0.155170 0.413450 0.632260
C104 C 0.141430 0.622440 0.674140
C105 C 0.245030 0.557880 0.515200
C106 C 0.220250 0.441630 0.541780
C107 C 0.114720 0.498770 0.698240
C108 C 0.251770 0.329060 0.489120
C109 C 0.048420 0.474830 0.797080
C110 C 0.048420 1.025170 0.297080
C111 C 0.251770 1.170940 -0.010880
C112 C 0.114720 1.001230 0.198240
C113 C 0.149210 0.279220 0.640110
C114 C 0.220250 1.058370 0.041780
C115 C 0.245030 0.942120 0.015200
C116 C 0.219140 0.774280 0.554810
C117 C 0.141430 0.877560 0.174140
C118 C 0.362600 0.830230 0.628420
C119 C 0.316270 0.591800 0.421830
C120 C 0.155170 1.086550 0.132260
N121 N 0.797510 0.145890 0.920330
N122 N 0.202490 0.854110 0.079670
N123 N 0.797510 0.354110 0.420330
N124 N 0.202490 0.645890 0.579670
O125 O 0.691650 -0.189750 1.088790
O126 O 0.794630 0.763550 0.454740
O127 O 0.691650 0.689750 0.588790
O128 O 0.885520 0.292580 0.268740
O129 O 0.794630 -0.263550 0.954740
O130 O 0.205370 1.263550 0.045260
O131 O 0.308350 1.189750 -0.088790
O132 O 0.114480 0.792580 0.231260
O133 O 0.114480 0.707420 0.731260
O134 O 0.308350 0.310250 0.411210
O135 O 0.205370 0.236450 0.545260
O136 O 0.885520 0.207420 0.768740

#END
