./ADICIB_from_POSCAR.cif_generated_by_CrystalShift
_symmetry_cell_setting triclinic
_symmetry_space_group_name_H-M 'P 1'
loop_
_symmetry_equiv_pos_site_id
_symmetry_equiv_pos_as_xyz
1 x,y,z
_cell_length_a 8.374600
_cell_length_b 5.691000
_cell_length_c 15.669700
_cell_angle_alpha 90.000000
_cell_angle_beta 101.539000
_cell_angle_gamma 90.000000
_cell_volume 731.721471
loop_
_atom_site_label
_atom_site_type_symbol
_atom_site_fract_x
_atom_site_fract_y
_atom_site_fract_z
H1 H 0.518000 0.637700 0.128500
H2 H 0.633900 0.576100 -0.005500
H3 H 0.784400 0.347600 -0.082200
H4 H 0.902700 -0.007300 -0.024000
H5 H 0.641200 0.800400 0.646300
H6 H 0.875800 -0.126400 0.113000
H7 H 0.616000 1.186300 0.761300
H8 H 0.768100 -0.056500 0.249100
H9 H 0.617800 0.170500 0.326900
H10 H -0.020800 0.421100 0.312700
H11 H 0.752800 1.556700 0.530500
H12 H -0.166700 0.695700 0.377200
H13 H 1.035400 1.517000 0.547600
H14 H -0.035400 1.017000 0.452400
H15 H 1.166700 1.195700 0.622800
H16 H 0.247200 1.056700 0.469500
H17 H 1.020800 0.921100 0.687300
H18 H 0.384000 0.686300 0.238700
H19 H 0.358800 0.300400 0.353700
H20 H 0.482000 1.137700 0.871500
H21 H 0.382200 0.670500 0.673100
H22 H 0.366100 1.076100 1.005500
H23 H 0.231900 0.443500 0.750900
H24 H 0.215600 0.847600 1.082200
H25 H 0.097300 0.492700 1.024000
H26 H 0.124200 0.373600 0.887000
C27 C 0.157200 0.586300 0.991200
C28 C 0.173700 0.515800 0.910520
C29 C 0.229000 0.798400 1.026160
C30 C 0.264100 0.652700 0.861170
C31 C 0.317600 0.934500 0.980660
C32 C 0.282500 0.583500 0.775970
C33 C 0.337300 0.864600 0.896600
C34 C 0.431400 0.996400 0.847680
C35 C 0.372500 0.717300 0.730060
C36 C 0.662700 0.364600 0.103400
C37 C 0.682400 0.434500 0.019340
C38 C 0.771000 0.298400 -0.026160
C39 C 0.305500 0.416000 0.308900
C40 C 0.451000 0.924900 0.766920
C41 C 0.437400 0.559100 0.278330
C42 C 0.799400 1.077800 0.650560
C43 C 0.459500 0.793000 0.409520
C44 C 0.279900 0.768200 0.397730
C45 C 0.192600 0.929500 0.436690
C46 C 0.965800 1.051200 0.656640
C47 C 0.025500 0.904400 0.427540
C48 C 1.052500 1.214600 0.617940
C49 C -0.052500 0.714600 0.382060
C50 C 0.974500 1.404400 0.572460
C51 C 0.034200 0.551200 0.343360
C52 C 0.807400 1.429500 0.563310
C53 C 0.200600 0.577800 0.349440
C54 C 0.549000 0.424900 0.233080
C55 C 0.627500 0.217300 0.269940
C56 C 0.720100 1.268200 0.602270
C57 C 0.717500 0.083500 0.224030
C58 C 0.540500 1.293000 0.590480
C59 C 0.735900 0.152700 0.138830
C60 C 0.826300 0.015800 0.089480
C61 C 0.562600 1.059100 0.721670
C62 C 0.842800 0.086300 0.008800
C63 C 0.694500 0.916000 0.691100
C64 C 0.568600 0.496400 0.152320
O65 O 0.535900 0.667400 0.356160
O66 O 0.464100 1.167400 0.643840
O67 O 0.458400 1.416800 0.536570
O68 O 0.541600 0.916800 0.463430
Br69 Br 0.180780 0.244500 0.209755
Br70 Br 0.819220 0.744500 0.790245

#END
