./ADIDAT_from_POSCAR.cif_generated_by_CrystalShift
_symmetry_cell_setting triclinic
_symmetry_space_group_name_H-M 'P 1'
loop_
_symmetry_equiv_pos_site_id
_symmetry_equiv_pos_as_xyz
1 x,y,z
_cell_length_a 10.340000
_cell_length_b 14.433000
_cell_length_c 15.185000
_cell_angle_alpha 90.000000
_cell_angle_beta 105.920000
_cell_angle_gamma 90.000000
_cell_volume 2179.249751
loop_
_atom_site_label
_atom_site_type_symbol
_atom_site_fract_x
_atom_site_fract_y
_atom_site_fract_z
H1 H 0.562700 0.511000 0.711700
H2 H 0.627300 0.503300 0.817700
H3 H 0.906500 0.339300 0.529700
H4 H 1.023000 0.406600 0.578800
H5 H 0.882300 0.446600 0.525600
H6 H -0.012800 0.669500 -0.141400
H7 H 0.772900 0.374800 0.860100
H8 H -0.119500 0.800200 -0.105800
H9 H 0.927200 0.272900 0.836300
H10 H 0.005100 0.907700 -0.003100
H11 H 0.996600 0.281800 0.705200
H12 H 0.684000 0.917000 0.180600
H13 H 0.831300 0.893300 0.237300
H14 H 0.429300 0.560300 -0.059200
H15 H 0.409900 0.614600 0.025700
H16 H 0.438500 0.668800 -0.056500
H17 H 0.806400 0.955700 0.149800
H18 H 0.614300 1.134400 0.471200
H19 H 0.438400 0.911300 0.192000
H20 H 0.450400 0.844900 0.113000
H21 H 0.373500 0.812400 0.183300
H22 H 0.760700 1.110800 0.529700
H23 H 0.661700 1.030900 0.485200
H24 H 0.850000 1.113200 0.182300
H25 H 0.286300 0.265500 -0.099400
H26 H 0.853400 1.242800 0.269200
H27 H 0.353400 0.257200 -0.230800
H28 H 0.786300 1.234500 0.400600
H29 H 0.350000 0.386800 -0.317700
H30 H 0.873500 0.687600 0.683300
H31 H 0.950400 0.655100 0.613000
H32 H 0.161700 0.469100 -0.014800
H33 H 0.260700 0.389200 0.029700
H34 H 0.114300 0.365600 -0.028800
H35 H 0.938400 0.588700 0.692000
H36 H 0.306400 0.544300 -0.350200
H37 H 0.331300 0.606700 -0.262700
H38 H 0.184000 0.583000 -0.319400
H39 H 0.938500 0.831200 0.443500
H40 H 0.909900 0.885400 0.525700
H41 H 0.929300 0.939700 0.440800
H42 H 0.496600 1.218200 0.205200
H43 H 0.505100 0.592300 0.496900
H44 H 0.427200 1.227100 0.336300
H45 H 0.380500 0.699800 0.394200
H46 H 0.272900 1.125200 0.360100
H47 H 0.487200 0.830500 0.358600
H48 H 0.937300 0.011000 0.788300
H49 H 0.382300 1.053400 0.025600
H50 H 0.523000 1.093400 0.078800
H51 H 0.406500 1.160700 0.029700
H52 H 0.820400 0.078000 0.739200
H53 H 0.127300 0.996700 0.317700
H54 H 0.179600 0.922000 0.260800
H55 H 0.062700 0.989000 0.211700
H56 H 0.872700 0.003300 0.682300
H57 H 0.593500 -0.160700 0.970300
H58 H 0.477000 -0.093400 0.921200
H59 H 0.617700 -0.053400 0.974400
H60 H 0.727100 -0.125200 0.639900
H61 H 0.512800 0.169500 0.641400
H62 H 0.572800 -0.227100 0.663700
H63 H 0.619500 0.300200 0.605800
H64 H 0.503400 -0.218200 0.794800
H65 H 0.494900 0.407700 0.503100
H66 H 0.816000 0.417000 1.319400
H67 H 0.668700 0.393300 1.262700
H68 H 0.693600 0.455700 1.350200
H69 H 0.070700 0.060300 0.559200
H70 H 0.090100 0.114600 0.474300
H71 H 0.061500 0.168800 0.556500
H72 H 0.885700 0.634400 1.028800
H73 H 0.739300 0.610800 0.970300
H74 H 0.061600 0.411300 0.308000
H75 H 0.049600 0.344900 0.387000
H76 H 0.126500 0.312400 0.316700
H77 H 0.838300 0.530900 1.014800
H78 H 0.650000 0.613200 1.317700
H79 H 0.646600 0.742800 1.230800
H80 H 0.213700 -0.234500 0.599400
H81 H 0.713700 0.734500 1.099400
H82 H 0.146600 -0.242800 0.730800
H83 H 0.626500 0.187600 0.816700
H84 H 0.150000 -0.113200 0.817700
H85 H 0.549600 0.155100 0.887000
H86 H 0.561600 0.088700 0.808000
H87 H 0.338300 -0.030900 0.514800
H88 H 0.239300 -0.110800 0.470300
H89 H 0.385700 -0.134400 0.528800
H90 H 0.561500 0.331200 1.056500
H91 H 0.193600 0.044300 0.850200
H92 H 0.168700 0.106700 0.762700
H93 H 0.316000 0.083000 0.819400
H94 H 0.590100 0.385400 0.974300
H95 H 0.570700 0.439700 1.059200
H96 H 0.994900 0.092300 1.003100
H97 H 0.003400 0.718200 0.294800
H98 H 1.119500 0.199800 1.105800
H99 H 0.072800 0.727100 0.163700
H100 H 1.012800 0.330500 1.141400
H101 H 0.227100 0.625200 0.139900
H102 H 0.437300 0.489000 0.288300
H103 H 0.320400 0.422000 0.239200
H104 H 0.117700 0.553400 0.474400
H105 H -0.023000 0.593400 0.421200
H106 H 0.093500 0.660700 0.470300
H107 H 0.372700 0.496700 0.182300
H108 H 0.679600 0.578000 0.760800
C109 C 0.072400 0.603610 0.437000
C110 C 0.254000 0.551730 0.255930
C111 C 0.644800 0.516300 0.759990
C112 C 0.172680 0.704160 -0.062260
C113 C 0.035440 0.714030 -0.101350
C114 C 0.827320 0.295840 1.062260
C115 C 0.964560 0.285970 1.101350
C116 C 0.199600 0.620700 0.193180
C117 C 1.027890 0.208750 1.079610
C118 C 0.107800 0.681640 0.207060
C119 C 0.954100 0.144940 1.018570
C120 C 0.066500 0.676110 0.285620
C121 C 0.817730 0.160800 0.980590
C122 C 0.753760 0.377960 1.084620
C123 C 0.605690 0.384110 1.039640
C124 C 0.117420 0.608930 0.351480
C125 C 0.211430 0.546970 0.335640
C126 C 0.225600 0.059960 0.798470
C127 C 0.733900 0.097270 0.910230
C128 C 0.606620 0.135530 0.850170
C129 C 0.310800 -0.093190 0.522650
C130 C 0.223430 -0.024900 0.740660
C131 C 0.178800 -0.109380 0.764850
C132 C 0.765280 0.520590 1.160910
C133 C 0.762800 0.598560 1.106910
C134 C 0.716700 0.681620 1.134850
C135 C 0.176100 -0.186750 0.713010
C136 C 0.676100 0.686750 1.213010
C137 C 0.216700 -0.181620 0.634850
C138 C 0.678800 0.609380 1.264850
C139 C 0.262800 -0.098560 0.606910
C140 C 0.723430 0.524900 1.240660
C141 C 0.810800 0.593190 1.022650
C142 C 0.265280 -0.020590 0.660910
C143 C 0.106620 0.364470 0.350170
C144 C 0.233900 0.402730 0.410230
C145 C 0.725600 0.440040 1.298470
C146 C 0.105690 0.115890 0.539640
C147 C 0.253760 0.122040 0.584620
C148 C 0.317730 0.339200 0.480590
C149 C 0.711430 -0.046970 0.835640
C150 C 0.617420 -0.108930 0.851480
C151 C 0.566500 -0.176110 0.785620
C152 C 0.454100 0.355060 0.518570
C153 C 0.607800 -0.181640 0.707060
C154 C 0.527890 0.291250 0.579610
C155 C 0.699600 -0.120700 0.693180
C156 C 0.464560 0.214030 0.601350
C157 C 0.754000 -0.051730 0.755930
C158 C 0.572400 -0.103610 0.937000
C159 C 0.327320 0.204160 0.562260
C160 C 0.927600 0.396390 0.563000
C161 C 0.746000 0.448270 0.744070
C162 C 0.855200 0.016300 0.740010
C163 C -0.027890 0.791250 -0.079610
C164 C 0.144800 0.983700 0.259990
C165 C 0.427600 1.103610 0.063000
C166 C 0.800400 0.379300 0.806820
C167 C 0.045900 0.855060 -0.018570
C168 C 0.892200 0.318360 0.792940
C169 C 0.672680 0.795840 0.437740
C170 C 0.535440 0.785970 0.398650
C171 C 0.246000 1.051730 0.244070
C172 C 0.472110 0.708750 0.420390
C173 C 0.300400 1.120700 0.306820
C174 C 0.545900 0.644940 0.481430
C175 C 0.392200 1.181640 0.292940
C176 C 0.682270 0.660800 0.519410
C177 C 0.746240 0.877960 0.415380
C178 C 0.894310 0.884110 0.460360
C179 C 0.433500 1.176110 0.214380
C180 C 0.382580 1.108930 0.148520
C181 C 0.288570 1.046970 0.164360
C182 C 0.766100 0.597270 0.589770
C183 C 0.893380 0.635530 0.649830
C184 C 0.274400 0.559960 -0.298470
C185 C 0.189200 0.406810 -0.022650
C186 C 0.276570 0.475100 -0.240660
C187 C 0.734720 1.020590 0.339090
C188 C 0.737200 1.098560 0.393090
C189 C 0.783300 1.181620 0.365150
C190 C 0.321200 0.390620 -0.264850
C191 C 0.823900 1.186750 0.286990
C192 C 0.323900 0.313250 -0.213010
C193 C 0.821200 1.109380 0.235150
C194 C 0.283300 0.318380 -0.134850
C195 C 0.776570 1.024900 0.259340
C196 C 0.689200 1.093190 0.477350
C197 C 0.237200 0.401440 -0.106910
C198 C 0.234720 0.479410 -0.160910
C199 C 0.393380 0.864470 0.149830
C200 C 0.774400 0.940040 0.201530
C201 C 0.266100 0.902730 0.089770
C202 C 0.394310 0.615890 -0.039640
C203 C 0.246240 0.622040 -0.084620
C204 C 0.788570 0.453030 0.664360
C205 C 0.882580 0.391070 0.648520
C206 C 0.933500 0.323890 0.714380
C207 C 0.182270 0.839200 0.019410
C208 C 0.355200 0.483700 0.240010
N209 N 0.676810 0.937170 0.361110
N210 N 0.745090 0.735160 0.497850
N211 N 0.254910 0.264840 0.502150
N212 N 0.323190 0.062830 0.638890
N213 N 0.278890 0.483890 0.405150
N214 N 0.778890 0.016110 0.905150
N215 N 0.823190 0.437170 1.138890
N216 N 0.221110 0.983890 0.094850
N217 N 0.754910 0.235160 1.002150
N218 N 0.176810 0.562830 -0.138890
N219 N 0.721110 0.516110 0.594850
N220 N 0.245090 0.764840 -0.002150

#END
