./ADISIQ_from_POSCAR.cif_generated_by_CrystalShift
_symmetry_cell_setting triclinic
_symmetry_space_group_name_H-M 'P 1'
loop_
_symmetry_equiv_pos_site_id
_symmetry_equiv_pos_as_xyz
1 x,y,z
_cell_length_a 5.804100
_cell_length_b 8.909400
_cell_length_c 28.773000
_cell_angle_alpha 90.000000
_cell_angle_beta 90.000000
_cell_angle_gamma 90.000000
_cell_volume 1487.882000
loop_
_atom_site_label
_atom_site_type_symbol
_atom_site_fract_x
_atom_site_fract_y
_atom_site_fract_z
H1 H 0.458900 1.004800 0.768700
H2 H 1.140200 1.030200 0.906200
H3 H 0.765400 1.180400 0.936400
H4 H 0.528900 1.217000 0.999700
H5 H 0.398500 0.969000 0.155300
H6 H 0.294200 1.025400 1.025100
H7 H 0.135400 1.159400 0.144200
H8 H 0.300500 0.796600 0.988200
H9 H -0.180700 1.122000 0.098200
H10 H 0.262800 0.604100 0.938300
H11 H -0.237200 0.895900 0.061700
H12 H 0.319300 0.378000 0.901800
H13 H 0.635400 0.340600 0.855800
H14 H 0.898500 0.531000 0.844700
H15 H -0.199500 0.703400 0.011800
H16 H 1.139800 1.274100 0.766000
H17 H -0.205800 0.474600 -0.025100
H18 H 1.041100 -0.004800 0.268700
H19 H 0.028900 0.283000 0.000300
H20 H 0.945900 -0.151000 0.205100
H21 H 0.265400 0.319600 0.063600
H22 H 0.608500 -0.285800 0.204300
H23 H 0.360200 -0.274100 0.266000
H24 H 0.264200 -0.171800 0.346100
H25 H 0.640200 0.469800 0.093800
H26 H 0.359800 -0.030200 0.406200
H27 H 0.735800 0.328200 0.153900
H28 H 0.734600 -0.180400 0.436400
H29 H 0.971100 -0.217000 0.499700
H30 H 0.639800 0.225900 0.234000
H31 H 1.205800 -0.025400 0.525100
H32 H 0.391500 0.214200 0.295700
H33 H 1.199500 0.203400 0.488200
H34 H 0.054100 0.349000 0.294900
H35 H 1.237200 0.395900 0.438300
H36 H -0.041100 0.495200 0.231300
H37 H 1.180700 0.622000 0.401800
H38 H 0.554100 1.151000 0.705100
H39 H 0.864600 0.659400 0.355800
H40 H 0.601500 0.469000 0.344700
H41 H 0.891500 1.285800 0.704300
H42 H 0.101500 0.031000 0.655300
H43 H 0.541100 0.504800 0.731300
H44 H 0.364600 -0.159400 0.644200
H45 H 0.445900 0.651000 0.794900
H46 H 0.680700 -0.122000 0.598200
H47 H 1.235800 1.171800 0.846100
H48 H 0.737200 0.104100 0.561700
H49 H 0.108500 0.785800 0.795700
H50 H -0.139800 0.774100 0.734000
H51 H -0.235800 0.671800 0.653900
H52 H 0.699500 0.296600 0.511800
H53 H -0.140200 0.530200 0.593800
H54 H 0.705800 0.525400 0.474900
H55 H 0.234600 0.680400 0.563600
H56 H 0.471100 0.717000 0.500300
C57 C 0.327800 0.602400 0.553140
C58 C 0.469800 0.624700 0.515420
C59 C 0.322200 0.465960 0.575640
C60 C 0.176100 0.444600 0.618050
C61 C -0.041400 0.534400 0.619160
C62 C 0.609100 0.510500 0.500220
C63 C -0.097700 0.618900 0.654650
C64 C 0.605800 0.373900 0.522490
C65 C 0.048600 0.631800 0.694760
C66 C -0.003200 0.719600 0.733320
C67 C 0.464200 0.349810 0.560870
C68 C 0.144800 0.726500 0.770090
C69 C 0.449700 0.206200 0.585470
C70 C 0.607800 0.090100 0.580210
C71 C 0.574400 -0.045000 0.602170
C72 C 0.404100 0.559000 0.731710
C73 C 0.386400 -0.067100 0.629790
C74 C 0.254900 0.553340 0.694610
C75 C 0.229400 0.045800 0.636410
C76 C 0.855200 1.226500 0.729910
C77 C 0.764100 0.317700 0.385500
C78 C 0.729400 0.454200 0.363590
C79 C 0.264100 0.182300 0.614500
C80 C 0.886400 0.567100 0.370210
C81 C 0.653100 1.146400 0.730420
C82 C 1.074400 0.545000 0.397830
C83 C 0.245100 0.446660 0.194610
C84 C 1.107800 0.409900 0.419790
C85 C 0.095900 0.441000 0.231710
C86 C 0.949700 0.293800 0.414530
C87 C 0.964200 0.150190 0.439130
C88 C 1.105800 0.126100 0.477510
C89 C 0.153100 0.353600 0.269580
C90 C 1.109100 -0.010500 0.499780
C91 C 0.355200 0.273500 0.270090
C92 C 0.969800 -0.124700 0.484580
C93 C 0.503200 0.280400 0.233320
C94 C 0.827800 -0.102400 0.446860
C95 C 0.451400 0.368200 0.194760
C96 C 0.822200 0.034040 0.424360
C97 C 0.676100 0.055400 0.381950
C98 C 0.458600 -0.034400 0.380840
C99 C 0.597700 0.381100 0.154650
C100 C 0.402300 -0.118900 0.345350
C101 C 0.541400 0.465600 0.119160
C102 C 0.548600 -0.131800 0.305240
C103 C 0.496800 -0.219600 0.266680
C104 C 0.323900 0.555400 0.118050
C105 C 0.644800 -0.226500 0.229910
C106 C 0.177800 0.534040 0.075640
C107 C 0.846900 -0.146400 0.230420
C108 C 0.172200 0.397600 0.053140
C109 C 0.904100 -0.059000 0.268290
C110 C 0.030200 0.375300 0.015420
C111 C 0.754900 -0.053340 0.305390
C112 C -0.109100 0.489500 0.000220
C113 C 1.003200 1.219600 0.766680
C114 C 0.735900 0.682300 0.885500
C115 C 0.770600 0.545800 0.863590
C116 C -0.105800 0.626100 0.022490
C117 C 0.613600 0.432900 0.870210
C118 C 0.035800 0.650190 0.060870
C119 C 0.425600 0.455000 0.897830
C120 C 0.050300 0.793800 0.085470
C121 C 0.392200 0.590100 0.919790
C122 C -0.107800 0.909900 0.080210
C123 C 0.550300 0.706200 0.914530
C124 C 0.535800 0.849810 0.939130
C125 C 0.394200 0.873900 0.977510
C126 C -0.074400 1.045000 0.102170
C127 C 0.390900 1.010500 0.999780
C128 C 0.113600 1.067100 0.129790
C129 C 0.530200 1.124700 0.984580
C130 C 0.270600 0.954200 0.136410
C131 C 0.672200 1.102400 0.946860
C132 C 0.235900 0.817700 0.114500
C133 C 0.677800 0.965960 0.924360
C134 C 0.823900 0.944600 0.881950
C135 C 1.041400 1.034400 0.880840
C136 C 0.595900 1.059000 0.768290
C137 C 1.097700 1.118900 0.845350
C138 C 0.346900 0.646400 0.769580
C139 C 0.951400 1.131800 0.805240
C140 C 0.745100 1.053340 0.805390
O141 O 0.825200 0.026820 0.343370
O142 O 0.600400 0.208250 0.378380
O143 O 0.325200 0.473180 0.656630
O144 O 0.100400 0.291750 0.621620
O145 O 0.174800 0.526820 0.156630
O146 O 0.899600 0.791750 0.878380
O147 O 0.674800 0.973180 0.843370
O148 O 0.399600 0.708250 0.121620

#END
