
#######################################################################
#
#                 Cambridge Crystallographic Data Centre
#                                CCDC 
#
#######################################################################
#
# If this CIF has been generated from an entry in the Cambridge 
# Structural Database, then it will include bibliographic, chemical, 
# crystal, experimental, refinement or atomic coordinate data resulting 
# from the CCDC's data processing and validation procedures.
#
#######################################################################

data_ADITIS
_symmetry_cell_setting           triclinic
_symmetry_space_group_name_H-M   'P -1'
_symmetry_Int_Tables_number      2
_space_group_name_Hall           '-P 1'
loop_
_symmetry_equiv_pos_site_id
_symmetry_equiv_pos_as_xyz
1 x,y,z
2 -x,-y,-z
_cell_length_a                   7.9986(5)
_cell_length_b                   10.1660(7)
_cell_length_c                   11.0073(7)
_cell_angle_alpha                62.877(7)
_cell_angle_beta                 76.974(6)
_cell_angle_gamma                89.553(5)
_cell_volume                     771.451
loop_
_atom_site_label
_atom_site_type_symbol
_atom_site_fract_x
_atom_site_fract_y
_atom_site_fract_z
Pd1 Pd 0.5000 0.0000 0.5000
N1 N 0.3397(4) 0.2190(3) 0.6078(3)
N2 N 0.4114(4) 0.3119(3) 0.3844(3)
N3 N 0.3654(4) 0.1911(3) 0.2522(3)
N4 N 0.2509(4) -0.0305(3) 0.3316(3)
C1 C 0.4138(4) 0.1862(4) 0.5046(3)
C2 C 0.3643(4) 0.0499(4) 0.3523(3)
C3 C 0.4038(6) 0.1635(6) 0.8362(4)
H1 H 0.3817 0.2625 0.8196
H2 H 0.5249 0.1620 0.8020
H3 H 0.3686 0.0969 0.9355
C4 C 0.3035(5) 0.1152(4) 0.7600(4)
H4 H 0.3317 0.0176 0.7726
H5 H 0.1810 0.1069 0.8018
C5 C 0.2914(5) 0.3614(4) 0.5536(4)
H6 H 0.2380 0.4082 0.6052
C6 C 0.3352(5) 0.4191(4) 0.4141(4)
H7 H 0.3178 0.5133 0.3493
C7 C 0.4633(5) 0.3148(4) 0.2467(3)
H8 H 0.4407 0.4081 0.1743
H9 H 0.5859 0.3061 0.2238
C8 C 0.2543(5) 0.1979(5) 0.1705(4)
H10 H 0.2328 0.2826 0.0957
C9 C 0.1840(5) 0.0592(5) 0.2200(4)
H11 H 0.1045 0.0286 0.1855
C10 C 0.1916(5) -0.1890(4) 0.4250(4)
H12 H 0.2904 -0.2425 0.4479
H13 H 0.1379 -0.2285 0.3761
C11 C 0.0646(7) -0.2138(6) 0.5591(5)
H14 H -0.0347 -0.1631 0.5370
H15 H 0.1178 -0.1758 0.6084
H16 H 0.0296 -0.3184 0.6176
N1A N 0.6603(4) -0.2190(3) 0.3922(3)
N2A N 0.5886(4) -0.3119(3) 0.6156(3)
N3A N 0.6346(4) -0.1911(3) 0.7478(3)
N4A N 0.7491(4) 0.0305(3) 0.6684(3)
C1A C 0.5862(4) -0.1862(4) 0.4954(3)
C2A C 0.6357(4) -0.0499(4) 0.6477(3)
C3A C 0.5962(6) -0.1635(6) 0.1638(4)
H1A H 0.6183 -0.2625 0.1804
H2A H 0.4751 -0.1620 0.1980
H3A H 0.6314 -0.0969 0.0645
C4A C 0.6965(5) -0.1152(4) 0.2400(4)
H4A H 0.6683 -0.0176 0.2274
H5A H 0.8190 -0.1069 0.1982
C5A C 0.7086(5) -0.3614(4) 0.4464(4)
H6A H 0.7620 -0.4082 0.3948
C6A C 0.6648(5) -0.4191(4) 0.5859(4)
H7A H 0.6822 -0.5133 0.6507
C7A C 0.5367(5) -0.3148(4) 0.7533(3)
H8A H 0.5593 -0.4081 0.8257
H9A H 0.4141 -0.3061 0.7762
C8A C 0.7457(5) -0.1979(5) 0.8295(4)
H10A H 0.7672 -0.2826 0.9043
C9A C 0.8160(5) -0.0592(5) 0.7800(4)
H11A H 0.8955 -0.0286 0.8145
C10A C 0.8084(5) 0.1890(4) 0.5750(4)
H12A H 0.7096 0.2425 0.5521
H13A H 0.8621 0.2285 0.6239
C11A C 0.9354(7) 0.2138(6) 0.4409(5)
H14A H 1.0347 0.1631 0.4630
H15A H 0.8822 0.1758 0.3916
H16A H 0.9704 0.3184 0.3824
Pd1 Pd 0.5000 1.0000 0.5000
N1 N 0.3397(4) 1.2190(3) 0.6078(3)
N2 N 0.4114(4) 1.3119(3) 0.3844(3)
N3 N 0.3654(4) 1.1911(3) 0.2522(3)
N4 N 0.2509(4) 0.9695(3) 0.3316(3)
C1 C 0.4138(4) 1.1862(4) 0.5046(3)
C2 C 0.3643(4) 1.0499(4) 0.3523(3)
C3 C 0.4038(6) 1.1635(6) 0.8362(4)
H1 H 0.3817 1.2625 0.8196
H2 H 0.5249 1.1620 0.8020
H3 H 0.3686 1.0969 0.9355
C4 C 0.3035(5) 1.1152(4) 0.7600(4)
H4 H 0.3317 1.0176 0.7726
H5 H 0.1810 1.1069 0.8018
C5 C 0.2914(5) 1.3614(4) 0.5536(4)
H6 H 0.2380 1.4082 0.6052
C6 C 0.3352(5) 1.4191(4) 0.4141(4)
H7 H 0.3178 1.5133 0.3493
C7 C 0.4633(5) 1.3148(4) 0.2467(3)
H8 H 0.4407 1.4081 0.1743
H9 H 0.5859 1.3061 0.2238
C8 C 0.2543(5) 1.1979(5) 0.1705(4)
H10 H 0.2328 1.2826 0.0957
C9 C 0.1840(5) 1.0592(5) 0.2200(4)
H11 H 0.1045 1.0286 0.1855
C10 C 0.1916(5) 0.8110(4) 0.4250(4)
H12 H 0.2904 0.7575 0.4479
H13 H 0.1379 0.7715 0.3761
C11 C 0.0646(7) 0.7862(6) 0.5591(5)
H14 H -0.0347 0.8369 0.5370
H15 H 0.1178 0.8242 0.6084
H16 H 0.0296 0.6816 0.6176
N1A N 0.6603(4) 0.7810(3) 0.3922(3)
N2A N 0.5886(4) 0.6881(3) 0.6156(3)
N3A N 0.6346(4) 0.8089(3) 0.7478(3)
N4A N 0.7491(4) 1.0305(3) 0.6684(3)
C1A C 0.5862(4) 0.8138(4) 0.4954(3)
C2A C 0.6357(4) 0.9501(4) 0.6477(3)
C3A C 0.5962(6) 0.8365(6) 0.1638(4)
H1A H 0.6183 0.7375 0.1804
H2A H 0.4751 0.8380 0.1980
H3A H 0.6314 0.9031 0.0645
C4A C 0.6965(5) 0.8848(4) 0.2400(4)
H4A H 0.6683 0.9824 0.2274
H5A H 0.8190 0.8931 0.1982
C5A C 0.7086(5) 0.6386(4) 0.4464(4)
H6A H 0.7620 0.5918 0.3948
C6A C 0.6648(5) 0.5809(4) 0.5859(4)
H7A H 0.6822 0.4867 0.6507
C7A C 0.5367(5) 0.6852(4) 0.7533(3)
H8A H 0.5593 0.5919 0.8257
H9A H 0.4141 0.6939 0.7762
C8A C 0.7457(5) 0.8021(5) 0.8295(4)
H10A H 0.7672 0.7174 0.9043
C9A C 0.8160(5) 0.9408(5) 0.7800(4)
H11A H 0.8955 0.9714 0.8145
C10A C 0.8084(5) 1.1890(4) 0.5750(4)
H12A H 0.7096 1.2425 0.5521
H13A H 0.8621 1.2285 0.6239
C11A C 0.9354(7) 1.2138(6) 0.4409(5)
H14A H 1.0347 1.1631 0.4630
H15A H 0.8822 1.1758 0.3916
H16A H 0.9704 1.3184 0.3824
P1 P 0.12267(14) 0.68667(12) 0.07143(11)
F1 F 0.3162(5) 0.7444(6) 0.0311(5)
F2 F -0.0726(4) 0.6293(5) 0.1109(4)
F3 F 0.1761(6) 0.5294(4) 0.1040(4)
F4 F 0.0661(6) 0.8447(4) 0.0406(4)
F5 F 0.1401(5) 0.7274(5) -0.0865(3)
F6 F 0.1025(5) 0.6491(5) 0.2294(3)
P1 P 0.87733(14) 0.31333(12) 0.92857(11)
F1 F 0.6838(5) 0.2556(6) 0.9689(5)
F2 F 1.0726(4) 0.3707(5) 0.8891(4)
F3 F 0.8239(6) 0.4706(4) 0.8960(4)
F4 F 0.9339(6) 0.1553(4) 0.9594(4)
F5 F 0.8599(5) 0.2726(5) 1.0865(3)
F6 F 0.8975(5) 0.3509(5) 0.7706(3)

#END
