./ADITIS_from_POSCAR.cif_generated_by_CrystalShift
_symmetry_cell_setting triclinic
_symmetry_space_group_name_H-M 'P 1'
loop_
_symmetry_equiv_pos_site_id
_symmetry_equiv_pos_as_xyz
1 x,y,z
_cell_length_a 7.998600
_cell_length_b 10.166000
_cell_length_c 11.007300
_cell_angle_alpha 62.877000
_cell_angle_beta 76.974000
_cell_angle_gamma 89.553000
_cell_volume 771.450701
loop_
_atom_site_label
_atom_site_type_symbol
_atom_site_fract_x
_atom_site_fract_y
_atom_site_fract_z
H1 H 0.970400 1.318400 0.382400
H2 H 0.882200 1.175800 0.391600
H3 H 1.034700 1.163100 0.463000
H4 H 0.668300 0.982400 0.227400
H5 H 0.862100 1.228500 0.623900
H6 H 0.631400 0.903100 0.064500
H7 H 0.475100 0.838000 0.198000
H8 H 0.618300 0.737500 0.180400
H9 H 0.381700 0.262500 0.819600
H10 H 0.524900 0.162000 0.802000
H11 H 0.368600 0.096900 0.935500
H12 H 0.762000 0.591800 0.394800
H13 H 0.331700 0.017600 0.772600
H14 H 0.181000 0.106900 0.801800
H15 H 0.682200 0.486700 0.650700
H16 H 0.238000 0.408200 0.605200
H17 H 0.029600 0.681600 0.617600
H18 H 0.317800 0.513300 0.349300
H19 H 0.117800 0.824200 0.608400
H20 H 0.440700 0.408100 0.174300
H21 H 0.585900 0.306100 0.223800
H22 H -0.034700 0.836900 0.537000
H23 H 0.232800 0.282600 0.095700
H24 H 0.137900 0.771500 0.376100
H25 H 0.104500 0.028600 0.185500
H26 H 0.290400 0.757500 0.447900
H27 H 0.290400 -0.242500 0.447900
H28 H 0.137900 -0.228500 0.376100
H29 H 0.104500 1.028600 0.185500
H30 H -0.034700 -0.163100 0.537000
H31 H 0.117800 -0.175800 0.608400
H32 H 0.029600 -0.318400 0.617600
H33 H 0.709600 1.242500 0.552100
H34 H 0.232800 1.282600 0.095700
H35 H 0.895500 0.971400 0.814500
H36 H 0.585900 1.306100 0.223800
H37 H 0.440700 1.408100 0.174300
H38 H 0.317800 1.513300 0.349300
H39 H 0.238000 1.408200 0.605200
H40 H 0.618300 -0.262500 0.180400
H41 H 0.475100 -0.162000 0.198000
H42 H 0.631400 -0.096900 0.064500
H43 H 0.181000 1.106900 0.801800
H44 H 0.668300 -0.017600 0.227400
H45 H 0.819000 -0.106900 0.198200
H46 H 0.331700 1.017600 0.772600
H47 H 0.762000 -0.408200 0.394800
H48 H 0.368600 1.096900 0.935500
H49 H 0.682200 -0.513300 0.650700
H50 H 0.524900 1.162000 0.802000
H51 H 0.559300 -0.408100 0.825700
H52 H 0.414100 -0.306100 0.776200
H53 H 0.381700 1.262500 0.819600
H54 H 0.767200 -0.282600 0.904300
H55 H 0.819000 0.893100 0.198200
H56 H 0.895500 -0.028600 0.814500
H57 H 0.559300 0.591900 0.825700
H58 H 0.709600 0.242500 0.552100
H59 H 0.862100 0.228500 0.623900
H60 H 0.414100 0.693900 0.776200
H61 H 1.034700 0.163100 0.463000
H62 H 0.882200 0.175800 0.391600
H63 H 0.970400 0.318400 0.382400
H64 H 0.767200 0.717400 0.904300
C65 C 0.403800 1.163500 0.836200
C66 C 0.745700 0.802100 0.829500
C67 C 0.935400 0.213800 0.440900
C68 C 0.808400 0.189000 0.575000
C69 C 0.413800 1.186200 0.504600
C70 C 0.364300 1.049900 0.352300
C71 C 0.536700 0.685200 0.753300
C72 C 0.745700 -0.197900 0.829500
C73 C 0.536700 -0.314800 0.753300
C74 C 0.664800 -0.419100 0.585900
C75 C 0.303500 1.115200 0.760000
C76 C 0.708600 -0.361400 0.446400
C77 C 0.696500 -0.115200 0.240000
C78 C 0.291400 1.361400 0.553600
C79 C 0.596200 -0.163500 0.163800
C80 C 0.335200 1.419100 0.414100
C81 C 0.635700 -0.049900 0.647700
C82 C 0.463300 1.314800 0.246700
C83 C 0.586200 -0.186200 0.495400
C84 C 0.816000 0.940800 0.780000
C85 C 0.254300 1.197900 0.170500
C86 C 0.808400 1.189000 0.575000
C87 C 0.184000 1.059200 0.220000
C88 C 0.064600 -0.213800 0.559100
C89 C 0.191600 0.811000 0.425000
C90 C 0.191600 -0.189000 0.425000
C91 C 0.184000 0.059200 0.220000
C92 C 0.064600 0.786200 0.559100
C93 C 0.254300 0.197900 0.170500
C94 C 0.463300 0.314800 0.246700
C95 C 0.335200 0.419100 0.414100
C96 C 0.291400 0.361400 0.553600
C97 C 0.664800 0.580900 0.585900
C98 C 0.303500 0.115200 0.760000
C99 C 0.708600 0.638600 0.446400
C100 C 0.586200 0.813800 0.495400
C101 C 0.635700 0.950100 0.647700
C102 C 0.596200 0.836500 0.163800
C103 C 0.403800 0.163500 0.836200
C104 C 0.364300 0.049900 0.352300
C105 C 0.413800 0.186200 0.504600
C106 C 0.696500 0.884800 0.240000
C107 C 0.935400 1.213800 0.440900
C108 C 0.816000 -0.059200 0.780000
N109 N 0.749100 1.030500 0.668400
N110 N 0.634600 0.808900 0.747800
N111 N 0.588600 0.688100 0.615600
N112 N 0.660300 0.781000 0.392200
N113 N 0.339700 0.219000 0.607800
N114 N 0.250900 0.969500 0.331600
N115 N 0.365400 1.191100 0.252200
N116 N 0.411400 1.311900 0.384400
N117 N 0.339700 1.219000 0.607800
N118 N 0.749100 0.030500 0.668400
N119 N 0.634600 -0.191100 0.747800
N120 N 0.588600 -0.311900 0.615600
N121 N 0.660300 -0.219000 0.392200
N122 N 0.250900 -0.030500 0.331600
N123 N 0.365400 0.191100 0.252200
N124 N 0.411400 0.311900 0.384400
F125 F 0.859900 0.272600 1.086500
F126 F 0.897500 0.350900 0.770600
F127 F 0.933900 0.155300 0.959400
F128 F 0.316200 0.744400 0.031100
F129 F -0.072600 0.629300 0.110900
F130 F 0.176100 0.529400 0.104000
F131 F 0.066100 0.844700 0.040600
F132 F 0.140100 0.727400 -0.086500
F133 F 0.102500 0.649100 0.229400
F134 F 0.823900 0.470600 0.896000
F135 F 0.683800 0.255600 0.968900
F136 F 1.072600 0.370700 0.889100
P137 P 0.122670 0.686670 0.071430
P138 P 0.877330 0.313330 0.928570
Pd139 Pd 0.500000 0.000000 0.500000
Pd140 Pd 0.500000 1.000000 0.500000

#END
