./ADOCAY_from_POSCAR.cif_generated_by_CrystalShift
_symmetry_cell_setting triclinic
_symmetry_space_group_name_H-M 'P 1'
loop_
_symmetry_equiv_pos_site_id
_symmetry_equiv_pos_as_xyz
1 x,y,z
_cell_length_a 17.061600
_cell_length_b 17.061600
_cell_length_c 14.653300
_cell_angle_alpha 90.000000
_cell_angle_beta 90.000000
_cell_angle_gamma 90.000000
_cell_volume 4265.549174
loop_
_atom_site_label
_atom_site_type_symbol
_atom_site_fract_x
_atom_site_fract_y
_atom_site_fract_z
H1 H -0.330000 1.121700 0.453300
H2 H 0.118000 0.681100 0.447500
H3 H -0.035100 0.734700 0.645400
H4 H 0.068700 0.740500 0.745800
H5 H 0.215400 0.681600 0.555500
H6 H 0.330000 0.878300 0.453300
H7 H 0.319700 0.779200 0.556400
H8 H 0.974000 0.252600 0.355600
H9 H 1.076300 0.249000 0.256500
H10 H 0.681100 -0.118000 0.552500
H11 H 0.734700 0.035100 0.354600
H12 H 0.740500 -0.068700 0.254200
H13 H 0.681600 -0.215400 0.444500
H14 H 1.121700 0.330000 0.546700
H15 H 1.220800 0.319700 0.443600
H16 H 0.249000 0.923700 0.743500
H17 H 0.252600 1.026000 0.644400
H18 H -0.220800 0.680300 0.443600
H19 H 0.180300 0.279200 0.056400
H20 H -0.121700 0.670000 0.546700
H21 H 0.170000 0.378300 -0.046700
H22 H 0.318400 1.215400 0.444500
H23 H 0.747400 -0.026000 0.644400
H24 H 0.284600 0.181600 0.055500
H25 H 0.751000 0.076300 0.743500
H26 H 0.431300 0.240500 0.245800
H27 H 0.882000 0.318900 0.447500
H28 H 0.535100 0.234700 0.145400
H29 H 1.035100 0.265300 0.645400
H30 H 0.931300 0.259500 0.745800
H31 H 0.382000 0.181100 -0.052500
H32 H 0.784600 0.318400 0.555500
H33 H 0.251000 0.423700 0.243500
H34 H 0.670000 0.121700 0.453300
H35 H 0.247400 0.526000 0.144400
H36 H 0.680300 0.220800 0.556400
H37 H 0.259500 1.068700 0.254200
H38 H 0.265300 0.964900 0.354600
H39 H 1.252600 0.026000 0.644400
H40 H 0.252600 0.026000 0.644400
H41 H 1.026000 -0.252600 0.355600
H42 H 0.249000 -0.076300 0.743500
H43 H 0.752600 0.474000 1.144400
H44 H -0.118000 0.318900 0.447500
H45 H 1.249000 -0.076300 0.743500
H46 H 0.923700 -0.249000 0.256500
H47 H 0.035100 0.265300 0.645400
H48 H 0.749000 0.576300 1.243500
H49 H -0.068700 0.259500 0.745800
H50 H 1.118000 -0.318900 0.447500
H51 H -0.215400 0.318400 0.555500
H52 H 1.318900 0.118000 0.552500
H53 H 0.382000 0.181100 0.947500
H54 H 0.330000 -0.121700 0.453300
H55 H 0.964900 -0.265300 0.645400
H56 H 1.265300 -0.035100 0.354600
H57 H 0.535100 0.234700 1.145400
H58 H 1.068700 -0.259500 0.745800
H59 H 1.259500 0.068700 0.254200
H60 H 0.431300 0.240500 1.245800
H61 H 1.215400 -0.318400 0.555500
H62 H 1.318400 0.215400 0.444500
H63 H 0.284600 0.181600 1.055500
H64 H 1.330000 -0.121700 0.453300
H65 H 0.878300 -0.330000 0.546700
H66 H 0.830000 0.621700 0.953300
H67 H 1.319700 -0.220800 0.556400
H68 H 0.779200 -0.319700 0.443600
H69 H 0.819700 0.720800 1.056400
H70 H 0.318900 1.118000 0.552500
H71 H -0.076300 0.751000 0.256500
H72 H 0.026000 0.747400 0.355600
H73 H 0.779200 0.680300 0.443600
H74 H 0.878300 0.670000 0.546700
H75 H 0.681600 0.784600 0.444500
H76 H 0.740500 0.931300 0.254200
H77 H 0.474000 0.247400 0.855600
H78 H 0.576300 0.251000 0.756500
H79 H 0.818900 0.382000 1.052500
H80 H 0.765300 0.535100 0.854600
H81 H 0.759500 0.431300 0.754200
H82 H 0.818400 0.284600 0.944500
H83 H 0.621700 0.170000 1.046700
H84 H 0.720800 0.180300 0.943600
H85 H 0.734700 1.035100 0.354600
H86 H 0.681100 0.882000 0.552500
H87 H -0.252600 0.974000 0.644400
H88 H -0.026000 1.252600 0.355600
H89 H 0.247400 0.526000 1.144400
H90 H -0.249000 1.076300 0.743500
H91 H 0.076300 1.249000 0.256500
H92 H 0.251000 0.423700 1.243500
H93 H -0.118000 1.318900 0.447500
H94 H -0.318900 0.882000 0.552500
H95 H 0.618000 0.818900 0.947500
H96 H 0.035100 1.265300 0.645400
H97 H -0.265300 1.035100 0.354600
H98 H 0.720800 0.180300 -0.056400
H99 H -0.319700 0.220800 0.556400
H100 H -0.220800 -0.319700 0.443600
H101 H 0.464900 0.765300 1.145400
H102 H -0.068700 1.259500 0.745800
H103 H -0.259500 0.931300 0.254200
H104 H 0.621700 0.170000 0.046700
H105 H -0.330000 0.121700 0.453300
H106 H -0.121700 -0.330000 0.546700
H107 H 0.568700 0.759500 1.245800
H108 H -0.215400 1.318400 0.555500
H109 H -0.318400 0.784600 0.444500
H110 H 0.715400 0.818400 1.055500
H111 H 0.121700 1.330000 0.546700
H112 H 0.170000 0.378300 0.953300
H113 H 0.181600 0.715400 -0.055500
H114 H 0.215400 -0.318400 0.555500
H115 H -0.318400 -0.215400 0.444500
H116 H -0.319700 1.220800 0.556400
H117 H 0.220800 1.319700 0.443600
H118 H 0.180300 0.279200 1.056400
H119 H 0.240500 0.568700 -0.245800
H120 H 0.068700 -0.259500 0.745800
H121 H -0.259500 -0.068700 0.254200
H122 H 0.923700 0.751000 0.256500
H123 H 1.026000 0.747400 0.355600
H124 H 0.680300 1.220800 0.556400
H125 H 0.234700 0.464900 -0.145400
H126 H -0.035100 -0.265300 0.645400
H127 H -0.265300 0.035100 0.354600
H128 H 0.670000 1.121700 0.453300
H129 H 1.215400 0.681600 0.555500
H130 H 1.068700 0.740500 0.745800
H131 H 0.964900 0.734700 0.645400
H132 H 1.118000 0.681100 0.447500
H133 H 0.526000 0.752600 0.855600
H134 H 0.181100 0.618000 0.052500
H135 H 0.118000 -0.318900 0.447500
H136 H -0.318900 -0.118000 0.552500
H137 H 0.423700 0.749000 0.756500
H138 H 0.181100 0.618000 1.052500
H139 H 0.234700 0.464900 0.854600
H140 H 0.576300 0.251000 -0.243500
H141 H -0.249000 0.076300 0.743500
H142 H -0.076300 -0.249000 0.256500
H143 H 0.240500 0.568700 0.754200
H144 H 0.181600 0.715400 0.944500
H145 H 0.378300 0.830000 1.046700
H146 H 0.474000 0.247400 -0.144400
H147 H -0.252600 -0.026000 0.644400
H148 H 0.026000 -0.252600 0.355600
H149 H 0.279200 0.819700 0.943600
H150 H 0.319700 -0.220800 0.556400
H151 H 0.751000 1.076300 0.743500
H152 H 0.747400 0.974000 0.644400
H153 H 0.974000 1.252600 0.355600
H154 H 1.252600 1.026000 0.644400
H155 H 0.526000 0.752600 -0.144400
H156 H 1.076300 1.249000 0.256500
H157 H 1.249000 0.923700 0.743500
H158 H 0.423700 0.749000 -0.243500
H159 H 1.318900 1.118000 0.552500
H160 H 0.882000 1.318900 0.447500
H161 H 0.818900 0.382000 0.052500
H162 H 1.265300 0.964900 0.354600
H163 H 1.035100 1.265300 0.645400
H164 H 0.765300 0.535100 -0.145400
H165 H 1.259500 1.068700 0.254200
H166 H 0.931300 1.259500 0.745800
H167 H 0.819700 0.720800 0.056400
H168 H 0.759500 0.431300 -0.245800
H169 H 0.830000 0.621700 -0.046700
H170 H 1.318400 1.215400 0.444500
H171 H 0.784600 1.318400 0.555500
H172 H 0.715400 0.818400 0.055500
H173 H 0.818400 0.284600 -0.055500
H174 H 0.568700 0.759500 0.245800
H175 H 1.121700 1.330000 0.546700
H176 H 0.464900 0.765300 0.145400
H177 H 1.330000 0.878300 0.453300
H178 H 0.378300 0.830000 0.046700
H179 H 0.618000 0.818900 -0.052500
H180 H 1.220800 1.319700 0.443600
H181 H 0.749000 0.576300 0.243500
H182 H 1.319700 0.779200 0.556400
H183 H 0.752600 0.474000 0.144400
H184 H -0.026000 0.252600 0.355600
H185 H 0.279200 0.819700 -0.056400
H186 H 0.076300 0.249000 0.256500
H187 H 0.220800 0.319700 0.443600
H188 H 0.318900 0.118000 0.552500
H189 H 0.121700 0.330000 0.546700
H190 H 0.318400 0.215400 0.444500
H191 H 0.265300 -0.035100 0.354600
H192 H 0.259500 0.068700 0.254200
C193 C 0.274300 0.015700 0.375300
C194 C 0.271100 0.078600 0.315100
C195 C -0.029600 0.291100 0.532100
C196 C 0.304700 0.164900 0.426900
C197 C 0.035500 0.290100 0.463900
C198 C 0.306800 0.105900 0.492200
C199 C 0.111300 0.311500 0.488300
C200 C 0.086300 0.263200 0.316700
C201 C 0.105900 0.693200 0.507800
C202 C 0.291100 1.029600 0.467900
C203 C 0.015700 0.725700 0.624700
C204 C 0.078600 0.728900 0.684900
C205 C 0.164900 0.695300 0.573100
C206 C 0.290100 0.964500 0.536100
C207 C 0.311500 0.888700 0.511700
C208 C 0.305100 0.829500 0.574200
C209 C 1.023900 0.266400 0.375500
C210 C 1.086300 0.263200 0.316700
C211 C 0.693200 -0.105900 0.492200
C212 C 0.970400 0.291100 0.532100
C213 C 0.725700 -0.015700 0.375300
C214 C 0.728900 -0.078600 0.315100
C215 C 0.695300 -0.164900 0.426900
C216 C 1.035500 0.290100 0.463900
C217 C 1.111300 0.311500 0.488300
C218 C 1.170500 0.305100 0.425800
C219 C 0.266400 0.976100 0.624500
C220 C -0.170500 0.694900 0.425800
C221 C 0.194900 0.329500 0.074200
C222 C -0.111300 0.688500 0.488300
C223 C 0.188500 0.388700 0.011700
C224 C -0.035500 0.709900 0.463900
C225 C 0.304700 1.164900 0.426900
C226 C 0.209900 0.464500 0.036100
C227 C 0.335100 0.195300 0.073100
C228 C 0.733600 0.023900 0.624500
C229 C 0.421400 0.228900 0.184900
C230 C 0.736800 0.086300 0.683300
C231 C 0.484300 0.225700 0.124700
C232 C 0.894100 0.306800 0.507800
C233 C 0.708900 -0.029600 0.467900
C234 C 0.208900 0.529600 -0.032100
C235 C 0.984300 0.274300 0.624700
C236 C 0.394100 0.193200 0.007800
C237 C 0.921400 0.271100 0.684900
C238 C 0.236800 0.413700 0.183300
C239 C 0.835100 0.304700 0.573100
C240 C 0.709900 0.035500 0.536100
C241 C 0.329500 0.805100 -0.074200
C242 C 1.305100 0.829500 0.574200
C243 C 1.170500 1.305100 0.425800
C244 C 0.023900 0.266400 0.375500
C245 C 0.766400 0.523900 0.124500
C246 C 0.763200 0.586300 0.183300
C247 C 0.388700 0.811500 -0.011700
C248 C 1.311500 0.888700 0.511700
C249 C 1.111300 1.311500 0.488300
C250 C 0.605900 0.806800 0.007800
C251 C 0.791100 0.470400 -0.032100
C252 C 0.515700 0.774300 0.124700
C253 C 0.464500 0.790100 -0.036100
C254 C 1.290100 0.964500 0.536100
C255 C 1.035500 1.290100 0.463900
C256 C 0.804700 0.335100 -0.073100
C257 C 0.835100 1.304700 0.573100
C258 C 1.304700 1.164900 0.426900
C259 C 0.578600 0.771100 0.184900
C260 C 0.664900 0.804700 0.073100
C261 C 0.790100 0.535500 0.036100
C262 C 0.771100 0.421400 -0.184900
C263 C 0.921400 1.271100 0.684900
C264 C 1.271100 1.078600 0.315100
C265 C 0.811500 0.611300 0.011700
C266 C 0.805100 0.670500 0.074200
C267 C 0.233600 0.476100 0.124500
C268 C 0.774300 0.484300 -0.124700
C269 C 0.984300 1.274300 0.624700
C270 C 1.274300 1.015700 0.375300
C271 C 0.688500 0.111300 0.511700
C272 C 0.694900 0.170500 0.574200
C273 C 0.271100 1.078600 0.315100
C274 C 0.529600 0.791100 0.032100
C275 C 0.970400 1.291100 0.532100
C276 C 1.291100 1.029600 0.467900
C277 C 0.806800 0.394100 -0.007800
C278 C 0.894100 1.306800 0.507800
C279 C 1.306800 1.105900 0.492200
C280 C 0.274300 1.015700 0.375300
C281 C 0.266400 -0.023900 0.624500
C282 C 0.263200 -0.086300 0.683300
C283 C 0.413700 0.763200 -0.183300
C284 C 1.263200 0.913700 0.683300
C285 C 1.086300 1.263200 0.316700
C286 C 1.266400 -0.023900 0.624500
C287 C 0.976100 -0.266400 0.375500
C288 C 0.766400 0.523900 1.124500
C289 C 0.476100 0.766400 -0.124500
C290 C 1.266400 0.976100 0.624500
C291 C 1.023900 1.266400 0.375500
C292 C -0.105900 0.306800 0.507800
C293 C 0.291100 0.029600 0.467900
C294 C -0.015700 0.274300 0.624700
C295 C 0.170500 0.305100 0.425800
C296 C 1.263200 -0.086300 0.683300
C297 C 0.733600 1.023900 0.624500
C298 C 0.305100 -0.170500 0.574200
C299 C 0.736800 1.086300 0.683300
C300 C 0.913700 -0.263200 0.316700
C301 C 0.763200 0.586300 1.183300
C302 C -0.078600 0.271100 0.684900
C303 C -0.164900 0.304700 0.573100
C304 C 0.290100 -0.035500 0.536100
C305 C 1.105900 -0.306800 0.507800
C306 C 1.306800 0.105900 0.492200
C307 C 0.394100 0.193200 1.007800
C308 C 1.029600 -0.291100 0.532100
C309 C 1.291100 0.029600 0.467900
C310 C 0.791100 0.470400 0.967900
C311 C 1.015700 -0.274300 0.624700
C312 C 0.329500 0.805100 0.925800
C313 C 0.311500 -0.111300 0.511700
C314 C 0.388700 0.811500 0.988300
C315 C -0.023900 -0.266400 0.375500
C316 C 0.464500 0.790100 0.963900
C317 C 0.195300 0.664900 0.926900
C318 C -0.266400 0.023900 0.624500
C319 C 0.228900 0.578600 0.815100
C320 C 0.523900 0.233600 -0.124500
C321 C 0.225700 0.515700 0.875300
C322 C -0.086300 -0.263200 0.316700
C323 C 0.529600 0.791100 1.032100
C324 C 0.193200 0.605900 0.992200
C325 C -0.263200 0.086300 0.683300
C326 C 0.413700 0.763200 0.816700
C327 C 0.586300 0.236800 -0.183300
C328 C 0.476100 0.766400 0.875500
C329 C -0.306800 -0.105900 0.492200
C330 C 0.105900 -0.306800 0.507800
C331 C 1.105900 0.693200 0.507800
C332 C 0.708900 0.970400 0.467900
C333 C 0.193200 0.605900 -0.007800
C334 C 1.015700 0.725700 0.624700
C335 C -0.291100 -0.029600 0.467900
C336 C 1.078600 0.728900 0.684900
C337 C 0.029600 -0.291100 0.532100
C338 C 1.164900 0.695300 0.573100
C339 C 0.709900 1.035500 0.536100
C340 C 0.470400 0.208900 0.032100
C341 C 0.688500 1.111300 0.511700
C342 C -0.274300 -0.015700 0.375300
C343 C 0.694900 1.170500 0.574200
C344 C 1.274300 0.015700 0.375300
C345 C 0.484300 0.225700 1.124700
C346 C 0.015700 -0.274300 0.624700
C347 C 0.976100 0.733600 0.375500
C348 C 0.225700 0.515700 -0.124700
C349 C 1.078600 -0.271100 0.684900
C350 C 1.271100 0.078600 0.315100
C351 C 0.421400 0.228900 1.184900
C352 C 1.164900 -0.304700 0.573100
C353 C 1.304700 0.164900 0.426900
C354 C 0.335100 0.195300 1.073100
C355 C 1.290100 -0.035500 0.536100
C356 C 0.964500 -0.290100 0.463900
C357 C 0.790100 0.535500 1.036100
C358 C 1.311500 -0.111300 0.511700
C359 C 0.888700 -0.311500 0.488300
C360 C 0.811500 0.611300 1.011700
C361 C 1.305100 -0.170500 0.574200
C362 C 0.829500 -0.305100 0.425800
C363 C 0.805100 0.670500 1.074200
C364 C 0.029600 0.708900 0.532100
C365 C 0.306800 1.105900 0.492200
C366 C -0.086300 0.736800 0.316700
C367 C -0.023900 0.733600 0.375500
C368 C 0.829500 0.694900 0.425800
C369 C 0.888700 0.688500 0.488300
C370 C 0.964500 0.709900 0.463900
C371 C 0.695300 0.835100 0.426900
C372 C 0.728900 0.921400 0.315100
C373 C 0.725700 0.984300 0.375300
C374 C 0.523900 0.233600 0.875500
C375 C 0.586300 0.236800 0.816700
C376 C 0.806800 0.394100 0.992200
C377 C 0.470400 0.208900 1.032100
C378 C 0.774300 0.484300 0.875300
C379 C 0.771100 0.421400 0.815100
C380 C 0.804700 0.335100 0.926900
C381 C 0.535500 0.209900 0.963900
C382 C 0.611300 0.188500 0.988300
C383 C 0.670500 0.194900 0.925800
C384 C 1.029600 0.708900 0.532100
C385 C 0.693200 0.894100 0.492200
C386 C 0.913700 0.736800 0.316700
C387 C 0.263200 0.913700 0.683300
C388 C -0.266400 1.023900 0.624500
C389 C 0.194900 0.329500 1.074200
C390 C 0.170500 1.305100 0.425800
C391 C -0.305100 1.170500 0.574200
C392 C -0.271100 -0.078600 0.315100
C393 C 0.078600 -0.271100 0.684900
C394 C 0.228900 0.578600 -0.184900
C395 C 0.188500 0.388700 1.011700
C396 C 0.111300 1.311500 0.488300
C397 C -0.311500 1.111300 0.511700
C398 C -0.304700 -0.164900 0.426900
C399 C 0.164900 -0.304700 0.573100
C400 C 0.023900 1.266400 0.375500
C401 C 0.209900 0.464500 1.036100
C402 C 0.035500 1.290100 0.463900
C403 C -0.290100 1.035500 0.536100
C404 C 0.664900 0.804700 1.073100
C405 C -0.304700 0.835100 0.426900
C406 C -0.164900 1.304700 0.573100
C407 C 0.195300 0.664900 -0.073100
C408 C -0.035500 -0.290100 0.463900
C409 C -0.290100 0.035500 0.536100
C410 C 0.578600 0.771100 1.184900
C411 C -0.271100 0.921400 0.315100
C412 C -0.078600 1.271100 0.684900
C413 C 0.535500 0.209900 -0.036100
C414 C -0.111300 -0.311500 0.488300
C415 C -0.311500 0.111300 0.511700
C416 C 0.515700 0.774300 1.124700
C417 C -0.274300 0.984300 0.375300
C418 C -0.015700 1.274300 0.624700
C419 C 0.611300 0.188500 -0.011700
C420 C -0.170500 -0.305100 0.425800
C421 C -0.305100 0.170500 0.574200
C422 C 0.208900 0.529600 0.967900
C423 C -0.291100 0.970400 0.467900
C424 C -0.029600 1.291100 0.532100
C425 C 0.605900 0.806800 1.007800
C426 C -0.306800 0.894100 0.492200
C427 C -0.105900 1.306800 0.507800
C428 C 0.670500 0.194900 -0.074200
C429 C 0.233600 0.476100 1.124500
C430 C -0.263200 1.086300 0.683300
C431 C 0.236800 0.413700 1.183300
C432 C 0.086300 1.263200 0.316700
N433 N -0.221200 -0.339800 0.160500
N434 N -0.278800 0.160200 0.660500
N435 N 0.660200 0.221200 -0.160500
N436 N 0.160200 0.278800 0.339500
N437 N -0.160200 -0.278800 0.339500
N438 N 1.160200 0.278800 0.339500
N439 N -0.278800 1.160200 0.660500
N440 N -0.284200 -0.152700 0.340700
N441 N -0.347300 -0.215800 0.159300
N442 N -0.339800 1.221200 0.839500
N443 N 0.160200 1.278800 0.339500
N444 N 0.215800 0.652700 -0.159300
N445 N 0.221200 0.339800 1.160500
N446 N 0.278800 0.839800 0.660500
N447 N 0.284200 0.152700 0.340700
N448 N 0.715800 -0.152700 0.340700
N449 N 0.347300 0.215800 0.159300
N450 N 0.221200 0.339800 0.160500
N451 N 0.284200 1.152700 0.340700
N452 N -0.160200 0.721200 0.339500
N453 N 0.715800 0.847300 0.340700
N454 N 0.784200 0.347300 -0.159300
N455 N 0.847300 1.284200 0.659300
N456 N 1.347300 1.215800 0.159300
N457 N 1.284200 1.152700 0.340700
N458 N 0.784200 0.347300 0.840700
N459 N 0.660200 0.221200 0.839500
N460 N -0.152700 1.284200 0.659300
N461 N 0.839800 0.721200 0.339500
N462 N -0.215800 1.347300 0.840700
N463 N 0.339800 0.778800 -0.160500
N464 N -0.284200 0.847300 0.340700
N465 N 0.652700 0.784200 1.159300
N466 N 1.278800 0.839800 0.660500
N467 N 0.152700 0.715800 0.659300
N468 N 1.221200 1.339800 0.160500
N469 N 1.160200 1.278800 0.339500
N470 N 0.778800 0.660200 0.160500
N471 N 0.652700 0.784200 0.159300
N472 N -0.152700 0.284200 0.659300
N473 N 0.278800 -0.160200 0.660500
N474 N 0.215800 0.652700 0.840700
N475 N 0.339800 0.778800 0.839500
N476 N 0.721200 1.160200 0.660500
N477 N 1.152700 0.715800 0.659300
N478 N 1.278800 -0.160200 0.660500
N479 N 1.339800 -0.221200 0.839500
N480 N 0.839800 -0.278800 0.339500
N481 N 0.778800 0.660200 1.160500
N482 N 0.721200 0.160200 0.660500
N483 N 1.152700 -0.284200 0.659300
N484 N 1.215800 -0.347300 0.840700
N485 N 1.284200 0.152700 0.340700
N486 N 0.347300 0.215800 1.159300
N487 N 0.847300 0.284200 0.659300
N488 N 0.152700 -0.284200 0.659300
O489 O -0.177920 1.071440 0.962800
O490 O -0.131660 -0.121770 -0.122830
O491 O -0.071440 0.822080 1.037200
O492 O -0.121770 0.131660 0.122830
O493 O -0.121770 1.131660 1.122830
O494 O 0.131660 1.121770 0.877170
O495 O 0.681840 0.329100 0.681790
O496 O 1.181840 0.170900 1.181790
O497 O 1.170900 -0.181840 0.818210
O498 O 0.818160 -0.170900 1.181790
O499 O 1.318160 -0.329100 0.681790
O500 O 1.185000 0.058860 1.038300
O501 O 0.815000 -0.058860 1.038300
O502 O 1.058860 -0.185000 0.961700
O503 O 0.869990 -0.009320 1.182800
O504 O 1.009320 -0.130010 0.817200
O505 O 1.130010 0.009320 1.182800
O506 O 0.728100 0.067400 1.123600
O507 O 1.271900 -0.067400 1.123600
O508 O 0.932600 -0.271900 0.876400
O509 O 0.878230 0.131660 1.122830
O510 O 0.868340 -0.121770 0.877170
O511 O 1.121770 -0.131660 1.122830
O512 O 1.071440 0.177920 1.037200
O513 O 1.177920 -0.071440 0.962800
O514 O 0.928560 -0.177920 1.037200
O515 O 1.276600 0.044000 0.878000
O516 O 0.723400 -0.044000 0.878000
O517 O 1.044000 -0.276600 1.122000
O518 O 1.018600 0.130000 1.181700
O519 O 1.130000 -0.018600 0.818300
O520 O 0.981400 -0.130000 1.181700
O521 O 1.000000 0.000000 1.284300
O522 O 0.886500 -0.105500 0.683320
O523 O 0.894500 0.113500 1.316680
O524 O 1.105500 -0.113500 1.316680
O525 O 0.071440 1.177920 1.037200
O526 O -0.071440 -0.177920 0.037200
O527 O -0.276600 0.956000 0.878000
O528 O -0.177920 0.071440 -0.037200
O529 O 0.276600 1.044000 0.878000
O530 O -0.044000 1.276600 1.122000
O531 O 0.044000 -0.276600 0.122000
O532 O -0.018600 0.870000 1.181700
O533 O -0.044000 0.276600 0.122000
O534 O -0.130000 1.018600 0.818300
O535 O 0.121770 0.868340 1.122830
O536 O 0.067400 1.271900 0.876400
O537 O -0.271900 1.067400 1.123600
O538 O 0.131660 0.121770 -0.122830
O539 O -0.271900 0.067400 0.123600
O540 O -0.067400 -0.271900 -0.123600
O541 O 0.271900 0.932600 1.123600
O542 O -0.130010 0.990680 1.182800
O543 O -0.009320 1.130010 0.817200
O544 O 0.067400 0.271900 -0.123600
O545 O 0.009320 -0.130010 -0.182800
O546 O -0.130010 -0.009320 0.182800
O547 O 0.130010 1.009320 1.182800
O548 O -0.058860 1.185000 0.961700
O549 O 0.185000 1.058860 1.038300
O550 O -0.185000 0.941140 1.038300
O551 O -0.318160 1.329100 0.681790
O552 O 0.181840 1.170900 1.181790
O553 O -0.009320 0.130010 -0.182800
O554 O -0.185000 -0.058860 0.038300
O555 O -0.058860 0.185000 -0.038300
O556 O -0.170900 1.181840 0.818210
O557 O -0.181840 0.829100 1.181790
O558 O 0.318160 0.670900 0.681790
O559 O 0.058860 -0.185000 -0.038300
O560 O -0.329100 -0.318160 0.318210
O561 O -0.170900 0.181840 -0.181790
O562 O -0.276600 -0.044000 -0.122000
O563 O 0.018600 1.130000 1.181700
O564 O 0.130000 -0.018600 -0.181700
O565 O -0.181840 -0.170900 0.181790
O566 O 0.170900 -0.181840 -0.181790
O567 O 0.329100 0.318160 0.318210
O568 O 0.000000 1.000000 1.284300
O569 O -0.113500 0.894500 0.683320
O570 O 0.000000 1.000000 0.715700
O571 O 0.130000 0.981400 0.818300
O572 O 0.044000 0.723400 1.122000
O573 O 0.177920 0.928560 0.962800
O574 O -0.131660 0.878230 0.877170
O575 O -0.067400 0.728100 0.876400
O576 O 0.009320 0.869990 0.817200
O577 O 0.058860 0.815000 0.961700
O578 O 0.170900 0.818160 0.818210
O579 O -0.018600 -0.130000 0.181700
O580 O 0.113500 1.105500 0.683320
O581 O 0.818160 0.829100 0.181790
O582 O 0.815000 0.941140 0.038300
O583 O 0.869990 0.990680 0.182800
O584 O 0.728100 1.067400 0.123600
O585 O 0.878230 1.131660 0.122830
O586 O 0.928560 0.822080 0.037200
O587 O 0.723400 0.956000 -0.122000
O588 O 0.670900 0.681840 0.318210
O589 O 0.829100 1.181840 -0.181790
O590 O 0.981400 0.870000 0.181700
O591 O 1.181840 1.170900 0.181790
O592 O 1.000000 1.000000 0.284300
O593 O 0.685000 0.441140 0.538300
O594 O 0.630010 0.490680 0.682800
O595 O 0.771900 0.567400 0.623600
O596 O 0.621770 0.631660 0.622830
O597 O 0.571440 0.322080 0.537200
O598 O 0.776600 0.456000 0.378000
O599 O 0.518600 0.370000 0.681700
O600 O 0.500000 0.500000 0.784300
O601 O 0.605500 0.613500 0.816680
O602 O 0.894500 1.113500 0.316680
O603 O 1.170900 0.818160 -0.181790
O604 O 0.105500 0.886500 1.316680
O605 O -0.130000 0.018600 -0.181700
O606 O -0.105500 1.113500 1.316680
O607 O 0.000000 0.000000 -0.284300
O608 O -0.105500 0.113500 0.316680
O609 O 0.113500 0.105500 -0.316680
O610 O -0.113500 -0.105500 -0.316680
O611 O 1.113500 0.105500 0.683320
O612 O 1.000000 0.000000 0.715700
O613 O 0.870000 0.018600 0.818300
O614 O 0.956000 0.276600 1.122000
O615 O 0.822080 0.071440 0.962800
O616 O 1.113500 1.105500 -0.316680
O617 O 0.886500 0.894500 -0.316680
O618 O 1.105500 0.886500 0.316680
O619 O 1.000000 1.000000 -0.284300
O620 O 1.130000 0.981400 -0.181700
O621 O 1.018600 1.130000 0.181700
O622 O 0.870000 1.018600 -0.181700
O623 O 1.276600 1.044000 -0.122000
O624 O 1.044000 0.723400 0.122000
O625 O 0.956000 1.276600 0.122000
O626 O 1.177920 0.928560 -0.037200
O627 O 1.131660 0.121770 0.877170
O628 O 1.067400 0.271900 0.876400
O629 O 0.990680 0.130010 0.817200
O630 O 1.071440 1.177920 0.037200
O631 O 0.941140 0.185000 0.961700
O632 O 0.558860 0.685000 0.461700
O633 O 0.441140 0.315000 0.461700
O634 O 0.315000 0.558860 0.538300
O635 O 0.490680 0.369990 0.317200
O636 O 0.369990 0.509320 0.682800
O637 O 0.509320 0.630010 0.317200
O638 O 0.567400 0.228100 0.376400
O639 O 0.432600 0.771900 0.376400
O640 O 0.228100 0.432600 0.623600
O641 O 0.631660 0.378230 0.377170
O642 O 0.378230 0.368340 0.622830
O643 O 0.368340 0.621770 0.377170
O644 O 0.677920 0.571440 0.462800
O645 O 0.428560 0.677920 0.537200
O646 O 0.322080 0.428560 0.462800
O647 O 0.544000 0.776600 0.622000
O648 O 0.456000 0.223400 0.622000
O649 O 0.223400 0.544000 0.378000
O650 O 0.630000 0.518600 0.318300
O651 O 0.481400 0.630000 0.681700
O652 O 0.370000 0.481400 0.318300
O653 O 0.500000 0.500000 0.215700
O654 O 0.394500 0.386500 0.816680
O655 O 0.613500 0.394500 0.183320
O656 O 0.386500 0.605500 0.183320
O657 O 0.829100 0.181840 0.818210
O658 O 1.329100 1.318160 0.318210
O659 O 0.822080 1.071440 -0.037200
O660 O 0.105500 -0.113500 0.316680
O661 O 1.131660 1.121770 -0.122830
O662 O 0.000000 0.000000 0.284300
O663 O 1.121770 0.868340 0.122830
O664 O 0.868340 0.878230 -0.122830
O665 O 0.018600 0.130000 0.181700
O666 O 1.271900 0.932600 0.123600
O667 O 0.276600 0.044000 -0.122000
O668 O 1.067400 1.271900 -0.123600
O669 O 0.071440 0.177920 0.037200
O670 O 0.932600 0.728100 -0.123600
O671 O 0.990680 1.130010 -0.182800
O672 O 0.121770 -0.131660 0.122830
O673 O 1.130010 1.009320 0.182800
O674 O 0.271900 -0.067400 0.123600
O675 O 1.009320 0.869990 -0.182800
O676 O 0.130010 0.009320 0.182800
O677 O 1.185000 1.058860 0.038300
O678 O 0.185000 0.058860 0.038300
O679 O 1.058860 0.815000 -0.038300
O680 O 0.181840 0.170900 0.181790
O681 O 0.941140 1.185000 -0.038300
O682 O 0.177920 -0.071440 -0.037200
F683 F 1.000000 0.000000 0.000000
F684 F 0.000000 1.000000 1.000000
F685 F 1.000000 0.000000 1.000000
F686 F 0.000000 1.000000 0.000000
F687 F 1.000000 1.000000 0.000000
F688 F 0.000000 0.000000 1.000000
F689 F 0.000000 0.000000 0.000000
F690 F 1.000000 1.000000 1.000000
F691 F 0.500000 0.500000 0.500000
V692 V 0.429140 0.566380 0.269720
V693 V 0.570860 0.433620 0.269720
V694 V 0.433620 0.429140 0.730280
V695 V 0.311460 0.533740 0.412710
V696 V 0.466260 0.311460 0.587290
V697 V 0.533740 0.688540 0.587290
V698 V 0.314490 0.452500 0.588780
V699 V 0.452500 0.685510 0.411220
V700 V 0.547500 0.314490 0.411220
V701 V 0.387050 0.378770 0.371710
V702 V 0.378770 0.612950 0.628290
V703 V 0.612950 0.621230 0.371710
V704 V 0.566380 0.570860 0.730280
V705 V 0.688540 0.466260 0.412710
V706 V 0.685510 0.547500 0.588780
V707 V 0.621230 0.387050 0.628290
V708 V 0.185510 -0.047500 0.088780
V709 V 0.188540 0.033740 -0.087290
V710 V 0.066380 -0.070860 0.230280
V711 V 0.112950 -0.121230 -0.128290
V712 V -0.121230 -0.112950 0.128290
V713 V 1.066380 -0.070860 1.230280
V714 V 0.933620 0.070860 1.230280
V715 V 0.929140 -0.066380 0.769720
V716 V 1.033740 -0.188540 1.087290
V717 V 0.811460 -0.033740 0.912710
V718 V 1.188540 0.033740 0.912710
V719 V 0.952500 -0.185510 0.911220
V720 V 1.185510 -0.047500 1.088780
V721 V 0.814490 0.047500 1.088780
V722 V 0.878770 -0.112950 1.128290
V723 V 1.112950 -0.121230 0.871710
V724 V 1.121230 0.112950 1.128290
V725 V -0.112950 0.121230 -0.128290
V726 V 1.070860 0.066380 0.769720
V727 V 0.966260 0.188540 1.087290
V728 V 1.047500 0.185510 0.911220
V729 V 0.887050 0.121230 0.871710
V730 V 0.047500 0.185510 -0.088780
V731 V -0.047500 -0.185510 -0.088780
V732 V -0.185510 0.047500 0.088780
V733 V 0.033740 -0.188540 0.087290
V734 V -0.033740 0.188540 0.087290
V735 V -0.188540 -0.033740 -0.087290
V736 V -0.066380 0.070860 0.230280
V737 V -0.066380 1.070860 1.230280
V738 V 0.066380 0.929140 1.230280
V739 V 0.070860 1.066380 0.769720
V740 V -0.033740 1.188540 1.087290
V741 V 0.188540 1.033740 0.912710
V742 V -0.188540 0.966260 0.912710
V743 V 0.047500 1.185510 0.911220
V744 V -0.185510 1.047500 1.088780
V745 V 0.185510 0.952500 1.088780
V746 V 0.121230 1.112950 1.128290
V747 V -0.112950 1.121230 0.871710
V748 V -0.121230 0.887050 1.128290
V749 V 0.070860 0.066380 -0.230280
V750 V -0.070860 0.933620 0.769720
V751 V 0.033740 0.811460 1.087290
V752 V -0.047500 0.814490 0.911220
V753 V 0.112950 0.878770 0.871710
V754 V -0.070860 -0.066380 -0.230280
V755 V 0.878770 0.887050 0.128290
V756 V 0.814490 1.047500 0.088780
V757 V 0.811460 0.966260 -0.087290
V758 V 0.933620 1.070860 0.230280
V759 V 1.070860 1.066380 -0.230280
V760 V 0.929140 0.933620 -0.230280
V761 V 1.066380 0.929140 0.230280
V762 V 1.188540 1.033740 -0.087290
V763 V 1.033740 0.811460 0.087290
V764 V 0.966260 1.188540 0.087290
V765 V 1.185510 0.952500 0.088780
V766 V 1.047500 1.185510 -0.088780
V767 V 0.952500 0.814490 -0.088780
V768 V 1.112950 0.878770 -0.128290
V769 V 1.121230 1.112950 0.128290
V770 V 0.887050 1.121230 -0.128290
V771 V 0.121230 0.112950 0.128290
Ni772 Ni 0.753610 1.253610 0.750000
Ni773 Ni 1.246390 0.746390 0.750000
Ni774 Ni 0.753610 1.253610 -0.250000
Ni775 Ni 1.253610 1.246390 0.250000
Ni776 Ni -0.246390 0.253610 -0.250000
Ni777 Ni -0.253610 -0.246390 0.250000
Ni778 Ni 0.246390 -0.253610 -0.250000
Ni779 Ni -0.246390 0.253610 0.750000
Ni780 Ni 0.246390 -0.253610 0.750000
Ni781 Ni 0.753610 0.253610 -0.250000
Ni782 Ni 0.246390 0.746390 -0.250000
Ni783 Ni 1.246390 0.746390 -0.250000
Ni784 Ni 0.246390 0.746390 0.750000
Ni785 Ni 0.746390 0.753610 1.250000
Ni786 Ni 0.253610 0.246390 1.250000
Ni787 Ni -0.253610 0.753610 0.250000
Ni788 Ni 0.253610 1.246390 0.250000
Ni789 Ni -0.253610 0.753610 1.250000
Ni790 Ni -0.246390 1.253610 0.750000
Ni791 Ni 0.253610 1.246390 1.250000
Ni792 Ni 0.753610 0.253610 0.750000
Ni793 Ni 1.253610 0.246390 0.250000
Ni794 Ni 0.746390 -0.246390 0.250000
Ni795 Ni 0.253610 0.246390 0.250000
Ni796 Ni 1.253610 0.246390 1.250000
Ni797 Ni 1.246390 -0.253610 0.750000
Ni798 Ni 0.746390 -0.246390 1.250000
Ni799 Ni 0.746390 0.753610 0.250000

#END
