
#######################################################################
#
#                 Cambridge Crystallographic Data Centre
#                                CCDC 
#
#######################################################################
#
# If this CIF has been generated from an entry in the Cambridge 
# Structural Database, then it will include bibliographic, chemical, 
# crystal, experimental, refinement or atomic coordinate data resulting 
# from the CCDC's data processing and validation procedures.
#
#######################################################################

data_ADOCAY
_symmetry_cell_setting           tetragonal
_symmetry_space_group_name_H-M   'P -4 n 2'
_symmetry_Int_Tables_number      118
_space_group_name_Hall           'P -4 -2n'
loop_
_symmetry_equiv_pos_site_id
_symmetry_equiv_pos_as_xyz
1 x,y,z
2 -x,-y,z
3 y,-x,-z
4 -y,x,-z
5 1/2+x,1/2-y,1/2+z
6 1/2-x,1/2+y,1/2+z
7 1/2+y,1/2+x,1/2-z
8 1/2-y,1/2-x,1/2-z
_cell_length_a                   17.0616(5)
_cell_length_b                   17.0616(5)
_cell_length_c                   14.6533(6)
_cell_angle_alpha                90
_cell_angle_beta                 90
_cell_angle_gamma                90
_cell_volume                     4265.55
loop_
_atom_site_label
_atom_site_type_symbol
_atom_site_fract_x
_atom_site_fract_y
_atom_site_fract_z
V1 V 0.12123(4) 0.11295(4) 0.12829(4)
V2 V 0.18551(4) -0.04750(4) 0.08878(6)
V3 V 0.18854(4) 0.03374(4) -0.08729(6)
V4 V 0.06638(5) -0.07086(5) 0.23028(4)
Ni1 Ni 0.25361(3) 0.24639(3) 0.2500
O1 O 0.18184(16) 0.17090(17) 0.18179(15)
O2 O 0.18500(18) 0.05886(17) 0.0383(2)
O3 O 0.13001(19) 0.00932(17) 0.1828(2)
O4 O 0.2719(2) -0.0674(2) 0.1236(3)
O5 O 0.12177(17) -0.13166(18) 0.12283(17)
O6 O 0.07144(18) 0.17792(19) 0.0372(2)
O7 O 0.2766(2) 0.0440(2) -0.1220(2)
O8 O 0.0186(2) 0.13000(18) 0.1817(2)
O9 O 0.0000 0.0000 0.2843(2)
O10 O 0.1055(2) -0.1135(2) 0.31668(18)
N1 N 0.3473(2) 0.2158(2) 0.1593(3)
N2 N 0.2212(2) 0.3398(2) 0.1605(3)
C1 C 0.1949(3) 0.3295(3) 0.0742(4)
H1 H 0.1803 0.2792 0.0564
C2 C 0.1885(3) 0.3887(3) 0.0117(4)
H2 H 0.1700 0.3783 -0.0467
C3 C 0.2099(3) 0.4645(3) 0.0361(4)
C4 C 0.3351(3) 0.1953(3) 0.0731(4)
H3 H 0.2846 0.1816 0.0555
C5 C 0.4214(3) 0.2289(3) 0.1849(4)
H4 H 0.4313 0.2405 0.2458
C6 C 0.4843(3) 0.2257(3) 0.1247(4)
H5 H 0.5351 0.2347 0.1454
C7 C 0.2089(3) 0.5296(3) -0.0321(4)
C8 C 0.3941(3) 0.1932(3) 0.0078(4)
H6 H 0.3820 0.1811 -0.0525
C9 C 0.2368(3) 0.4137(3) 0.1833(4)
H7 H 0.2510 0.4237 0.2435
C10 C 0.2336(3) 0.4761(3) 0.1245(4)
H8 H 0.2474 0.5260 0.1444
V1B V 0.11295(4) -0.12123(4) -0.12829(4)
V1A V -0.12123(4) -0.11295(4) 0.12829(4)
V1C V -0.11295(4) 0.12123(4) -0.12829(4)
V2C V 0.04750(4) 0.18551(4) -0.08878(6)
V2B V -0.04750(4) -0.18551(4) -0.08878(6)
V2A V -0.18551(4) 0.04750(4) 0.08878(6)
V3B V 0.03374(4) -0.18854(4) 0.08729(6)
V3C V -0.03374(4) 0.18854(4) 0.08729(6)
V3A V -0.18854(4) -0.03374(4) -0.08729(6)
V4A V -0.06638(5) 0.07086(5) 0.23028(4)
V4C V 0.07086(5) 0.06638(5) -0.23028(4)
V4B V -0.07086(5) -0.06638(5) -0.23028(4)
Ni1B Ni 0.24639(3) 0.74639(3) -0.2500
Ni1C Ni 0.75361(3) 0.25361(3) -0.2500
Ni1B Ni 0.24639(3) -0.25361(3) 0.7500
Ni1C Ni -0.24639(3) 0.25361(3) 0.7500
Ni1B Ni 0.24639(3) -0.25361(3) -0.2500
Ni1A Ni -0.25361(3) -0.24639(3) 0.2500
Ni1C Ni -0.24639(3) 0.25361(3) -0.2500
O1G O 0.32910(17) 0.31816(16) 0.31821(15)
O1B O 0.17090(17) -0.18184(16) -0.18179(15)
O1A O -0.18184(16) -0.17090(17) 0.18179(15)
O1C O -0.17090(17) 0.18184(16) -0.18179(15)
O1F O -0.32910(17) -0.31816(16) 0.31821(15)
O2B O 0.05886(17) -0.18500(18) -0.0383(2)
O2C O -0.05886(17) 0.18500(18) -0.0383(2)
O2A O -0.18500(18) -0.05886(17) 0.0383(2)
O3C O -0.00932(17) 0.13001(19) -0.1828(2)
O3A O -0.13001(19) -0.00932(17) 0.1828(2)
O3B O 0.00932(17) -0.13001(19) -0.1828(2)
O4C O 0.0674(2) 0.2719(2) -0.1236(3)
O4B O -0.0674(2) -0.2719(2) -0.1236(3)
O4A O -0.2719(2) 0.0674(2) 0.1236(3)
O5C O 0.13166(18) 0.12177(17) -0.12283(17)
O5A O -0.12177(17) 0.13166(18) 0.12283(17)
O5B O -0.13166(18) -0.12177(17) -0.12283(17)
O6B O 0.17792(19) -0.07144(18) -0.0372(2)
O6A O -0.07144(18) -0.17792(19) 0.0372(2)
O6C O -0.17792(19) 0.07144(18) -0.0372(2)
O7B O 0.0440(2) -0.2766(2) 0.1220(2)
O7C O -0.0440(2) 0.2766(2) 0.1220(2)
O7A O -0.2766(2) -0.0440(2) -0.1220(2)
O8B O 0.13000(18) -0.0186(2) -0.1817(2)
O8A O -0.0186(2) -0.13000(18) 0.1817(2)
O8C O -0.13000(18) 0.0186(2) -0.1817(2)
O9B O 0.0000 0.0000 -0.2843(2)
O10A O -0.1055(2) 0.1135(2) 0.31668(18)
O10C O 0.1135(2) 0.1055(2) -0.31668(18)
O10B O -0.1135(2) -0.1055(2) -0.31668(18)
N1G N 0.2842(2) 0.1527(2) 0.3407(3)
N1B N 0.2158(2) 0.6527(2) -0.1593(3)
N1E N 0.1527(2) -0.2842(2) 0.6593(3)
N1A N -0.3473(2) -0.2158(2) 0.1593(3)
N1F N -0.2842(2) -0.1527(2) 0.3407(3)
N2G N 0.1602(2) 0.2788(2) 0.3395(3)
N2C N 0.6602(2) 0.2212(2) -0.1605(3)
N2D N -0.2788(2) 0.1602(2) 0.6605(3)
N2A N -0.2212(2) -0.3398(2) 0.1605(3)
N2F N -0.1602(2) -0.2788(2) 0.3395(3)
C1C C 0.6705(3) 0.1949(3) -0.0742(4)
C1D C -0.3051(3) 0.1705(3) 0.5742(4)
C1F C -0.1705(3) -0.3051(3) 0.4258(4)
H1C H 0.7208 0.1803 -0.0564
H1D H -0.3197 0.2208 0.5564
H1F H -0.2208 -0.3197 0.4436
C2C C 0.6113(3) 0.1885(3) -0.0117(4)
C2D C -0.3115(3) 0.1113(3) 0.5117(4)
C2F C -0.1113(3) -0.3115(3) 0.4883(4)
H2C H 0.6217 0.1700 0.0467
H2D H -0.3300 0.1217 0.4533
H2F H -0.1217 -0.3300 0.5467
C3C C 0.5355(3) 0.2099(3) -0.0361(4)
C3D C -0.2901(3) 0.0355(3) 0.5361(4)
C3F C -0.0355(3) -0.2901(3) 0.4639(4)
C4B C 0.1953(3) 0.6649(3) -0.0731(4)
C4E C 0.1649(3) -0.3047(3) 0.5731(4)
C4F C -0.3047(3) -0.1649(3) 0.4269(4)
H3B H 0.1816 0.7154 -0.0555
H3E H 0.2154 -0.3184 0.5555
H3F H -0.3184 -0.2154 0.4445
C5B C 0.2289(3) 0.5786(3) -0.1849(4)
C5E C 0.0786(3) -0.2711(3) 0.6849(4)
C5F C -0.2711(3) -0.0786(3) 0.3151(4)
H4B H 0.2405 0.5687 -0.2458
H4E H 0.0687 -0.2595 0.7458
H4F H -0.2595 -0.0687 0.2542
C6B C 0.2257(3) 0.5157(3) -0.1247(4)
C6E C 0.0157(3) -0.2743(3) 0.6247(4)
C6F C -0.2743(3) -0.0157(3) 0.3753(4)
H5B H 0.2347 0.4649 -0.1454
H5E H -0.0351 -0.2653 0.6454
H5F H -0.2653 0.0351 0.3546
C7C C 0.4704(3) 0.2089(3) 0.0321(4)
C7F C 0.0296(3) -0.2911(3) 0.5321(4)
C7D C -0.2911(3) -0.0296(3) 0.4679(4)
C8B C 0.1932(3) 0.6059(3) -0.0078(4)
C8E C 0.1059(3) -0.3068(3) 0.5078(4)
C8F C -0.3068(3) -0.1059(3) 0.4922(4)
H6B H 0.1811 0.6180 0.0525
H6E H 0.1180 -0.3189 0.4475
H6F H -0.3189 -0.1180 0.5525
C9C C 0.5863(3) 0.2368(3) -0.1833(4)
C9D C -0.2632(3) 0.0863(3) 0.6833(4)
C9F C -0.0863(3) -0.2632(3) 0.3167(4)
H7C H 0.5763 0.2510 -0.2435
H7D H -0.2490 0.0763 0.7435
H7F H -0.0763 -0.2490 0.2565
C10C C 0.5239(3) 0.2336(3) -0.1245(4)
C10D C -0.2664(3) 0.0239(3) 0.6245(4)
C10F C -0.0239(3) -0.2664(3) 0.3755(4)
H8C H 0.4740 0.2474 -0.1444
H8D H -0.2526 -0.0260 0.6444
H8F H 0.0260 -0.2526 0.3556
V1 V 0.87877(4) 0.88705(4) 0.12829(4)
V2 V 0.81449(4) 1.04750(4) 0.08878(6)
V3 V 0.81146(4) 0.96626(4) -0.08729(6)
V4 V 0.93362(5) 1.07086(5) 0.23028(4)
Ni1 Ni 0.74639(3) 0.75361(3) 0.2500
O1 O 0.81816(16) 0.82910(17) 0.18179(15)
O2 O 0.81500(18) 0.94114(17) 0.0383(2)
O3 O 0.86999(19) 0.99068(17) 0.1828(2)
O4 O 0.7281(2) 1.0674(2) 0.1236(3)
O5 O 0.87823(17) 1.13166(18) 0.12283(17)
O6 O 0.92856(18) 0.82208(19) 0.0372(2)
O7 O 0.7234(2) 0.9560(2) -0.1220(2)
O8 O 0.9814(2) 0.87000(18) 0.1817(2)
O9 O 1.0000 1.0000 0.2843(2)
O10 O 0.8945(2) 1.1135(2) 0.31668(18)
N1 N 0.6527(2) 0.7842(2) 0.1593(3)
N2 N 0.7788(2) 0.6602(2) 0.1605(3)
C1 C 0.8051(3) 0.6705(3) 0.0742(4)
H1 H 0.8197 0.7208 0.0564
C2 C 0.8115(3) 0.6113(3) 0.0117(4)
H2 H 0.8300 0.6217 -0.0467
C3 C 0.7901(3) 0.5355(3) 0.0361(4)
C4 C 0.6649(3) 0.8047(3) 0.0731(4)
H3 H 0.7154 0.8184 0.0555
C5 C 0.5786(3) 0.7711(3) 0.1849(4)
H4 H 0.5687 0.7595 0.2458
C6 C 0.5157(3) 0.7743(3) 0.1247(4)
H5 H 0.4649 0.7653 0.1454
C7 C 0.7911(3) 0.4704(3) -0.0321(4)
C8 C 0.6059(3) 0.8068(3) 0.0078(4)
H6 H 0.6180 0.8189 -0.0525
C9 C 0.7632(3) 0.5863(3) 0.1833(4)
H7 H 0.7490 0.5763 0.2435
C10 C 0.7664(3) 0.5239(3) 0.1245(4)
H8 H 0.7526 0.4740 0.1444
V1B V 0.88705(4) 1.12123(4) -0.12829(4)
V1A V 1.12123(4) 1.11295(4) 0.12829(4)
V1C V 1.11295(4) 0.87877(4) -0.12829(4)
V2C V 0.95250(4) 0.81449(4) -0.08878(6)
V2B V 1.04750(4) 1.18551(4) -0.08878(6)
V2A V 1.18551(4) 0.95250(4) 0.08878(6)
V3B V 0.96626(4) 1.18854(4) 0.08729(6)
V3C V 1.03374(4) 0.81146(4) 0.08729(6)
V3A V 1.18854(4) 1.03374(4) -0.08729(6)
V4A V 1.06638(5) 0.92914(5) 0.23028(4)
V4C V 0.92914(5) 0.93362(5) -0.23028(4)
V4B V 1.07086(5) 1.06638(5) -0.23028(4)
Ni1B Ni 0.75361(3) 1.25361(3) 0.7500
Ni1C Ni 1.24639(3) 0.74639(3) 0.7500
Ni1B Ni 0.75361(3) 1.25361(3) -0.2500
Ni1A Ni 1.25361(3) 1.24639(3) 0.2500
Ni1C Ni 1.24639(3) 0.74639(3) -0.2500
O1G O 0.67090(17) 0.68184(16) 0.31821(15)
O1B O 0.82910(17) 1.18184(16) -0.18179(15)
O1A O 1.18184(16) 1.17090(17) 0.18179(15)
O1C O 1.17090(17) 0.81816(16) -0.18179(15)
O1F O 1.32910(17) 1.31816(16) 0.31821(15)
O2B O 0.94114(17) 1.18500(18) -0.0383(2)
O2C O 1.05886(17) 0.81500(18) -0.0383(2)
O2A O 1.18500(18) 1.05886(17) 0.0383(2)
O3C O 1.00932(17) 0.86999(19) -0.1828(2)
O3A O 1.13001(19) 1.00932(17) 0.1828(2)
O3B O 0.99068(17) 1.13001(19) -0.1828(2)
O4C O 0.9326(2) 0.7281(2) -0.1236(3)
O4B O 1.0674(2) 1.2719(2) -0.1236(3)
O4A O 1.2719(2) 0.9326(2) 0.1236(3)
O5C O 0.86834(18) 0.87823(17) -0.12283(17)
O5A O 1.12177(17) 0.86834(18) 0.12283(17)
O5B O 1.13166(18) 1.12177(17) -0.12283(17)
O6B O 0.82208(19) 1.07144(18) -0.0372(2)
O6A O 1.07144(18) 1.17792(19) 0.0372(2)
O6C O 1.17792(19) 0.92856(18) -0.0372(2)
O7B O 0.9560(2) 1.2766(2) 0.1220(2)
O7C O 1.0440(2) 0.7234(2) 0.1220(2)
O7A O 1.2766(2) 1.0440(2) -0.1220(2)
O8B O 0.87000(18) 1.0186(2) -0.1817(2)
O8A O 1.0186(2) 1.13000(18) 0.1817(2)
O8C O 1.13000(18) 0.9814(2) -0.1817(2)
O9B O 1.0000 1.0000 -0.2843(2)
O10A O 1.1055(2) 0.8865(2) 0.31668(18)
O10C O 0.8865(2) 0.8945(2) -0.31668(18)
O10B O 1.1135(2) 1.1055(2) -0.31668(18)
N1G N 0.7158(2) 0.8473(2) 0.3407(3)
N1B N 0.7842(2) 0.3473(2) -0.1593(3)
N1E N 0.8473(2) 1.2842(2) 0.6593(3)
N1A N 1.3473(2) 1.2158(2) 0.1593(3)
N1F N 1.2842(2) 1.1527(2) 0.3407(3)
N2G N 0.8398(2) 0.7212(2) 0.3395(3)
N2C N 0.3398(2) 0.7788(2) -0.1605(3)
N2D N 1.2788(2) 0.8398(2) 0.6605(3)
N2A N 1.2212(2) 1.3398(2) 0.1605(3)
N2F N 1.1602(2) 1.2788(2) 0.3395(3)
C1C C 0.3295(3) 0.8051(3) -0.0742(4)
C1D C 1.3051(3) 0.8295(3) 0.5742(4)
C1F C 1.1705(3) 1.3051(3) 0.4258(4)
H1C H 0.2792 0.8197 -0.0564
H1D H 1.3197 0.7792 0.5564
H1F H 1.2208 1.3197 0.4436
C2C C 0.3887(3) 0.8115(3) -0.0117(4)
C2D C 1.3115(3) 0.8887(3) 0.5117(4)
C2F C 1.1113(3) 1.3115(3) 0.4883(4)
H2C H 0.3783 0.8300 0.0467
H2D H 1.3300 0.8783 0.4533
H2F H 1.1217 1.3300 0.5467
C3C C 0.4645(3) 0.7901(3) -0.0361(4)
C3D C 1.2901(3) 0.9645(3) 0.5361(4)
C3F C 1.0355(3) 1.2901(3) 0.4639(4)
C4B C 0.8047(3) 0.3351(3) -0.0731(4)
C4E C 0.8351(3) 1.3047(3) 0.5731(4)
C4F C 1.3047(3) 1.1649(3) 0.4269(4)
H3B H 0.8184 0.2846 -0.0555
H3E H 0.7846 1.3184 0.5555
H3F H 1.3184 1.2154 0.4445
C5B C 0.7711(3) 0.4214(3) -0.1849(4)
C5E C 0.9214(3) 1.2711(3) 0.6849(4)
C5F C 1.2711(3) 1.0786(3) 0.3151(4)
H4B H 0.7595 0.4313 -0.2458
H4E H 0.9313 1.2595 0.7458
H4F H 1.2595 1.0687 0.2542
C6B C 0.7743(3) 0.4843(3) -0.1247(4)
C6E C 0.9843(3) 1.2743(3) 0.6247(4)
C6F C 1.2743(3) 1.0157(3) 0.3753(4)
H5B H 0.7653 0.5351 -0.1454
H5E H 1.0351 1.2653 0.6454
H5F H 1.2653 0.9649 0.3546
C7C C 0.5296(3) 0.7911(3) 0.0321(4)
C7F C 0.9704(3) 1.2911(3) 0.5321(4)
C7D C 1.2911(3) 1.0296(3) 0.4679(4)
C8B C 0.8068(3) 0.3941(3) -0.0078(4)
C8E C 0.8941(3) 1.3068(3) 0.5078(4)
C8F C 1.3068(3) 1.1059(3) 0.4922(4)
H6B H 0.8189 0.3820 0.0525
H6E H 0.8820 1.3189 0.4475
H6F H 1.3189 1.1180 0.5525
C9C C 0.4137(3) 0.7632(3) -0.1833(4)
C9D C 1.2632(3) 0.9137(3) 0.6833(4)
C9F C 1.0863(3) 1.2632(3) 0.3167(4)
H7C H 0.4237 0.7490 -0.2435
H7D H 1.2490 0.9237 0.7435
H7F H 1.0763 1.2490 0.2565
C10C C 0.4761(3) 0.7664(3) -0.1245(4)
C10D C 1.2664(3) 0.9761(3) 0.6245(4)
C10F C 1.0239(3) 1.2664(3) 0.3755(4)
H8C H 0.5260 0.7526 -0.1444
H8D H 1.2526 1.0260 0.6444
H8F H 0.9740 1.2526 0.3556
V1 V 0.11295(4) 0.87877(4) 0.87171(4)
V2 V -0.04750(4) 0.81449(4) 0.91122(6)
V3 V 0.03374(4) 0.81146(4) 1.08729(6)
V4 V -0.07086(5) 0.93362(5) 0.76972(4)
Ni1 Ni 0.24639(3) 0.74639(3) 0.7500
O1 O 0.17090(17) 0.81816(16) 0.81821(15)
O2 O 0.05886(17) 0.81500(18) 0.9617(2)
O3 O 0.00932(17) 0.86999(19) 0.8172(2)
O4 O -0.0674(2) 0.7281(2) 0.8764(3)
O5 O -0.13166(18) 0.87823(17) 0.87717(17)
O6 O 0.17792(19) 0.92856(18) 0.9628(2)
O7 O 0.0440(2) 0.7234(2) 1.1220(2)
O8 O 0.13000(18) 0.9814(2) 0.8183(2)
O9 O 0.0000 1.0000 0.7157(2)
O10 O -0.1135(2) 0.8945(2) 0.68332(18)
N1 N 0.2158(2) 0.6527(2) 0.8407(3)
N2 N 0.3398(2) 0.7788(2) 0.8395(3)
C1 C 0.3295(3) 0.8051(3) 0.9258(4)
H1 H 0.2792 0.8197 0.9436
C2 C 0.3887(3) 0.8115(3) 0.9883(4)
H2 H 0.3783 0.8300 1.0467
C3 C 0.4645(3) 0.7901(3) 0.9639(4)
C4 C 0.1953(3) 0.6649(3) 0.9269(4)
H3 H 0.1816 0.7154 0.9445
C5 C 0.2289(3) 0.5786(3) 0.8151(4)
H4 H 0.2405 0.5687 0.7542
C6 C 0.2257(3) 0.5157(3) 0.8753(4)
H5 H 0.2347 0.4649 0.8546
C7 C 0.5296(3) 0.7911(3) 1.0321(4)
C8 C 0.1932(3) 0.6059(3) 0.9922(4)
H6 H 0.1811 0.6180 1.0525
C9 C 0.4137(3) 0.7632(3) 0.8167(4)
H7 H 0.4237 0.7490 0.7565
C10 C 0.4761(3) 0.7664(3) 0.8755(4)
H8 H 0.5260 0.7526 0.8556
V1B V -0.12123(4) 0.88705(4) 1.12829(4)
V1A V -0.11295(4) 1.12123(4) 0.87171(4)
V1C V 0.12123(4) 1.11295(4) 1.12829(4)
V2C V 0.18551(4) 0.95250(4) 1.08878(6)
V2B V -0.18551(4) 1.04750(4) 1.08878(6)
V2A V 0.04750(4) 1.18551(4) 0.91122(6)
V3B V -0.18854(4) 0.96626(4) 0.91271(6)
V3C V 0.18854(4) 1.03374(4) 0.91271(6)
V3A V -0.03374(4) 1.18854(4) 1.08729(6)
V4A V 0.07086(5) 1.06638(5) 0.76972(4)
V4C V 0.06638(5) 0.92914(5) 1.23028(4)
V4B V -0.06638(5) 1.07086(5) 1.23028(4)
Ni1B Ni 0.74639(3) 0.75361(3) 1.2500
Ni1C Ni 0.25361(3) 0.24639(3) 1.2500
Ni1B Ni -0.25361(3) 0.75361(3) 0.2500
Ni1C Ni 0.25361(3) 1.24639(3) 0.2500
Ni1B Ni -0.25361(3) 0.75361(3) 1.2500
Ni1A Ni -0.24639(3) 1.25361(3) 0.7500
Ni1C Ni 0.25361(3) 1.24639(3) 1.2500
O1G O 0.31816(16) 0.67090(17) 0.68179(15)
O1B O -0.18184(16) 0.82910(17) 1.18179(15)
O1A O -0.17090(17) 1.18184(16) 0.81821(15)
O1C O 0.18184(16) 1.17090(17) 1.18179(15)
O1F O -0.31816(16) 1.32910(17) 0.68179(15)
O2B O -0.18500(18) 0.94114(17) 1.0383(2)
O2C O 0.18500(18) 1.05886(17) 1.0383(2)
O2A O -0.05886(17) 1.18500(18) 0.9617(2)
O3C O 0.13001(19) 1.00932(17) 1.1828(2)
O3A O -0.00932(17) 1.13001(19) 0.8172(2)
O3B O -0.13001(19) 0.99068(17) 1.1828(2)
O4C O 0.2719(2) 0.9326(2) 1.1236(3)
O4B O -0.2719(2) 1.0674(2) 1.1236(3)
O4A O 0.0674(2) 1.2719(2) 0.8764(3)
O5C O 0.12177(17) 0.86834(18) 1.12283(17)
O5A O 0.13166(18) 1.12177(17) 0.87717(17)
O5B O -0.12177(17) 1.13166(18) 1.12283(17)
O6B O -0.07144(18) 0.82208(19) 1.0372(2)
O6A O -0.17792(19) 1.07144(18) 0.9628(2)
O6C O 0.07144(18) 1.17792(19) 1.0372(2)
O7B O -0.2766(2) 0.9560(2) 0.8780(2)
O7C O 0.2766(2) 1.0440(2) 0.8780(2)
O7A O -0.0440(2) 1.2766(2) 1.1220(2)
O8B O -0.0186(2) 0.87000(18) 1.1817(2)
O8A O -0.13000(18) 1.0186(2) 0.8183(2)
O8C O 0.0186(2) 1.13000(18) 1.1817(2)
O9B O 0.0000 1.0000 1.2843(2)
O10A O 0.1135(2) 1.1055(2) 0.68332(18)
O10C O 0.1055(2) 0.8865(2) 1.31668(18)
O10B O -0.1055(2) 1.1135(2) 1.31668(18)
N1G N 0.1527(2) 0.7158(2) 0.6593(3)
N1B N 0.6527(2) 0.7842(2) 1.1593(3)
N1E N -0.2842(2) 0.8473(2) 0.3407(3)
N1A N -0.2158(2) 1.3473(2) 0.8407(3)
N1F N -0.1527(2) 1.2842(2) 0.6593(3)
N2G N 0.2788(2) 0.8398(2) 0.6605(3)
N2C N 0.2212(2) 0.3398(2) 1.1605(3)
N2D N 0.1602(2) 1.2788(2) 0.3395(3)
N2A N -0.3398(2) 1.2212(2) 0.8395(3)
N2F N -0.2788(2) 1.1602(2) 0.6605(3)
C1C C 0.1949(3) 0.3295(3) 1.0742(4)
C1D C 0.1705(3) 1.3051(3) 0.4258(4)
C1F C -0.3051(3) 1.1705(3) 0.5742(4)
H1C H 0.1803 0.2792 1.0564
H1D H 0.2208 1.3197 0.4436
H1F H -0.3197 1.2208 0.5564
C2C C 0.1885(3) 0.3887(3) 1.0117(4)
C2D C 0.1113(3) 1.3115(3) 0.4883(4)
C2F C -0.3115(3) 1.1113(3) 0.5117(4)
H2C H 0.1700 0.3783 0.9533
H2D H 0.1217 1.3300 0.5467
H2F H -0.3300 1.1217 0.4533
C3C C 0.2099(3) 0.4645(3) 1.0361(4)
C3D C 0.0355(3) 1.2901(3) 0.4639(4)
C3F C -0.2901(3) 1.0355(3) 0.5361(4)
C4B C 0.6649(3) 0.8047(3) 1.0731(4)
C4E C -0.3047(3) 0.8351(3) 0.4269(4)
C4F C -0.1649(3) 1.3047(3) 0.5731(4)
H3B H 0.7154 0.8184 1.0555
H3E H -0.3184 0.7846 0.4445
H3F H -0.2154 1.3184 0.5555
C5B C 0.5786(3) 0.7711(3) 1.1849(4)
C5E C -0.2711(3) 0.9214(3) 0.3151(4)
C5F C -0.0786(3) 1.2711(3) 0.6849(4)
H4B H 0.5687 0.7595 1.2458
H4E H -0.2595 0.9313 0.2542
H4F H -0.0687 1.2595 0.7458
C6B C 0.5157(3) 0.7743(3) 1.1247(4)
C6E C -0.2743(3) 0.9843(3) 0.3753(4)
C6F C -0.0157(3) 1.2743(3) 0.6247(4)
H5B H 0.4649 0.7653 1.1454
H5E H -0.2653 1.0351 0.3546
H5F H 0.0351 1.2653 0.6454
C7C C 0.2089(3) 0.5296(3) 0.9679(4)
C7F C -0.2911(3) 0.9704(3) 0.4679(4)
C7D C -0.0296(3) 1.2911(3) 0.5321(4)
C8B C 0.6059(3) 0.8068(3) 1.0078(4)
C8E C -0.3068(3) 0.8941(3) 0.4922(4)
C8F C -0.1059(3) 1.3068(3) 0.5078(4)
H6B H 0.6180 0.8189 0.9475
H6E H -0.3189 0.8820 0.5525
H6F H -0.1180 1.3189 0.4475
C9C C 0.2368(3) 0.4137(3) 1.1833(4)
C9D C 0.0863(3) 1.2632(3) 0.3167(4)
C9F C -0.2632(3) 1.0863(3) 0.6833(4)
H7C H 0.2510 0.4237 1.2435
H7D H 0.0763 1.2490 0.2565
H7F H -0.2490 1.0763 0.7435
C10C C 0.2336(3) 0.4761(3) 1.1245(4)
C10D C 0.0239(3) 1.2664(3) 0.3755(4)
C10F C -0.2664(3) 1.0239(3) 0.6245(4)
H8C H 0.2474 0.5260 1.1444
H8D H -0.0260 1.2526 0.3556
H8F H -0.2526 0.9740 0.6444
V1 V 0.88705(4) 0.12123(4) 0.87171(4)
V2 V 1.04750(4) 0.18551(4) 0.91122(6)
V3 V 0.96626(4) 0.18854(4) 1.08729(6)
V4 V 1.07086(5) 0.06638(5) 0.76972(4)
Ni1 Ni 0.75361(3) 0.25361(3) 0.7500
O1 O 0.82910(17) 0.18184(16) 0.81821(15)
O2 O 0.94114(17) 0.18500(18) 0.9617(2)
O3 O 0.99068(17) 0.13001(19) 0.8172(2)
O4 O 1.0674(2) 0.2719(2) 0.8764(3)
O5 O 1.13166(18) 0.12177(17) 0.87717(17)
O6 O 0.82208(19) 0.07144(18) 0.9628(2)
O7 O 0.9560(2) 0.2766(2) 1.1220(2)
O8 O 0.87000(18) 0.0186(2) 0.8183(2)
O9 O 1.0000 0.0000 0.7157(2)
O10 O 1.1135(2) 0.1055(2) 0.68332(18)
N1 N 0.7842(2) 0.3473(2) 0.8407(3)
N2 N 0.6602(2) 0.2212(2) 0.8395(3)
C1 C 0.6705(3) 0.1949(3) 0.9258(4)
H1 H 0.7208 0.1803 0.9436
C2 C 0.6113(3) 0.1885(3) 0.9883(4)
H2 H 0.6217 0.1700 1.0467
C3 C 0.5355(3) 0.2099(3) 0.9639(4)
C4 C 0.8047(3) 0.3351(3) 0.9269(4)
H3 H 0.8184 0.2846 0.9445
C5 C 0.7711(3) 0.4214(3) 0.8151(4)
H4 H 0.7595 0.4313 0.7542
C6 C 0.7743(3) 0.4843(3) 0.8753(4)
H5 H 0.7653 0.5351 0.8546
C7 C 0.4704(3) 0.2089(3) 1.0321(4)
C8 C 0.8068(3) 0.3941(3) 0.9922(4)
H6 H 0.8189 0.3820 1.0525
C9 C 0.5863(3) 0.2368(3) 0.8167(4)
H7 H 0.5763 0.2510 0.7565
C10 C 0.5239(3) 0.2336(3) 0.8755(4)
H8 H 0.4740 0.2474 0.8556
V1B V 1.12123(4) 0.11295(4) 1.12829(4)
V1A V 1.11295(4) -0.12123(4) 0.87171(4)
V1C V 0.87877(4) -0.11295(4) 1.12829(4)
V2C V 0.81449(4) 0.04750(4) 1.08878(6)
V2B V 1.18551(4) -0.04750(4) 1.08878(6)
V2A V 0.95250(4) -0.18551(4) 0.91122(6)
V3B V 1.18854(4) 0.03374(4) 0.91271(6)
V3C V 0.81146(4) -0.03374(4) 0.91271(6)
V3A V 1.03374(4) -0.18854(4) 1.08729(6)
V4A V 0.92914(5) -0.06638(5) 0.76972(4)
V4C V 0.93362(5) 0.07086(5) 1.23028(4)
V4B V 1.06638(5) -0.07086(5) 1.23028(4)
Ni1B Ni 1.25361(3) 0.24639(3) 0.2500
Ni1C Ni 0.74639(3) -0.24639(3) 0.2500
Ni1B Ni 1.25361(3) 0.24639(3) 1.2500
Ni1A Ni 1.24639(3) -0.25361(3) 0.7500
Ni1C Ni 0.74639(3) -0.24639(3) 1.2500
O1G O 0.68184(16) 0.32910(17) 0.68179(15)
O1B O 1.18184(16) 0.17090(17) 1.18179(15)
O1A O 1.17090(17) -0.18184(16) 0.81821(15)
O1C O 0.81816(16) -0.17090(17) 1.18179(15)
O1F O 1.31816(16) -0.32910(17) 0.68179(15)
O2B O 1.18500(18) 0.05886(17) 1.0383(2)
O2C O 0.81500(18) -0.05886(17) 1.0383(2)
O2A O 1.05886(17) -0.18500(18) 0.9617(2)
O3C O 0.86999(19) -0.00932(17) 1.1828(2)
O3A O 1.00932(17) -0.13001(19) 0.8172(2)
O3B O 1.13001(19) 0.00932(17) 1.1828(2)
O4C O 0.7281(2) 0.0674(2) 1.1236(3)
O4B O 1.2719(2) -0.0674(2) 1.1236(3)
O4A O 0.9326(2) -0.2719(2) 0.8764(3)
O5C O 0.87823(17) 0.13166(18) 1.12283(17)
O5A O 0.86834(18) -0.12177(17) 0.87717(17)
O5B O 1.12177(17) -0.13166(18) 1.12283(17)
O6B O 1.07144(18) 0.17792(19) 1.0372(2)
O6A O 1.17792(19) -0.07144(18) 0.9628(2)
O6C O 0.92856(18) -0.17792(19) 1.0372(2)
O7B O 1.2766(2) 0.0440(2) 0.8780(2)
O7C O 0.7234(2) -0.0440(2) 0.8780(2)
O7A O 1.0440(2) -0.2766(2) 1.1220(2)
O8B O 1.0186(2) 0.13000(18) 1.1817(2)
O8A O 1.13000(18) -0.0186(2) 0.8183(2)
O8C O 0.9814(2) -0.13000(18) 1.1817(2)
O9B O 1.0000 0.0000 1.2843(2)
O10A O 0.8865(2) -0.1055(2) 0.68332(18)
O10C O 0.8945(2) 0.1135(2) 1.31668(18)
O10B O 1.1055(2) -0.1135(2) 1.31668(18)
N1G N 0.8473(2) 0.2842(2) 0.6593(3)
N1B N 0.3473(2) 0.2158(2) 1.1593(3)
N1E N 1.2842(2) 0.1527(2) 0.3407(3)
N1A N 1.2158(2) -0.3473(2) 0.8407(3)
N1F N 1.1527(2) -0.2842(2) 0.6593(3)
N2G N 0.7212(2) 0.1602(2) 0.6605(3)
N2C N 0.7788(2) 0.6602(2) 1.1605(3)
N2D N 0.8398(2) -0.2788(2) 0.3395(3)
N2A N 1.3398(2) -0.2212(2) 0.8395(3)
N2F N 1.2788(2) -0.1602(2) 0.6605(3)
C1C C 0.8051(3) 0.6705(3) 1.0742(4)
C1D C 0.8295(3) -0.3051(3) 0.4258(4)
C1F C 1.3051(3) -0.1705(3) 0.5742(4)
H1C H 0.8197 0.7208 1.0564
H1D H 0.7792 -0.3197 0.4436
H1F H 1.3197 -0.2208 0.5564
C2C C 0.8115(3) 0.6113(3) 1.0117(4)
C2D C 0.8887(3) -0.3115(3) 0.4883(4)
C2F C 1.3115(3) -0.1113(3) 0.5117(4)
H2C H 0.8300 0.6217 0.9533
H2D H 0.8783 -0.3300 0.5467
H2F H 1.3300 -0.1217 0.4533
C3C C 0.7901(3) 0.5355(3) 1.0361(4)
C3D C 0.9645(3) -0.2901(3) 0.4639(4)
C3F C 1.2901(3) -0.0355(3) 0.5361(4)
C4B C 0.3351(3) 0.1953(3) 1.0731(4)
C4E C 1.3047(3) 0.1649(3) 0.4269(4)
C4F C 1.1649(3) -0.3047(3) 0.5731(4)
H3B H 0.2846 0.1816 1.0555
H3E H 1.3184 0.2154 0.4445
H3F H 1.2154 -0.3184 0.5555
C5B C 0.4214(3) 0.2289(3) 1.1849(4)
C5E C 1.2711(3) 0.0786(3) 0.3151(4)
C5F C 1.0786(3) -0.2711(3) 0.6849(4)
H4B H 0.4313 0.2405 1.2458
H4E H 1.2595 0.0687 0.2542
H4F H 1.0687 -0.2595 0.7458
C6B C 0.4843(3) 0.2257(3) 1.1247(4)
C6E C 1.2743(3) 0.0157(3) 0.3753(4)
C6F C 1.0157(3) -0.2743(3) 0.6247(4)
H5B H 0.5351 0.2347 1.1454
H5E H 1.2653 -0.0351 0.3546
H5F H 0.9649 -0.2653 0.6454
C7C C 0.7911(3) 0.4704(3) 0.9679(4)
C7F C 1.2911(3) 0.0296(3) 0.4679(4)
C7D C 1.0296(3) -0.2911(3) 0.5321(4)
C8B C 0.3941(3) 0.1932(3) 1.0078(4)
C8E C 1.3068(3) 0.1059(3) 0.4922(4)
C8F C 1.1059(3) -0.3068(3) 0.5078(4)
H6B H 0.3820 0.1811 0.9475
H6E H 1.3189 0.1180 0.5525
H6F H 1.1180 -0.3189 0.4475
C9C C 0.7632(3) 0.5863(3) 1.1833(4)
C9D C 0.9137(3) -0.2632(3) 0.3167(4)
C9F C 1.2632(3) -0.0863(3) 0.6833(4)
H7C H 0.7490 0.5763 1.2435
H7D H 0.9237 -0.2490 0.2565
H7F H 1.2490 -0.0763 0.7435
C10C C 0.7664(3) 0.5239(3) 1.1245(4)
C10D C 0.9761(3) -0.2664(3) 0.3755(4)
C10F C 1.2664(3) -0.0239(3) 0.6245(4)
H8C H 0.7526 0.4740 1.1444
H8D H 1.0260 -0.2526 0.3556
H8F H 1.2526 0.0260 0.6444
V1 V 0.62123(4) 0.38705(4) 0.62829(4)
V2 V 0.68551(4) 0.54750(4) 0.58878(6)
V3 V 0.68854(4) 0.46626(4) 0.41271(6)
V4 V 0.56638(5) 0.57086(5) 0.73028(4)
O2 O 0.68500(18) 0.44114(17) 0.5383(2)
O3 O 0.63001(19) 0.49068(17) 0.6828(2)
O4 O 0.7719(2) 0.5674(2) 0.6236(3)
O5 O 0.62177(17) 0.63166(18) 0.62283(17)
O6 O 0.57144(18) 0.32208(19) 0.5372(2)
O7 O 0.7766(2) 0.4560(2) 0.3780(2)
O8 O 0.5186(2) 0.37000(18) 0.6817(2)
O9 O 0.5000 0.5000 0.7843(2)
O10 O 0.6055(2) 0.6135(2) 0.81668(18)
C1 C 0.6949(3) 0.1705(3) 0.5742(4)
H1 H 0.6803 0.2208 0.5564
C2 C 0.6885(3) 0.1113(3) 0.5117(4)
H2 H 0.6700 0.1217 0.4533
C3 C 0.7099(3) 0.0355(3) 0.5361(4)
C4 C 0.8351(3) 0.3047(3) 0.5731(4)
H3 H 0.7846 0.3184 0.5555
C5 C 0.9214(3) 0.2711(3) 0.6849(4)
H4 H 0.9313 0.2595 0.7458
C6 C 0.9843(3) 0.2743(3) 0.6247(4)
H5 H 1.0351 0.2653 0.6454
C7 C 0.7089(3) -0.0296(3) 0.4679(4)
C8 C 0.8941(3) 0.3068(3) 0.5078(4)
H6 H 0.8820 0.3189 0.4475
C9 C 0.7368(3) 0.0863(3) 0.6833(4)
H7 H 0.7510 0.0763 0.7435
C10 C 0.7336(3) 0.0239(3) 0.6245(4)
H8 H 0.7474 -0.0260 0.6444
V1B V 0.61295(4) 0.62123(4) 0.37171(4)
V1A V 0.37877(4) 0.61295(4) 0.62829(4)
V1C V 0.38705(4) 0.37877(4) 0.37171(4)
V2C V 0.54750(4) 0.31449(4) 0.41122(6)
V2B V 0.45250(4) 0.68551(4) 0.41122(6)
V2A V 0.31449(4) 0.45250(4) 0.58878(6)
V3B V 0.53374(4) 0.68854(4) 0.58729(6)
V3C V 0.46626(4) 0.31146(4) 0.58729(6)
V3A V 0.31146(4) 0.53374(4) 0.41271(6)
V4A V 0.43362(5) 0.42914(5) 0.73028(4)
V4C V 0.57086(5) 0.43362(5) 0.26972(4)
V4B V 0.42914(5) 0.56638(5) 0.26972(4)
O2B O 0.55886(17) 0.68500(18) 0.4617(2)
O2C O 0.44114(17) 0.31500(18) 0.4617(2)
O2A O 0.31500(18) 0.55886(17) 0.5383(2)
O3C O 0.49068(17) 0.36999(19) 0.3172(2)
O3A O 0.36999(19) 0.50932(17) 0.6828(2)
O3B O 0.50932(17) 0.63001(19) 0.3172(2)
O4C O 0.5674(2) 0.2281(2) 0.3764(3)
O4B O 0.4326(2) 0.7719(2) 0.3764(3)
O4A O 0.2281(2) 0.4326(2) 0.6236(3)
O5C O 0.63166(18) 0.37823(17) 0.37717(17)
O5A O 0.37823(17) 0.36834(18) 0.62283(17)
O5B O 0.36834(18) 0.62177(17) 0.37717(17)
O6B O 0.67792(19) 0.57144(18) 0.4628(2)
O6A O 0.42856(18) 0.67792(19) 0.5372(2)
O6C O 0.32208(19) 0.42856(18) 0.4628(2)
O7B O 0.5440(2) 0.7766(2) 0.6220(2)
O7C O 0.4560(2) 0.2234(2) 0.6220(2)
O7A O 0.2234(2) 0.5440(2) 0.3780(2)
O8B O 0.63000(18) 0.5186(2) 0.3183(2)
O8A O 0.4814(2) 0.63000(18) 0.6817(2)
O8C O 0.37000(18) 0.4814(2) 0.3183(2)
O9B O 0.5000 0.5000 0.2157(2)
O10A O 0.3945(2) 0.3865(2) 0.81668(18)
O10C O 0.6135(2) 0.3945(2) 0.18332(18)
O10B O 0.3865(2) 0.6055(2) 0.18332(18)
N1B N 0.7158(2) -0.1527(2) 0.3407(3)
N2C N 1.1602(2) 0.2788(2) 0.3395(3)
C1C C 1.1705(3) 0.3051(3) 0.4258(4)
H1C H 1.2208 0.3197 0.4436
C2C C 1.1113(3) 0.3115(3) 0.4883(4)
H2C H 1.1217 0.3300 0.5467
C3C C 1.0355(3) 0.2901(3) 0.4639(4)
C4B C 0.6953(3) -0.1649(3) 0.4269(4)
H3B H 0.6816 -0.2154 0.4445
C5B C 0.7289(3) -0.0786(3) 0.3151(4)
H4B H 0.7405 -0.0687 0.2542
C6B C 0.7257(3) -0.0157(3) 0.3753(4)
H5B H 0.7347 0.0351 0.3546
C7C C 0.9704(3) 0.2911(3) 0.5321(4)
C8B C 0.6932(3) -0.1059(3) 0.4922(4)
H6B H 0.6811 -0.1180 0.5525
C9C C 1.0863(3) 0.2632(3) 0.3167(4)
H7C H 1.0763 0.2490 0.2565
C10C C 1.0239(3) 0.2664(3) 0.3755(4)
H8C H 0.9740 0.2526 0.3556
C1 C 0.3051(3) 0.8295(3) 0.5742(4)
H1 H 0.3197 0.7792 0.5564
C2 C 0.3115(3) 0.8887(3) 0.5117(4)
H2 H 0.3300 0.8783 0.4533
C3 C 0.2901(3) 0.9645(3) 0.5361(4)
C4 C 0.1649(3) 0.6953(3) 0.5731(4)
H3 H 0.2154 0.6816 0.5555
C5 C 0.0786(3) 0.7289(3) 0.6849(4)
H4 H 0.0687 0.7405 0.7458
C6 C 0.0157(3) 0.7257(3) 0.6247(4)
H5 H -0.0351 0.7347 0.6454
C7 C 0.2911(3) 1.0296(3) 0.4679(4)
C8 C 0.1059(3) 0.6932(3) 0.5078(4)
H6 H 0.1180 0.6811 0.4475
C9 C 0.2632(3) 0.9137(3) 0.6833(4)
H7 H 0.2490 0.9237 0.7435
C10 C 0.2664(3) 0.9761(3) 0.6245(4)
H8 H 0.2526 1.0260 0.6444
N1B N 0.2842(2) 1.1527(2) 0.3407(3)
N2C N -0.1602(2) 0.7212(2) 0.3395(3)
C1C C -0.1705(3) 0.6949(3) 0.4258(4)
H1C H -0.2208 0.6803 0.4436
C2C C -0.1113(3) 0.6885(3) 0.4883(4)
H2C H -0.1217 0.6700 0.5467
C3C C -0.0355(3) 0.7099(3) 0.4639(4)
C4B C 0.3047(3) 1.1649(3) 0.4269(4)
H3B H 0.3184 1.2154 0.4445
C5B C 0.2711(3) 1.0786(3) 0.3151(4)
H4B H 0.2595 1.0687 0.2542
C6B C 0.2743(3) 1.0157(3) 0.3753(4)
H5B H 0.2653 0.9649 0.3546
C7C C 0.0296(3) 0.7089(3) 0.5321(4)
C8B C 0.3068(3) 1.1059(3) 0.4922(4)
H6B H 0.3189 1.1180 0.5525
C9C C -0.0863(3) 0.7368(3) 0.3167(4)
H7C H -0.0763 0.7510 0.2565
C10C C -0.0239(3) 0.7336(3) 0.3755(4)
H8C H 0.0260 0.7474 0.3556
C1 C 0.8295(3) 0.6949(3) 0.4258(4)
H1 H 0.7792 0.6803 0.4436
C2 C 0.8887(3) 0.6885(3) 0.4883(4)
H2 H 0.8783 0.6700 0.5467
C3 C 0.9645(3) 0.7099(3) 0.4639(4)
C4 C 0.6953(3) 0.8351(3) 0.4269(4)
H3 H 0.6816 0.7846 0.4445
C5 C 0.7289(3) 0.9214(3) 0.3151(4)
H4 H 0.7405 0.9313 0.2542
C6 C 0.7257(3) 0.9843(3) 0.3753(4)
H5 H 0.7347 1.0351 0.3546
C7 C 1.0296(3) 0.7089(3) 0.5321(4)
C8 C 0.6932(3) 0.8941(3) 0.4922(4)
H6 H 0.6811 0.8820 0.5525
C9 C 0.9137(3) 0.7368(3) 0.3167(4)
H7 H 0.9237 0.7510 0.2565
C10 C 0.9761(3) 0.7336(3) 0.3755(4)
H8 H 1.0260 0.7474 0.3556
N1B N 1.1527(2) 0.7158(2) 0.6593(3)
N2C N 0.7212(2) 1.1602(2) 0.6605(3)
C1C C 0.6949(3) 1.1705(3) 0.5742(4)
H1C H 0.6803 1.2208 0.5564
C2C C 0.6885(3) 1.1113(3) 0.5117(4)
H2C H 0.6700 1.1217 0.4533
C3C C 0.7099(3) 1.0355(3) 0.5361(4)
C4B C 1.1649(3) 0.6953(3) 0.5731(4)
H3B H 1.2154 0.6816 0.5555
C5B C 1.0786(3) 0.7289(3) 0.6849(4)
H4B H 1.0687 0.7405 0.7458
C6B C 1.0157(3) 0.7257(3) 0.6247(4)
H5B H 0.9649 0.7347 0.6454
C7C C 0.7089(3) 0.9704(3) 0.4679(4)
C8B C 1.1059(3) 0.6932(3) 0.5078(4)
H6B H 1.1180 0.6811 0.4475
C9C C 0.7368(3) 1.0863(3) 0.6833(4)
H7C H 0.7510 1.0763 0.7435
C10C C 0.7336(3) 1.0239(3) 0.6245(4)
H8C H 0.7474 0.9740 0.6444
C1 C 0.1705(3) 0.3051(3) 0.4258(4)
H1 H 0.2208 0.3197 0.4436
C2 C 0.1113(3) 0.3115(3) 0.4883(4)
H2 H 0.1217 0.3300 0.5467
C3 C 0.0355(3) 0.2901(3) 0.4639(4)
C4 C 0.3047(3) 0.1649(3) 0.4269(4)
H3 H 0.3184 0.2154 0.4445
C5 C 0.2711(3) 0.0786(3) 0.3151(4)
H4 H 0.2595 0.0687 0.2542
C6 C 0.2743(3) 0.0157(3) 0.3753(4)
H5 H 0.2653 -0.0351 0.3546
C7 C -0.0296(3) 0.2911(3) 0.5321(4)
C8 C 0.3068(3) 0.1059(3) 0.4922(4)
H6 H 0.3189 0.1180 0.5525
C9 C 0.0863(3) 0.2632(3) 0.3167(4)
H7 H 0.0763 0.2490 0.2565
C10 C 0.0239(3) 0.2664(3) 0.3755(4)
H8 H -0.0260 0.2526 0.3556
N1B N -0.1527(2) 0.2842(2) 0.6593(3)
N2C N 0.2788(2) -0.1602(2) 0.6605(3)
C1C C 0.3051(3) -0.1705(3) 0.5742(4)
H1C H 0.3197 -0.2208 0.5564
C2C C 0.3115(3) -0.1113(3) 0.5117(4)
H2C H 0.3300 -0.1217 0.4533
C3C C 0.2901(3) -0.0355(3) 0.5361(4)
C4B C -0.1649(3) 0.3047(3) 0.5731(4)
H3B H -0.2154 0.3184 0.5555
C5B C -0.0786(3) 0.2711(3) 0.6849(4)
H4B H -0.0687 0.2595 0.7458
C6B C -0.0157(3) 0.2743(3) 0.6247(4)
H5B H 0.0351 0.2653 0.6454
C7C C 0.2911(3) 0.0296(3) 0.4679(4)
C8B C -0.1059(3) 0.3068(3) 0.5078(4)
H6B H -0.1180 0.3189 0.4475
C9C C 0.2632(3) -0.0863(3) 0.6833(4)
H7C H 0.2490 -0.0763 0.7435
C10C C 0.2664(3) -0.0239(3) 0.6245(4)
H8C H 0.2526 0.0260 0.6444
F1 F 0.0000 0.0000 0.0000
F1 F 0.0000 0.0000 1.0000
F1 F 0.0000 1.0000 0.0000
F1 F 0.0000 1.0000 1.0000
F1 F 1.0000 0.0000 0.0000
F1 F 1.0000 0.0000 1.0000
F1 F 1.0000 1.0000 0.0000
F1 F 1.0000 1.0000 1.0000
F1 F 0.5000 0.5000 0.5000

#END
