
#######################################################################
#
#                 Cambridge Crystallographic Data Centre
#                                CCDC 
#
#######################################################################
#
# If this CIF has been generated from an entry in the Cambridge 
# Structural Database, then it will include bibliographic, chemical, 
# crystal, experimental, refinement or atomic coordinate data resulting 
# from the CCDC's data processing and validation procedures.
#
#######################################################################

data_ADOJEK
_symmetry_cell_setting           orthorhombic
_symmetry_space_group_name_H-M   'P n a 21'
_symmetry_Int_Tables_number      33
_space_group_name_Hall           'P 2c -2n'
loop_
_symmetry_equiv_pos_site_id
_symmetry_equiv_pos_as_xyz
1 x,y,z
2 -x,-y,1/2+z
3 1/2+x,1/2-y,z
4 1/2-x,1/2+y,1/2+z
_cell_length_a                   16.6967(11)
_cell_length_b                   4.2787(3)
_cell_length_c                   13.1262(8)
_cell_angle_alpha                90
_cell_angle_beta                 90
_cell_angle_gamma                90
_cell_volume                     937.738
loop_
_atom_site_label
_atom_site_type_symbol
_atom_site_fract_x
_atom_site_fract_y
_atom_site_fract_z
C1 C 0.21012(14) 0.4850(6) 0.35713(18)
C2 C 0.22874(14) 0.2768(6) 0.27816(19)
H1 H 0.1899 0.2320 0.2273
C3 C 0.30399(14) 0.1346(6) 0.27371(18)
C4 C 0.36108(14) 0.2048(6) 0.34856(18)
H2 H 0.4125 0.1097 0.3457
C5 C 0.34325(14) 0.4127(6) 0.42709(17)
C6 C 0.26710(14) 0.5524(6) 0.43130(18)
H3 H 0.2545 0.6931 0.4849
C7 C 0.13312(15) 0.6506(6) 0.36379(19)
H4 H 0.1242 0.7848 0.4203
N1 N 0.07767(12) 0.6229(5) 0.29731(16)
O1 O 0.01244(11) 0.8131(5) 0.32295(15)
H5 H -0.023(2) 0.764(8) 0.268(3)
C8 C 0.32022(14) -0.0851(6) 0.19032(18)
H6 H 0.2799 -0.1233 0.1408
N2 N 0.38763(13) -0.2266(5) 0.18277(16)
O2 O 0.38904(12) -0.4282(5) 0.09840(14)
H7 H 0.436(2) -0.525(8) 0.110(3)
C9 C 0.40652(15) 0.4846(6) 0.50146(18)
H8 H 0.4564 0.3786 0.4977
N3 N 0.39488(13) 0.6882(6) 0.57091(17)
O3 O 0.46436(12) 0.7300(5) 0.63027(15)
H9 H 0.447(2) 0.857(9) 0.688(3)
C1 C 0.78988(14) 0.5150(6) 0.85713(18)
C2 C 0.77126(14) 0.7232(6) 0.77816(19)
H1 H 0.8101 0.7680 0.7273
C3 C 0.69601(14) 0.8654(6) 0.77371(18)
C4 C 0.63892(14) 0.7952(6) 0.84856(18)
H2 H 0.5875 0.8903 0.8457
C5 C 0.65675(14) 0.5873(6) 0.92709(17)
C6 C 0.73290(14) 0.4476(6) 0.93130(18)
H3 H 0.7455 0.3069 0.9849
C7 C 0.86688(15) 0.3494(6) 0.86379(19)
H4 H 0.8758 0.2152 0.9203
N1 N 0.92233(12) 0.3771(5) 0.79731(16)
O1 O 0.98756(11) 0.1869(5) 0.82295(15)
H5 H 1.023(2) 0.236(8) 0.768(3)
C8 C 0.67978(14) 1.0851(6) 0.69032(18)
H6 H 0.7201 1.1233 0.6408
N2 N 0.61237(13) 1.2266(5) 0.68277(16)
O2 O 0.61096(12) 1.4282(5) 0.59840(14)
H7 H 0.564(2) 1.525(8) 0.610(3)
C9 C 0.59348(15) 0.5154(6) 1.00146(18)
H8 H 0.5436 0.6214 0.9977
N3 N 0.60512(13) 0.3118(6) 1.07091(17)
O3 O 0.53564(12) 0.2700(5) 1.13027(15)
H9 H 0.553(2) 0.143(9) 1.188(3)
C1 C 0.71012(14) 0.0150(6) 0.35713(18)
C2 C 0.72874(14) 0.2232(6) 0.27816(19)
H1 H 0.6899 0.2680 0.2273
C3 C 0.80399(14) 0.3654(6) 0.27371(18)
C4 C 0.86108(14) 0.2952(6) 0.34856(18)
H2 H 0.9125 0.3903 0.3457
C5 C 0.84325(14) 0.0873(6) 0.42709(17)
C6 C 0.76710(14) -0.0524(6) 0.43130(18)
H3 H 0.7545 -0.1931 0.4849
C7 C 0.63312(15) -0.1506(6) 0.36379(19)
H4 H 0.6242 -0.2848 0.4203
N1 N 0.57767(12) -0.1229(5) 0.29731(16)
O1 O 0.51244(11) -0.3131(5) 0.32295(15)
H5 H 0.477(2) -0.264(8) 0.268(3)
C8 C 0.82022(14) 0.5851(6) 0.19032(18)
H6 H 0.7799 0.6233 0.1408
N2 N 0.88763(13) 0.7266(5) 0.18277(16)
O2 O 0.88904(12) 0.9282(5) 0.09840(14)
H7 H 0.936(2) 1.025(8) 0.110(3)
C9 C 0.90652(15) 0.0154(6) 0.50146(18)
H8 H 0.9564 0.1214 0.4977
N3 N 0.89488(13) -0.1882(6) 0.57091(17)
O3 O 0.96436(12) -0.2300(5) 0.63027(15)
H9 H 0.947(2) -0.357(9) 0.688(3)
C1 C 0.28988(14) 0.9850(6) 0.85713(18)
C2 C 0.27126(14) 0.7768(6) 0.77816(19)
H1 H 0.3101 0.7320 0.7273
C3 C 0.19601(14) 0.6346(6) 0.77371(18)
C4 C 0.13892(14) 0.7048(6) 0.84856(18)
H2 H 0.0875 0.6097 0.8457
C5 C 0.15675(14) 0.9127(6) 0.92709(17)
C6 C 0.23290(14) 1.0524(6) 0.93130(18)
H3 H 0.2455 1.1931 0.9849
C7 C 0.36688(15) 1.1506(6) 0.86379(19)
H4 H 0.3758 1.2848 0.9203
N1 N 0.42233(12) 1.1229(5) 0.79731(16)
O1 O 0.48756(11) 1.3131(5) 0.82295(15)
H5 H 0.523(2) 1.264(8) 0.768(3)
C8 C 0.17978(14) 0.4149(6) 0.69032(18)
H6 H 0.2201 0.3767 0.6408
N2 N 0.11237(13) 0.2734(5) 0.68277(16)
O2 O 0.11096(12) 0.0718(5) 0.59840(14)
H7 H 0.064(2) -0.025(8) 0.610(3)
C9 C 0.09348(15) 0.9846(6) 1.00146(18)
H8 H 0.0436 0.8786 0.9977
N3 N 0.10512(13) 1.1882(6) 1.07091(17)
O3 O 0.03564(12) 1.2300(5) 1.13027(15)
H9 H 0.053(2) 1.357(9) 1.188(3)

#END
