./ADOVEU_from_POSCAR.cif_generated_by_CrystalShift
_symmetry_cell_setting triclinic
_symmetry_space_group_name_H-M 'P 1'
loop_
_symmetry_equiv_pos_site_id
_symmetry_equiv_pos_as_xyz
1 x,y,z
_cell_length_a 9.299000
_cell_length_b 9.299000
_cell_length_c 40.500000
_cell_angle_alpha 90.000000
_cell_angle_beta 90.000000
_cell_angle_gamma 90.000000
_cell_volume 3502.091740
loop_
_atom_site_label
_atom_site_type_symbol
_atom_site_fract_x
_atom_site_fract_y
_atom_site_fract_z
H1 H 0.165900 1.039060 0.886280
H2 H 0.329110 1.489730 0.922140
H3 H 0.322330 1.291850 0.959180
H4 H 0.685190 0.070890 0.323850
H5 H 0.573250 -0.051220 0.328930
H6 H 0.294230 1.046770 0.969450
H7 H 0.573970 0.086850 0.376260
H8 H 0.427240 0.112160 0.358780
H9 H 0.276640 0.940720 0.940200
H10 H 0.659850 0.300350 0.357760
H11 H 0.508480 0.334670 0.371830
H12 H 0.407630 0.813200 1.088890
H13 H 0.514050 0.557510 0.338280
H14 H 0.645200 0.827820 1.069340
H15 H 0.466380 0.666430 0.287720
H16 H 0.716630 1.026500 1.037070
H17 H 0.456090 0.527260 0.240090
H18 H 0.548210 1.200330 1.023280
H19 H 0.465460 0.275300 0.243590
H20 H 0.312780 1.185610 1.041430
H21 H 0.146780 1.083020 1.082180
H22 H 0.181790 0.939710 1.100040
H23 H 0.668510 0.012530 0.268680
H24 H -0.186590 0.835240 0.990740
H25 H -0.207330 0.995000 0.979600
H26 H -0.415290 0.943450 0.951950
H27 H -0.428540 0.835600 0.981490
H28 H 0.494780 0.016890 0.175400
H29 H -0.432740 0.723710 0.924930
H30 H 0.616180 -0.115320 0.134220
H31 H -0.331060 0.649450 0.950540
H32 H -0.247420 0.838350 0.900850
H33 H 0.795580 -0.365370 0.204470
H34 H -0.165710 0.699120 0.911850
H35 H 0.692700 -0.219550 0.246390
H36 H 0.031640 1.073710 0.965020
H37 H 0.110510 0.822130 0.996040
H38 H 0.258590 0.222150 0.299340
H39 H -0.013540 0.901790 1.065570
H40 H 0.098210 -0.013540 0.315570
H41 H 0.222150 0.741410 1.049340
H42 H -0.219550 0.307300 0.996390
H43 H 0.177870 0.110510 0.246040
H44 H -0.365370 0.204420 0.954470
H45 H -0.073710 0.031640 0.215020
H46 H -0.115320 0.383820 0.884220
H47 H 0.016890 0.505220 0.925400
H48 H 0.012530 0.331490 1.018680
H49 H 0.300880 -0.165710 0.161850
H50 H 0.161650 -0.247420 0.150850
H51 H 0.275300 0.534540 0.993590
H52 H 0.350550 -0.331060 0.200540
H53 H 0.276290 -0.432740 0.174930
H54 H 0.527260 0.543910 0.990090
H55 H 0.164400 -0.428540 0.231490
H56 H 0.056550 -0.415290 0.201950
H57 H 0.666430 0.533620 1.037720
H58 H 0.005000 -0.207330 0.229600
H59 H 0.164760 -0.186590 0.240740
H60 H 0.557510 0.485950 1.088280
H61 H 0.334670 0.491520 1.121830
H62 H 0.300350 0.340150 1.107760
H63 H 0.060290 0.181790 0.350040
H64 H -0.083020 0.146780 0.332180
H65 H 0.112160 0.572760 1.108780
H66 H 0.086850 0.426030 1.126260
H67 H -0.185610 0.312780 0.291430
H68 H -0.051220 0.426750 1.078930
H69 H -0.200330 0.548210 0.273280
H70 H 0.070890 0.314810 1.073850
H71 H -0.026500 0.716630 0.287070
H72 H 1.039060 0.834100 0.636280
H73 H 0.172180 0.645200 0.319340
H74 H 1.233620 0.830460 0.600040
H75 H 0.186800 0.407630 0.338890
H76 H 1.456010 0.746660 0.616980
H77 H 0.059280 0.276640 0.190200
H78 H -0.046770 0.294230 0.219450
H79 H 1.489730 0.670890 0.672140
H80 H 1.291850 0.677670 0.709180
H81 H -0.291850 0.322330 0.209180
H82 H 1.046770 0.705770 0.719450
H83 H -0.489730 0.329110 0.172140
H84 H 0.940720 0.723360 0.690200
H85 H -0.456010 0.253340 0.116980
H86 H 0.813200 0.592370 0.838890
H87 H -0.233620 0.169540 0.100040
H88 H 0.827820 0.354800 0.819340
H89 H -0.039060 0.165900 0.136280
H90 H 1.026500 0.283370 0.787070
H91 H 1.200330 0.451790 0.773280
H92 H 1.185610 0.687220 0.791430
H93 H 1.083020 0.853220 0.832180
H94 H 0.929110 0.685190 0.573850
H95 H 1.051220 0.573250 0.578930
H96 H 0.939710 0.818210 0.850040
H97 H 0.913150 0.573970 0.626260
H98 H 0.887840 0.427240 0.608780
H99 H 0.835240 1.186590 0.740740
H100 H 0.699650 0.659850 0.607760
H101 H 0.665330 0.508480 0.621830
H102 H 0.995000 1.207330 0.729600
H103 H 0.442490 0.514050 0.588280
H104 H 0.943450 1.415290 0.701950
H105 H 0.333570 0.466380 0.537720
H106 H 0.835600 1.428540 0.731490
H107 H 0.472740 0.456090 0.490090
H108 H 0.723710 1.432740 0.674930
H109 H 0.724700 0.465460 0.493590
H110 H 0.649450 1.331060 0.700540
H111 H 0.838350 1.247420 0.650850
H112 H 0.699120 1.165710 0.661850
H113 H 0.987470 0.668510 0.518680
H114 H 1.073710 0.968360 0.715020
H115 H 0.822130 0.889490 0.746040
H116 H 0.901790 1.013540 0.815570
H117 H 0.741410 0.777850 0.799340
H118 H 0.983110 0.494780 0.425400
H119 H 0.307300 1.219550 0.746390
H120 H 1.115320 0.616180 0.384220
H121 H 0.204420 1.365370 0.704470
H122 H 0.383820 1.115320 0.634220
H123 H 1.365370 0.795580 0.454470
H124 H 0.505220 0.983110 0.675400
H125 H 1.219550 0.692700 0.496390
H126 H 0.331490 0.987470 0.768680
H127 H 0.534540 0.724700 0.743590
H128 H 0.777850 0.258590 0.549340
H129 H 0.543910 0.472740 0.740090
H130 H 1.013540 0.098210 0.565570
H131 H 0.533620 0.333570 0.787720
H132 H 0.485950 0.442490 0.838280
H133 H 0.889490 0.177870 0.496040
H134 H 0.491520 0.665330 0.871830
H135 H 0.968360 -0.073710 0.465020
H136 H 0.340150 0.699650 0.857760
H137 H 0.572760 0.887840 0.858780
H138 H 0.426030 0.913150 0.876260
H139 H 1.165710 0.300880 0.411850
H140 H 1.247420 0.161650 0.400850
H141 H 0.426750 1.051220 0.828930
H142 H 1.331060 0.350550 0.450540
H143 H 1.432740 0.276290 0.424930
H144 H 0.314810 0.929110 0.823850
H145 H 1.428540 0.164400 0.481490
H146 H 1.415290 0.056550 0.451950
H147 H 0.169540 1.233620 0.850040
H148 H 1.207330 0.005000 0.479600
H149 H 1.186590 0.164760 0.490740
H150 H 0.834100 -0.039060 0.386280
H151 H 0.253340 1.456010 0.866980
H152 H 0.830460 -0.233620 0.350040
H153 H 0.818210 0.060290 0.600040
H154 H 0.853220 -0.083020 0.582180
H155 H 0.746660 -0.456010 0.366980
H156 H 0.670890 -0.489730 0.422140
H157 H 0.687220 -0.185610 0.541430
H158 H 0.677670 -0.291850 0.459180
H159 H 0.451790 -0.200330 0.523280
H160 H 0.705770 -0.046770 0.469450
H161 H 0.283370 -0.026500 0.537070
H162 H 0.723360 0.059280 0.440200
H163 H 0.354800 0.172180 0.569340
H164 H 0.592370 0.186800 0.588890
C165 C 0.564300 0.108370 0.574890
C166 C 0.764120 -0.024050 0.450600
C167 C 0.422850 0.098560 0.563680
C168 C 0.380890 -0.018290 0.544620
C169 C 0.758360 -0.147290 0.426660
C170 C 0.709590 -0.279650 0.436810
C171 C 0.479990 -0.120670 0.536900
C172 C 0.702820 -0.396670 0.414960
C173 C 0.619860 -0.111660 0.547290
C174 C 0.750000 -0.377840 0.382440
C175 C 0.664760 0.003890 0.566650
C176 C 0.798650 -0.246910 0.372380
C177 C 0.817860 0.012960 0.578970
C178 C 0.250000 1.377840 0.882440
C179 C 0.503680 0.100720 0.295420
C180 C 0.297180 1.396670 0.914960
C181 C 1.217570 0.103640 0.473010
C182 C 0.496320 0.899280 0.795420
C183 C 0.415460 0.949180 0.826420
C184 C 1.371230 0.137080 0.462800
C185 C 1.349920 0.262990 0.438750
C186 C 0.470850 0.873390 0.856960
C187 C 1.219680 0.219340 0.419450
C188 C 0.584540 0.050820 0.326420
C189 C 0.441300 0.714490 0.854470
C190 C 0.995800 0.110750 0.437680
C191 C 0.915240 0.014230 0.462700
C192 C 0.495360 0.501440 0.818940
C193 C 0.290410 1.279650 0.936810
C194 C 0.522180 0.436030 0.788950
C195 C 0.937200 0.011340 0.522670
C196 C 0.532260 0.518410 0.761180
C197 C 0.920380 0.094160 0.555400
C198 C 0.522720 0.666990 0.763060
C199 C 0.241640 1.147290 0.926660
C200 C 0.482360 0.649610 0.821720
C201 C 0.498350 0.735280 0.793310
C202 C 0.529150 0.126610 0.356960
C203 C 0.966820 0.350570 0.548060
C204 C 0.496160 0.999080 0.738950
C205 C 0.558700 0.285510 0.354470
C206 C 0.415820 1.086630 0.714360
C207 C 0.439200 1.058120 0.681360
C208 C 1.200050 0.674940 0.473470
C209 C 0.370260 1.136910 0.657190
C210 C 1.282570 0.738710 0.449000
C211 C 0.282580 1.248090 0.666470
C212 C 0.261290 1.282570 0.699000
C213 C 1.248090 0.717420 0.416470
C214 C 0.325060 1.200050 0.723470
C215 C 1.136910 0.629740 0.407190
C216 C 0.649430 0.966820 0.798060
C217 C 0.235880 1.024050 0.950600
C218 C 1.058120 0.560800 0.431360
C219 C 0.905840 0.920380 0.805400
C220 C 1.086630 0.584180 0.464360
C221 C 0.988660 0.937200 0.772670
C222 C 0.504640 0.498560 0.318940
C223 C 0.435700 0.891630 1.074890
C224 C 0.985770 0.915240 0.712700
C225 C 0.999080 0.503840 0.488950
C226 C 0.889250 0.995800 0.687680
C227 C 0.477820 0.563970 0.288950
C228 C 0.780660 1.219680 0.669450
C229 C 0.577150 0.901440 1.063680
C230 C 0.735280 0.501650 0.543310
C231 C 0.737010 1.349920 0.688750
C232 C 0.649610 0.517640 0.571720
C233 C 0.666990 0.477280 0.513060
C234 C 0.862920 1.371230 0.712800
C235 C 0.518410 0.467740 0.511180
C236 C 0.436030 0.477820 0.538950
C237 C 0.896360 1.217570 0.723010
C238 C 0.501440 0.504640 0.568940
C239 C 0.714490 0.558700 0.604470
C240 C 0.467740 0.481590 0.261180
C241 C 0.619110 1.018290 1.044620
C242 C 0.987040 0.817860 0.828970
C243 C 0.873390 0.529150 0.606960
C244 C 0.949180 0.584540 0.576420
C245 C 0.996110 0.664760 0.816650
C246 C 1.111660 0.619860 0.797290
C247 C 0.899280 0.503680 0.545420
C248 C 1.120670 0.479990 0.786900
C249 C 0.198290 1.131430 0.893820
C250 C 1.018290 0.380890 0.794620
C251 C 0.477280 0.333010 0.263060
C252 C 0.901440 0.422850 0.813680
C253 C -0.131430 0.198290 0.143820
C254 C 0.891630 0.564300 0.824890
C255 C -0.246910 0.201350 0.122380
C256 C 1.024050 0.764120 0.700600
C257 C -0.377840 0.250000 0.132440
C258 C -0.396670 0.297180 0.164960
C259 C 1.147290 0.758360 0.676660
C260 C 1.279650 0.709590 0.686810
C261 C -0.279650 0.290410 0.186810
C262 C 1.396670 0.702820 0.664960
C263 C -0.147290 0.241640 0.176660
C264 C 1.377840 0.750000 0.632440
C265 C -0.024050 0.235880 0.200600
C266 C 1.246910 0.798650 0.622380
C267 C 0.108370 0.435700 0.324890
C268 C 1.131430 0.801710 0.643820
C269 C 0.098560 0.577150 0.313680
C270 C 0.520010 1.120670 1.036900
C271 C 0.201350 1.246910 0.872380
C272 C 0.100720 0.496320 1.045420
C273 C 0.050820 0.415460 1.076420
C274 C -0.018290 0.619110 0.294620
C275 C -0.120670 0.520010 0.286900
C276 C 0.126610 0.470850 1.106960
C277 C -0.111660 0.380140 0.297290
C278 C 0.003890 0.335240 0.316650
C279 C 0.285510 0.441300 1.104470
C280 C 0.012960 0.182140 0.328970
C281 C 0.517640 0.350390 0.321720
C282 C 0.498560 0.495360 1.068940
C283 C 0.380140 1.111660 1.047290
C284 C 0.563970 0.522180 1.038950
C285 C 0.103640 -0.217570 0.223010
C286 C 0.481590 0.532260 1.011180
C287 C 0.137080 -0.371230 0.212800
C288 C 0.333010 0.522720 1.013060
C289 C 0.262990 -0.349920 0.188750
C290 C 0.350390 0.482360 1.071720
C291 C 0.264720 0.498350 1.043310
C292 C 0.335240 0.996110 1.066650
C293 C 0.219340 -0.219680 0.169450
C294 C 0.000920 0.496160 0.988950
C295 C 0.501650 0.264720 0.293310
C296 C -0.086630 0.415820 0.964360
C297 C -0.058120 0.439200 0.931360
C298 C 0.182140 0.987040 1.078970
C299 C -0.136910 0.370260 0.907190
C300 C 0.110750 0.004200 0.187680
C301 C -0.248090 0.282580 0.916470
C302 C -0.282570 0.261290 0.949000
C303 C 0.014230 0.084760 0.212700
C304 C -0.200050 0.325060 0.973470
C305 C 0.503840 0.000920 0.238950
C306 C 0.033180 0.649430 1.048060
C307 C -0.217570 0.896360 0.973010
C308 C 0.011340 0.062800 0.272670
C309 C 0.079620 0.905840 1.055400
C310 C 0.094160 0.079620 0.305400
C311 C 0.062800 0.988660 1.022670
C312 C 0.584180 -0.086630 0.214360
C313 C 0.560800 -0.058120 0.181360
C314 C 0.084760 0.985770 0.962700
C315 C 0.350570 0.033180 0.298060
C316 C 0.004200 0.889250 0.937680
C317 C -0.371230 0.862920 0.962800
C318 C -0.219680 0.780660 0.919450
C319 C 0.674940 -0.200050 0.223470
C320 C 0.738710 -0.282570 0.199000
C321 C -0.349920 0.737010 0.938750
C322 C 0.717420 -0.248090 0.166470
C323 C 0.629740 -0.136910 0.157190
C324 C 0.801710 -0.131430 0.393820
N325 N 0.240520 0.127320 0.300940
N326 N 0.089760 0.916540 0.994910
N327 N 0.127320 0.759480 1.050940
N328 N 1.135310 0.133770 0.443040
N329 N 0.083460 0.089760 0.244910
N330 N 0.910240 0.083460 0.494910
N331 N 0.872680 0.240520 0.550940
N332 N 0.133770 -0.135310 0.193040
N333 N 0.574320 0.033720 0.267100
N334 N 0.425680 0.966280 0.767100
N335 N 0.033720 0.425680 1.017100
N336 N 0.759480 0.872680 0.800940
N337 N 0.916540 0.910240 0.744910
N338 N 0.866230 1.135310 0.693040
N339 N 0.966280 0.574320 0.517100
N340 N -0.135310 0.866230 0.943040
O341 O 0.665490 1.095080 0.799300
O342 O 0.158960 0.066920 0.163260
O343 O 0.841040 0.933080 0.663260
O344 O 0.960260 0.380940 0.483120
O345 O -0.115010 0.026860 0.273640
O346 O 0.334510 -0.095080 0.299300
O347 O 0.619060 0.960260 0.733120
O348 O 0.039740 0.619060 0.983120
O349 O 0.026860 1.115010 1.023640
O350 O -0.095080 0.665490 1.049300
O351 O 0.380940 0.039740 0.233120
O352 O 0.933080 0.158960 0.413260
O353 O 1.095080 0.334510 0.549300
O354 O 0.973140 -0.115010 0.523640
O355 O 1.115010 0.973140 0.773640
O356 O 0.066920 0.841040 0.913260
Br357 Br 1.357110 0.810410 0.383350
Br358 Br 0.189590 1.357110 0.633350
Br359 Br -0.357110 0.189590 0.883350
Br360 Br 0.810410 -0.357110 0.133350

#END
