./ADUGOX_from_POSCAR.cif_generated_by_CrystalShift
_symmetry_cell_setting triclinic
_symmetry_space_group_name_H-M 'P 1'
loop_
_symmetry_equiv_pos_site_id
_symmetry_equiv_pos_as_xyz
1 x,y,z
_cell_length_a 7.547000
_cell_length_b 10.967000
_cell_length_c 15.050000
_cell_angle_alpha 90.000000
_cell_angle_beta 101.150000
_cell_angle_gamma 90.000000
_cell_volume 1222.144952
loop_
_atom_site_label
_atom_site_type_symbol
_atom_site_fract_x
_atom_site_fract_y
_atom_site_fract_z
H1 H 0.651500 0.189900 0.752800
H2 H 0.401800 0.266900 0.802100
H3 H 0.250000 0.434400 0.731800
H4 H 0.347100 0.524800 0.609900
H5 H 0.596000 0.446500 0.559900
H6 H 1.034600 0.296500 0.378900
H7 H 1.162100 0.384000 0.444600
H8 H 0.962100 0.364600 0.456300
H9 H 1.386000 0.205200 0.491000
H10 H 1.034100 0.460300 0.210000
H11 H 1.124800 0.569900 0.169000
H12 H 1.244500 0.475700 0.232300
H13 H 1.256900 0.113500 0.428300
H14 H 1.419700 0.427100 0.104600
H15 H 1.298600 0.521400 0.040400
H16 H 1.298600 -0.021400 0.540400
H17 H 1.256900 0.386500 -0.071700
H18 H 1.386000 0.294800 -0.009000
H19 H 1.419700 0.072900 0.604600
H20 H 0.962100 0.135400 -0.043700
H21 H 1.162100 0.116000 -0.055400
H22 H 1.034600 0.203500 -0.121100
H23 H 1.244500 0.024300 0.732300
H24 H 1.124800 -0.069900 0.669000
H25 H 0.596000 0.053500 0.059900
H26 H 1.034100 0.039700 0.710000
H27 H 0.347100 -0.024800 0.109900
H28 H 0.348500 0.689900 0.747200
H29 H 0.250000 0.065600 0.231800
H30 H 0.598200 0.766900 0.697900
H31 H 0.401800 0.233100 0.302100
H32 H 0.750000 0.934400 0.768200
H33 H 0.651500 0.310100 0.252800
H34 H 0.652900 1.024800 0.890100
H35 H 0.404000 0.946500 0.940100
H36 H -0.034600 0.796500 1.121100
H37 H -0.162100 0.884000 1.055400
H38 H 0.037900 0.864600 1.043700
H39 H -0.386000 0.705200 1.009000
H40 H -0.256900 0.613500 1.071700
H41 H -0.298600 0.478600 0.959600
H42 H -0.419700 0.572900 0.895400
H43 H -0.034100 0.960300 0.290000
H44 H -0.124800 1.069900 0.331000
H45 H -0.244500 0.975700 0.267700
H46 H -0.244500 0.524300 0.767700
H47 H -0.419700 0.927100 0.395400
H48 H -0.298600 1.021400 0.459600
H49 H -0.124800 0.430100 0.831000
H50 H -0.256900 0.886500 0.571700
H51 H -0.386000 0.794800 0.509000
H52 H -0.034100 0.539700 0.790000
H53 H 0.037900 0.635400 0.543700
H54 H -0.162100 0.616000 0.555400
H55 H -0.034600 0.703500 0.621100
H56 H 0.348500 0.810100 0.247200
H57 H 0.598200 0.733100 0.197900
H58 H 0.404000 0.553500 0.440100
H59 H 0.750000 0.565600 0.268200
H60 H 0.652900 0.475200 0.390100
C61 C 0.650300 0.596600 0.288520
C62 C 0.592200 0.542600 0.361430
C63 C 0.559200 0.696600 0.246520
C64 C 0.442400 0.589870 0.391350
C65 C 0.409300 0.743110 0.276360
C66 C 0.349380 0.690490 0.349550
C67 C 0.440800 0.303400 0.753480
C68 C 0.349700 0.403400 0.711480
C69 C 0.407800 0.457400 0.638570
C70 C 0.557600 0.410130 0.608650
C71 C 0.650620 0.309510 0.650450
C72 C 1.056800 0.316990 0.071060
C73 C 1.065500 0.326020 0.440010
C74 C -0.056800 0.683010 0.928940
C75 C -0.137700 0.514330 0.813460
C76 C -0.065500 0.673980 0.559990
C77 C -0.280300 0.846350 0.513170
C78 C -0.305100 0.938650 0.436550
C79 C -0.305100 0.561350 0.936550
C80 C -0.137700 0.985670 0.313460
C81 C -0.056800 0.816990 0.428940
C82 C -0.280300 0.653650 1.013170
C83 C 1.137700 0.485670 0.186540
C84 C 1.305100 0.438650 0.063450
C85 C -0.065500 0.826020 1.059990
C86 C 1.280300 0.153650 0.486830
C87 C 1.280300 0.346350 -0.013170
C88 C 1.065500 0.173980 -0.059990
C89 C 0.349380 0.809510 0.849550
C90 C 0.442400 0.910130 0.891350
C91 C 1.305100 0.061350 0.563450
C92 C 0.592200 0.957400 0.861430
C93 C 0.650620 0.190490 0.150450
C94 C 0.650300 0.903400 0.788520
C95 C 0.590700 0.243110 0.223640
C96 C 0.559200 0.803400 0.746520
C97 C 0.440800 0.196600 0.253480
C98 C 0.409300 0.756890 0.776360
C99 C 0.349700 0.096600 0.211480
C100 C 0.557600 0.089870 0.108650
C101 C 0.407800 0.042600 0.138570
C102 C 1.137700 0.014330 0.686540
C103 C 1.056800 0.183010 0.571060
C104 C 0.590700 0.256890 0.723640
N105 N 1.152630 0.088330 0.608100
N106 N 1.122700 0.224450 0.500960
N107 N 1.152630 0.411670 0.108100
N108 N 1.122700 0.275550 0.000960
N109 N -0.152630 0.588330 0.891900
N110 N -0.122700 0.724450 0.999040
N111 N -0.122700 0.775550 0.499040
N112 N -0.152630 0.911670 0.391900
F113 F 0.032730 0.757830 0.285550
F114 F 0.254360 0.749440 0.494720
F115 F 0.069840 0.615370 0.399480
F116 F 0.218410 0.892200 0.380630
F117 F 0.781590 0.392200 0.119370
F118 F 0.967270 0.257830 0.214450
F119 F 0.781590 0.107800 0.619370
F120 F 0.967270 0.242170 0.714450
F121 F 0.745640 0.250560 0.505280
F122 F 0.069840 0.884630 0.899480
F123 F 0.254360 0.750560 0.994720
F124 F 0.930160 0.115370 0.100520
F125 F 0.032730 0.742170 0.785550
F126 F 0.745640 0.249440 0.005280
F127 F 0.218410 0.607800 0.880630
F128 F 0.930160 0.384630 0.600520
P129 P 0.149790 0.751340 0.388520
P130 P 0.149790 0.748660 0.888520
P131 P 0.850210 0.248660 0.611480
P132 P 0.850210 0.251340 0.111480

#END
