
#######################################################################
#
#                 Cambridge Crystallographic Data Centre
#                                CCDC 
#
#######################################################################
#
# If this CIF has been generated from an entry in the Cambridge 
# Structural Database, then it will include bibliographic, chemical, 
# crystal, experimental, refinement or atomic coordinate data resulting 
# from the CCDC's data processing and validation procedures.
#
#######################################################################

data_ABPZCU
_symmetry_cell_setting           monoclinic
_symmetry_space_group_name_H-M   'C 2/c'
_symmetry_Int_Tables_number      15
_space_group_name_Hall           '-C 2yn'
loop_
_symmetry_equiv_pos_site_id
_symmetry_equiv_pos_as_xyz
1 x,y,z
2 1/2+x,1/2+y,z
3 -x,y,1/2-z
4 1/2-x,1/2+y,1/2-z
5 -x,-y,-z
6 1/2-x,1/2-y,-z
7 x,-y,1/2+z
8 1/2+x,1/2-y,1/2+z
_cell_length_a                   15.136
_cell_length_b                   12.464
_cell_length_c                   6.999
_cell_angle_alpha                90
_cell_angle_beta                 105.97
_cell_angle_gamma                90
_cell_volume                     1269.44
loop_
_atom_site_label
_atom_site_type_symbol
_atom_site_fract_x
_atom_site_fract_y
_atom_site_fract_z
Cu1 Cu 1.00000 0.22540 0.25000
C1 C 1.05060 0.44330 0.26100
C2 C 1.17970 0.34060 0.29800
C3 C 1.23620 0.42600 0.31400
C4 C 1.19580 0.52900 0.30500
C5 C 1.10290 0.53830 0.27900
N1 N 1.08830 0.34780 0.27400
O1 O 1.07460 0.08390 0.86900
O2 O 1.03410 0.21850 0.61100
O3 O 1.09420 0.11660 0.24500
S1 S 1.00000 0.15440 0.75000
C1B C 0.94940 0.44330 0.23900
C5B C 0.89710 0.53830 0.22100
C4B C 0.80420 0.52900 0.19500
C3B C 0.76380 0.42600 0.18600
C2B C 0.82030 0.34060 0.20200
N1B N 0.91170 0.34780 0.22600
O1B O 0.92540 0.08390 0.63100
O2B O 0.96590 0.21850 0.88900
O3B O 0.90580 0.11660 0.25500
O2B O 0.96590 0.21850 -0.11100
Cu1 Cu 1.00000 0.22540 1.25000
Cu1 Cu 0.50000 0.72540 0.25000
C1 C 0.55060 0.94330 0.26100
C2 C 0.67970 0.84060 0.29800
C3 C 0.73620 0.92600 0.31400
C4 C 0.69580 1.02900 0.30500
C5 C 0.60290 1.03830 0.27900
N1 N 0.58830 0.84780 0.27400
O1 O 0.57460 0.58390 0.86900
O2 O 0.53410 0.71850 0.61100
O3 O 0.59420 0.61660 0.24500
S1 S 0.50000 0.65440 0.75000
C1B C 0.44940 0.94330 0.23900
C5B C 0.39710 1.03830 0.22100
C4B C 0.30420 1.02900 0.19500
C3B C 0.26380 0.92600 0.18600
C2B C 0.32030 0.84060 0.20200
N1B N 0.41170 0.84780 0.22600
O1B O 0.42540 0.58390 0.63100
O2B O 0.46590 0.71850 0.88900
O3B O 0.40580 0.61660 0.25500
O2B O 0.46590 0.71850 -0.11100
Cu1 Cu 0.50000 0.72540 1.25000
O1 O 0.42540 0.58390 -0.36900
S1 S 0.50000 0.65440 -0.25000
O1B O 0.57460 0.58390 -0.13100
O2B O 0.53410 0.71850 -0.38900
Cu1 Cu 0.50000 0.72540 -0.75000
Cu1 Cu 0.00000 0.22540 0.25000
C1 C -0.05060 0.44330 0.23900
C2 C -0.17970 0.34060 0.20200
C3 C -0.23620 0.42600 0.18600
C4 C -0.19580 0.52900 0.19500
C5 C -0.10290 0.53830 0.22100
N1 N -0.08830 0.34780 0.22600
O1 O -0.07460 0.08390 -0.36900
O2 O -0.03410 0.21850 -0.11100
O3 O -0.09420 0.11660 0.25500
S1 S 0.00000 0.15440 -0.25000
C1B C 0.05060 0.44330 0.26100
C5B C 0.10290 0.53830 0.27900
C4B C 0.19580 0.52900 0.30500
C3B C 0.23620 0.42600 0.31400
C2B C 0.17970 0.34060 0.29800
N1B N 0.08830 0.34780 0.27400
O1B O 0.07460 0.08390 -0.13100
O2B O 0.03410 0.21850 -0.38900
O3B O 0.09420 0.11660 0.24500
O2B O 0.03410 0.21850 0.61100
Cu1 Cu 0.00000 0.22540 -0.75000
Cu1 Cu 0.00000 0.77460 0.75000
C1 C -0.05060 0.55670 0.73900
C2 C -0.17970 0.65940 0.70200
C3 C -0.23620 0.57400 0.68600
C4 C -0.19580 0.47100 0.69500
C5 C -0.10290 0.46170 0.72100
N1 N -0.08830 0.65220 0.72600
O1 O -0.07460 0.91610 0.13100
O2 O -0.03410 0.78150 0.38900
O3 O -0.09420 0.88340 0.75500
S1 S 0.00000 0.84560 0.25000
C1B C 0.05060 0.55670 0.76100
C5B C 0.10290 0.46170 0.77900
C4B C 0.19580 0.47100 0.80500
C3B C 0.23620 0.57400 0.81400
C2B C 0.17970 0.65940 0.79800
N1B N 0.08830 0.65220 0.77400
O1B O 0.07460 0.91610 0.36900
O2B O 0.03410 0.78150 0.11100
O3B O 0.09420 0.88340 0.74500
O2B O 0.03410 0.78150 1.11100
Cu1 Cu 0.00000 0.77460 -0.25000
Cu1 Cu 0.50000 0.27460 0.75000
C1 C 0.44940 0.05670 0.73900
C2 C 0.32030 0.15940 0.70200
C3 C 0.26380 0.07400 0.68600
C4 C 0.30420 -0.02900 0.69500
C5 C 0.39710 -0.03830 0.72100
N1 N 0.41170 0.15220 0.72600
O1 O 0.42540 0.41610 0.13100
O2 O 0.46590 0.28150 0.38900
O3 O 0.40580 0.38340 0.75500
S1 S 0.50000 0.34560 0.25000
C1B C 0.55060 0.05670 0.76100
C5B C 0.60290 -0.03830 0.77900
C4B C 0.69580 -0.02900 0.80500
C3B C 0.73620 0.07400 0.81400
C2B C 0.67970 0.15940 0.79800
N1B N 0.58830 0.15220 0.77400
O1B O 0.57460 0.41610 0.36900
O2B O 0.53410 0.28150 0.11100
O3B O 0.59420 0.38340 0.74500
O2B O 0.53410 0.28150 1.11100
Cu1 Cu 0.50000 0.27460 -0.25000
O1 O 0.57460 0.41610 1.36900
S1 S 0.50000 0.34560 1.25000
O1B O 0.42540 0.41610 1.13100
O2B O 0.46590 0.28150 1.38900
Cu1 Cu 0.50000 0.27460 1.75000
Cu1 Cu 1.00000 0.77460 0.75000
C1 C 1.05060 0.55670 0.76100
C2 C 1.17970 0.65940 0.79800
C3 C 1.23620 0.57400 0.81400
C4 C 1.19580 0.47100 0.80500
C5 C 1.10290 0.46170 0.77900
N1 N 1.08830 0.65220 0.77400
O1 O 1.07460 0.91610 1.36900
O2 O 1.03410 0.78150 1.11100
O3 O 1.09420 0.88340 0.74500
S1 S 1.00000 0.84560 1.25000
C1B C 0.94940 0.55670 0.73900
C5B C 0.89710 0.46170 0.72100
C4B C 0.80420 0.47100 0.69500
C3B C 0.76380 0.57400 0.68600
C2B C 0.82030 0.65940 0.70200
N1B N 0.91170 0.65220 0.72600
O1B O 0.92540 0.91610 1.13100
O2B O 0.96590 0.78150 1.38900
O3B O 0.90580 0.88340 0.75500
O2B O 0.96590 0.78150 0.38900
Cu1 Cu 1.00000 0.77460 1.75000

#END
