
#######################################################################
#
#                 Cambridge Crystallographic Data Centre
#                                CCDC 
#
#######################################################################
#
# If this CIF has been generated from an entry in the Cambridge 
# Structural Database, then it will include bibliographic, chemical, 
# crystal, experimental, refinement or atomic coordinate data resulting 
# from the CCDC's data processing and validation procedures.
#
#######################################################################

data_ABPZCU02
_symmetry_cell_setting           monoclinic
_symmetry_space_group_name_H-M   'C 2/c'
_symmetry_Int_Tables_number      15
_space_group_name_Hall           '-C 2yn'
loop_
_symmetry_equiv_pos_site_id
_symmetry_equiv_pos_as_xyz
1 x,y,z
2 1/2+x,1/2+y,z
3 -x,y,1/2-z
4 1/2-x,1/2+y,1/2-z
5 -x,-y,-z
6 1/2-x,1/2-y,-z
7 x,-y,1/2+z
8 1/2+x,1/2-y,1/2+z
_cell_length_a                   15.125(3)
_cell_length_b                   12.442(3)
_cell_length_c                   6.9920(14)
_cell_angle_alpha                90
_cell_angle_beta                 105.94(3)
_cell_angle_gamma                90
_cell_volume                     1265.2
loop_
_atom_site_label
_atom_site_type_symbol
_atom_site_fract_x
_atom_site_fract_y
_atom_site_fract_z
Cu1 Cu 0.5000 0.27438(2) 0.7500
O1 O 0.40555(11) 0.38319(12) 0.7526(2)
N1 N 0.58794(11) 0.15265(13) 0.7718(3)
C1 C 0.67871(15) 0.16125(18) 0.7963(3)
H1 H 0.7045 0.2295 0.8026
C2 C 0.73520(15) 0.0731(2) 0.8125(4)
H2 H 0.7980 0.0812 0.8291
C3 C 0.69626(17) -0.02798(19) 0.8034(4)
H3 H 0.7330 -0.0889 0.8148
C4 C 0.60263(17) -0.03842(17) 0.7772(4)
H4 H 0.5756 -0.1060 0.7697
C5 C 0.55013(13) 0.05400(15) 0.7625(3)
S1 S 0.5000 0.34601(5) 1.2500
O2 O 0.53483(15) 0.27996(13) 1.1136(3)
O3 O 0.42510(11) 0.41618(12) 1.1312(2)
H5 H 0.411(2) 0.432(3) 0.711(5)
H6 H 0.411(2) 0.392(2) 0.877(5)
C5B C 0.44987(13) 0.05400(15) 0.7375(3)
N1B N 0.41206(11) 0.15265(13) 0.7282(3)
C1B C 0.32129(15) 0.16125(18) 0.7037(3)
H1B H 0.2955 0.2295 0.6974
C2B C 0.26480(15) 0.0731(2) 0.6875(4)
H2B H 0.2020 0.0812 0.6709
C3B C 0.30374(17) -0.02798(19) 0.6966(4)
H3B H 0.2670 -0.0889 0.6852
C4B C 0.39737(17) -0.03842(17) 0.7228(4)
H4B H 0.4244 -0.1060 0.7303
O2B O 0.46517(15) 0.27996(13) 1.3864(3)
O3B O 0.57490(11) 0.41618(12) 1.3688(2)
O1B O 0.59445(11) 0.38319(12) 0.7474(2)
H5B H 0.589(2) 0.432(3) 0.789(5)
H6B H 0.589(2) 0.392(2) 0.623(5)
O2B O 0.46517(15) 0.27996(13) 0.3864(3)
Cu1 Cu 0.5000 0.27438(2) 1.7500
S1 S 0.5000 0.34601(5) 0.2500
O3 O 0.57490(11) 0.41618(12) 0.3688(2)
O2B O 0.53483(15) 0.27996(13) 0.1136(3)
O3B O 0.42510(11) 0.41618(12) 0.1312(2)
Cu1 Cu 0.5000 0.27438(2) -0.2500
Cu1 Cu 1.0000 0.77438(2) 0.7500
O1 O 0.90555(11) 0.88319(12) 0.7526(2)
N1 N 1.08794(11) 0.65265(13) 0.7718(3)
C1 C 1.17871(15) 0.66125(18) 0.7963(3)
H1 H 1.2045 0.7295 0.8026
C2 C 1.23520(15) 0.5731(2) 0.8125(4)
H2 H 1.2980 0.5812 0.8291
C3 C 1.19626(17) 0.47202(19) 0.8034(4)
H3 H 1.2330 0.4111 0.8148
C4 C 1.10263(17) 0.46158(17) 0.7772(4)
H4 H 1.0756 0.3940 0.7697
C5 C 1.05013(13) 0.55400(15) 0.7625(3)
S1 S 1.0000 0.84601(5) 1.2500
O2 O 1.03483(15) 0.77996(13) 1.1136(3)
O3 O 0.92510(11) 0.91618(12) 1.1312(2)
H5 H 0.911(2) 0.932(3) 0.711(5)
H6 H 0.911(2) 0.892(2) 0.877(5)
C5B C 0.94987(13) 0.55400(15) 0.7375(3)
N1B N 0.91206(11) 0.65265(13) 0.7282(3)
C1B C 0.82129(15) 0.66125(18) 0.7037(3)
H1B H 0.7955 0.7295 0.6974
C2B C 0.76480(15) 0.5731(2) 0.6875(4)
H2B H 0.7020 0.5812 0.6709
C3B C 0.80374(17) 0.47202(19) 0.6966(4)
H3B H 0.7670 0.4111 0.6852
C4B C 0.89737(17) 0.46158(17) 0.7228(4)
H4B H 0.9244 0.3940 0.7303
O2B O 0.96517(15) 0.77996(13) 1.3864(3)
O3B O 1.07490(11) 0.91618(12) 1.3688(2)
O1B O 1.09445(11) 0.88319(12) 0.7474(2)
H5B H 1.089(2) 0.932(3) 0.789(5)
H6B H 1.089(2) 0.892(2) 0.623(5)
O2B O 0.96517(15) 0.77996(13) 0.3864(3)
Cu1 Cu 1.0000 0.77438(2) 1.7500
Cu1 Cu 0.0000 0.77438(2) 0.7500
O1 O 0.09445(11) 0.88319(12) 0.7474(2)
N1 N -0.08794(11) 0.65265(13) 0.7282(3)
C1 C -0.17871(15) 0.66125(18) 0.7037(3)
H1 H -0.2045 0.7295 0.6974
C2 C -0.23520(15) 0.5731(2) 0.6875(4)
H2 H -0.2980 0.5812 0.6709
C3 C -0.19626(17) 0.47202(19) 0.6966(4)
H3 H -0.2330 0.4111 0.6852
C4 C -0.10263(17) 0.46158(17) 0.7228(4)
H4 H -0.0756 0.3940 0.7303
C5 C -0.05013(13) 0.55400(15) 0.7375(3)
S1 S 0.0000 0.84601(5) 0.2500
O2 O -0.03483(15) 0.77996(13) 0.3864(3)
O3 O 0.07490(11) 0.91618(12) 0.3688(2)
H5 H 0.089(2) 0.932(3) 0.789(5)
H6 H 0.089(2) 0.892(2) 0.623(5)
C5B C 0.05013(13) 0.55400(15) 0.7625(3)
N1B N 0.08794(11) 0.65265(13) 0.7718(3)
C1B C 0.17871(15) 0.66125(18) 0.7963(3)
H1B H 0.2045 0.7295 0.8026
C2B C 0.23520(15) 0.5731(2) 0.8125(4)
H2B H 0.2980 0.5812 0.8291
C3B C 0.19626(17) 0.47202(19) 0.8034(4)
H3B H 0.2330 0.4111 0.8148
C4B C 0.10263(17) 0.46158(17) 0.7772(4)
H4B H 0.0756 0.3940 0.7697
O2B O 0.03483(15) 0.77996(13) 0.1136(3)
O3B O -0.07490(11) 0.91618(12) 0.1312(2)
O1B O -0.09445(11) 0.88319(12) 0.7526(2)
H5B H -0.089(2) 0.932(3) 0.711(5)
H6B H -0.089(2) 0.892(2) 0.877(5)
O2B O 0.03483(15) 0.77996(13) 1.1136(3)
Cu1 Cu 0.0000 0.77438(2) -0.2500
Cu1 Cu 0.5000 0.72562(2) 0.2500
O1 O 0.59445(11) 0.61681(12) 0.2474(2)
N1 N 0.41206(11) 0.84735(13) 0.2282(3)
C1 C 0.32129(15) 0.83875(18) 0.2037(3)
H1 H 0.2955 0.7705 0.1974
C2 C 0.26480(15) 0.9269(2) 0.1875(4)
H2 H 0.2020 0.9188 0.1709
C3 C 0.30374(17) 1.02798(19) 0.1966(4)
H3 H 0.2670 1.0889 0.1852
C4 C 0.39737(17) 1.03842(17) 0.2228(4)
H4 H 0.4244 1.1060 0.2303
C5 C 0.44987(13) 0.94600(15) 0.2375(3)
S1 S 0.5000 0.65399(5) -0.2500
O2 O 0.46517(15) 0.72004(13) -0.1136(3)
O3 O 0.57490(11) 0.58382(12) -0.1312(2)
H5 H 0.589(2) 0.568(3) 0.289(5)
H6 H 0.589(2) 0.608(2) 0.123(5)
C5B C 0.55013(13) 0.94600(15) 0.2625(3)
N1B N 0.58794(11) 0.84735(13) 0.2718(3)
C1B C 0.67871(15) 0.83875(18) 0.2963(3)
H1B H 0.7045 0.7705 0.3026
C2B C 0.73520(15) 0.9269(2) 0.3125(4)
H2B H 0.7980 0.9188 0.3291
C3B C 0.69626(17) 1.02798(19) 0.3034(4)
H3B H 0.7330 1.0889 0.3148
C4B C 0.60263(17) 1.03842(17) 0.2772(4)
H4B H 0.5756 1.1060 0.2697
O2B O 0.53483(15) 0.72004(13) -0.3864(3)
O3B O 0.42510(11) 0.58382(12) -0.3688(2)
O1B O 0.40555(11) 0.61681(12) 0.2526(2)
H5B H 0.411(2) 0.568(3) 0.211(5)
H6B H 0.411(2) 0.608(2) 0.377(5)
O2B O 0.53483(15) 0.72004(13) 0.6136(3)
Cu1 Cu 0.5000 0.72562(2) -0.7500
S1 S 0.5000 0.65399(5) 0.7500
O3 O 0.42510(11) 0.58382(12) 0.6312(2)
O2B O 0.46517(15) 0.72004(13) 0.8864(3)
O3B O 0.57490(11) 0.58382(12) 0.8688(2)
Cu1 Cu 0.5000 0.72562(2) 1.2500
Cu1 Cu 0.0000 0.22562(2) 0.2500
O1 O 0.09445(11) 0.11681(12) 0.2474(2)
N1 N -0.08794(11) 0.34735(13) 0.2282(3)
C1 C -0.17871(15) 0.33875(18) 0.2037(3)
H1 H -0.2045 0.2705 0.1974
C2 C -0.23520(15) 0.4269(2) 0.1875(4)
H2 H -0.2980 0.4188 0.1709
C3 C -0.19626(17) 0.52798(19) 0.1966(4)
H3 H -0.2330 0.5889 0.1852
C4 C -0.10263(17) 0.53842(17) 0.2228(4)
H4 H -0.0756 0.6060 0.2303
C5 C -0.05013(13) 0.44600(15) 0.2375(3)
S1 S 0.0000 0.15399(5) -0.2500
O2 O -0.03483(15) 0.22004(13) -0.1136(3)
O3 O 0.07490(11) 0.08382(12) -0.1312(2)
H5 H 0.089(2) 0.068(3) 0.289(5)
H6 H 0.089(2) 0.108(2) 0.123(5)
C5B C 0.05013(13) 0.44600(15) 0.2625(3)
N1B N 0.08794(11) 0.34735(13) 0.2718(3)
C1B C 0.17871(15) 0.33875(18) 0.2963(3)
H1B H 0.2045 0.2705 0.3026
C2B C 0.23520(15) 0.4269(2) 0.3125(4)
H2B H 0.2980 0.4188 0.3291
C3B C 0.19626(17) 0.52798(19) 0.3034(4)
H3B H 0.2330 0.5889 0.3148
C4B C 0.10263(17) 0.53842(17) 0.2772(4)
H4B H 0.0756 0.6060 0.2697
O2B O 0.03483(15) 0.22004(13) -0.3864(3)
O3B O -0.07490(11) 0.08382(12) -0.3688(2)
O1B O -0.09445(11) 0.11681(12) 0.2526(2)
H5B H -0.089(2) 0.068(3) 0.211(5)
H6B H -0.089(2) 0.108(2) 0.377(5)
O2B O 0.03483(15) 0.22004(13) 0.6136(3)
Cu1 Cu 0.0000 0.22562(2) -0.7500
Cu1 Cu 1.0000 0.22562(2) 0.2500
O1 O 0.90555(11) 0.11681(12) 0.2526(2)
N1 N 1.08794(11) 0.34735(13) 0.2718(3)
C1 C 1.17871(15) 0.33875(18) 0.2963(3)
H1 H 1.2045 0.2705 0.3026
C2 C 1.23520(15) 0.4269(2) 0.3125(4)
H2 H 1.2980 0.4188 0.3291
C3 C 1.19626(17) 0.52798(19) 0.3034(4)
H3 H 1.2330 0.5889 0.3148
C4 C 1.10263(17) 0.53842(17) 0.2772(4)
H4 H 1.0756 0.6060 0.2697
C5 C 1.05013(13) 0.44600(15) 0.2625(3)
S1 S 1.0000 0.15399(5) 0.7500
O2 O 1.03483(15) 0.22004(13) 0.6136(3)
O3 O 0.92510(11) 0.08382(12) 0.6312(2)
H5 H 0.911(2) 0.068(3) 0.211(5)
H6 H 0.911(2) 0.108(2) 0.377(5)
C5B C 0.94987(13) 0.44600(15) 0.2375(3)
N1B N 0.91206(11) 0.34735(13) 0.2282(3)
C1B C 0.82129(15) 0.33875(18) 0.2037(3)
H1B H 0.7955 0.2705 0.1974
C2B C 0.76480(15) 0.4269(2) 0.1875(4)
H2B H 0.7020 0.4188 0.1709
C3B C 0.80374(17) 0.52798(19) 0.1966(4)
H3B H 0.7670 0.5889 0.1852
C4B C 0.89737(17) 0.53842(17) 0.2228(4)
H4B H 0.9244 0.6060 0.2303
O2B O 0.96517(15) 0.22004(13) 0.8864(3)
O3B O 1.07490(11) 0.08382(12) 0.8688(2)
O1B O 1.09445(11) 0.11681(12) 0.2474(2)
H5B H 1.089(2) 0.068(3) 0.289(5)
H6B H 1.089(2) 0.108(2) 0.123(5)
O2B O 0.96517(15) 0.22004(13) -0.1136(3)
Cu1 Cu 1.0000 0.22562(2) 1.2500

#END
