./ABPZCU04_from_POSCAR.cif_generated_by_CrystalShift
_symmetry_cell_setting triclinic
_symmetry_space_group_name_H-M 'P 1'
loop_
_symmetry_equiv_pos_site_id
_symmetry_equiv_pos_as_xyz
1 x,y,z
_cell_length_a 6.963000
_cell_length_b 12.468600
_cell_length_c 14.854000
_cell_angle_alpha 90.000000
_cell_angle_beta 101.010000
_cell_angle_gamma 90.000000
_cell_volume 1265.870687
loop_
_atom_site_label
_atom_site_type_symbol
_atom_site_fract_x
_atom_site_fract_y
_atom_site_fract_z
C1 C 0.325250 0.461850 0.102700
C2 C 0.825250 0.538150 1.102700
C3 C 0.606800 0.527900 -0.196200
C4 C 0.578470 0.426670 -0.235030
C5 C 0.617550 0.338650 -0.178750
C6 C 0.712230 0.445820 -0.050330
C7 C 0.617550 0.161350 0.321250
C8 C 0.578470 0.073330 0.264970
C9 C 0.606800 -0.027900 0.303800
C10 C 0.674750 -0.038150 0.397300
C11 C 0.712230 0.054180 0.449670
C12 C 0.787770 0.445820 0.050330
C13 C 0.825250 0.538150 0.102700
C14 C 0.787770 0.054180 0.550330
C15 C 0.893200 0.527900 0.196200
C16 C 0.882450 0.161350 0.678750
C17 C 0.921530 0.073330 0.735030
C18 C 0.893200 -0.027900 0.696200
C19 C 0.825250 -0.038150 0.602700
C20 C 0.921530 0.426670 0.235030
C21 C 0.882450 0.338650 0.178750
C22 C 0.893200 0.527900 1.196200
C23 C 0.921530 0.426670 1.235030
C24 C 0.617550 0.338650 0.821250
C25 C 0.578470 0.426670 0.764970
C26 C 0.174750 1.038150 0.397300
C27 C 0.882450 0.338650 1.178750
C28 C 0.106800 1.027900 0.303800
C29 C 0.787770 0.445820 1.050330
C30 C 0.078470 0.926670 0.264970
C31 C 0.117550 0.838650 0.321250
C32 C 0.212230 0.945820 0.449670
C33 C 0.287770 0.945820 0.550330
C34 C 0.117550 0.661350 0.821250
C35 C 0.078470 0.573330 0.764970
C36 C 0.106800 0.472100 0.803800
C37 C 0.174750 0.461850 0.897300
C38 C 0.212230 0.554180 0.949670
C39 C 0.325250 1.038150 0.602700
C40 C 0.393200 1.027900 0.696200
C41 C 0.287770 0.554180 1.050330
C42 C 0.421530 0.926670 0.735030
C43 C 0.382450 0.661350 1.178750
C44 C 0.421530 0.573330 1.235030
C45 C 0.393200 0.472100 1.196200
C46 C 0.325250 0.461850 1.102700
C47 C 0.382450 0.838650 0.678750
C48 C 0.606800 0.527900 0.803800
C49 C 0.674750 0.538150 0.897300
C50 C 0.174750 0.461850 -0.102700
C51 C 0.712230 0.445820 0.949670
C52 C 0.106800 0.472100 -0.196200
C53 C 0.078470 0.573330 -0.235030
C54 C 0.117550 0.661350 -0.178750
C55 C 0.212230 0.554180 -0.050330
C56 C 0.382450 0.661350 0.178750
C57 C 0.421530 0.573330 0.235030
C58 C 0.393200 0.472100 0.196200
C59 C 0.674750 0.538150 -0.102700
C60 C 0.287770 0.554180 0.050330
N61 N 0.815950 0.347600 1.088200
N62 N 0.684050 0.152400 0.411800
N63 N 0.315950 0.652400 0.088200
N64 N 0.184050 0.652400 -0.088200
N65 N 0.815950 0.152400 0.588200
N66 N 0.815950 0.347600 0.088200
N67 N 0.684050 0.347600 0.911800
N68 N 0.684050 0.347600 -0.088200
N69 N 0.184050 0.847600 0.411800
N70 N 0.184050 0.652400 0.911800
N71 N 0.315950 0.652400 1.088200
N72 N 0.315950 0.847600 0.588200
O73 O 0.578750 0.780150 0.965200
O74 O 0.578750 0.719850 0.465200
O75 O 0.793670 0.583630 0.425130
O76 O 0.347000 0.616550 0.594150
O77 O 0.293670 0.083630 0.925130
O78 O 0.347000 0.883450 1.094150
O79 O 0.847000 0.116550 1.094150
O80 O -0.206330 0.916370 0.925130
O81 O -0.421250 0.780150 0.965200
O82 O -0.078750 0.780150 0.034800
O83 O 0.921250 0.719850 0.534800
O84 O 0.706330 0.583630 0.574870
O85 O 0.153000 0.883450 0.905850
O86 O 0.153000 0.883450 -0.094150
O87 O 0.078750 0.219850 0.965200
O88 O -0.078750 0.780150 1.034800
O89 O 0.921250 0.780150 0.034800
O90 O 1.206330 0.416370 0.574870
O91 O 0.153000 0.616550 0.405850
O92 O -0.078750 0.719850 0.534800
O93 O 1.421250 0.280150 0.534800
O94 O 1.293670 0.416370 0.425130
O95 O -0.293670 0.583630 0.574870
O96 O -0.421250 0.719850 0.465200
O97 O -0.206330 0.583630 0.425130
O98 O 0.578750 0.780150 -0.034800
O99 O 0.653000 0.116550 0.905850
O100 O 0.206330 0.083630 1.074870
O101 O 1.078750 0.219850 -0.034800
O102 O 1.293670 0.083630 -0.074870
O103 O 0.847000 0.116550 0.094150
O104 O 0.793670 0.916370 -0.074870
O105 O 1.078750 0.280150 0.465200
O106 O 0.847000 0.383450 0.594150
O107 O 0.347000 0.883450 0.094150
O108 O 0.293670 0.416370 0.425130
O109 O 0.078750 0.280150 0.465200
O110 O 1.421250 0.219850 0.034800
O111 O 1.206330 0.083630 0.074870
O112 O 0.706330 0.916370 0.074870
O113 O -0.293670 0.916370 1.074870
O114 O 0.653000 0.383450 0.405850
O115 O 0.206330 0.416370 0.574870
O116 O 0.421250 0.280150 0.534800
O117 O 1.078750 0.219850 0.965200
O118 O 0.653000 0.116550 -0.094150
O119 O 0.421250 0.219850 0.034800
O120 O 0.421250 0.219850 1.034800
S121 S 0.750000 0.846100 0.000000
S122 S 0.250000 0.153900 1.000000
S123 S 1.250000 0.346100 0.500000
S124 S 1.250000 0.153900 0.000000
S125 S -0.250000 0.846100 1.000000
S126 S 0.250000 0.346100 0.500000
S127 S -0.250000 0.653900 0.500000
S128 S 0.750000 0.653900 0.500000
Cu129 Cu 1.250000 0.725660 0.500000
Cu130 Cu -0.750000 0.725660 0.500000
Cu131 Cu 0.750000 0.225660 1.000000
Cu132 Cu 0.250000 0.774340 0.000000
Cu133 Cu -0.750000 0.774340 1.000000
Cu134 Cu 0.750000 0.225660 0.000000
Cu135 Cu 0.250000 0.774340 1.000000
Cu136 Cu 1.750000 0.274340 0.500000
Cu137 Cu 1.750000 0.225660 0.000000
Cu138 Cu -0.250000 0.274340 0.500000
Cu139 Cu 0.250000 0.725660 0.500000
Cu140 Cu 1.250000 0.774340 0.000000
Cu141 Cu 0.750000 0.274340 0.500000
Cu142 Cu -0.250000 0.225660 1.000000

#END
