./ABUBAB_from_POSCAR.cif_generated_by_CrystalShift
_symmetry_cell_setting triclinic
_symmetry_space_group_name_H-M 'P 1'
loop_
_symmetry_equiv_pos_site_id
_symmetry_equiv_pos_as_xyz
1 x,y,z
_cell_length_a 8.687000
_cell_length_b 7.887000
_cell_length_c 13.353000
_cell_angle_alpha 90.000000
_cell_angle_beta 90.170000
_cell_angle_gamma 90.000000
_cell_volume 914.868342
loop_
_atom_site_label
_atom_site_type_symbol
_atom_site_fract_x
_atom_site_fract_y
_atom_site_fract_z
H1 H 0.755500 0.827900 0.504800
H2 H 1.454300 0.985300 0.402200
H3 H 1.196000 1.009900 0.315900
H4 H 0.423700 0.214800 0.183600
H5 H 1.076300 0.714800 0.316400
H6 H 0.304000 0.509900 0.184100
H7 H 1.265900 0.523100 0.399300
H8 H 0.045700 0.485300 0.097800
H9 H 1.244500 1.172100 0.495200
H10 H 0.007900 0.188600 0.050800
H11 H 1.204700 1.144900 0.603800
H12 H 0.234100 0.023100 0.100700
H13 H 0.844700 1.519700 0.427600
H14 H 0.084300 0.119100 -0.117100
H15 H 1.048000 1.326500 0.358000
H16 H 0.141800 0.389400 -0.203700
H17 H 0.921600 1.083900 0.280400
H18 H 0.421600 0.416100 -0.219600
H19 H 0.641800 1.110600 0.296300
H20 H 0.548000 0.173500 -0.142000
H21 H 0.584300 1.380900 0.382900
H22 H 0.344700 -0.019700 -0.072400
H23 H 0.795300 0.855100 0.396200
H24 H 0.704700 0.355100 0.103800
H25 H 0.744500 0.327900 -0.004800
H26 H 0.734100 1.476900 0.600700
H27 H 0.507900 1.311400 0.550800
H28 H 1.155300 0.480300 0.572400
H29 H 0.545700 1.014700 0.597800
H30 H 0.576300 0.785200 -0.183600
H31 H 0.804000 0.990100 0.684100
H32 H 0.696000 0.490100 -0.184100
H33 H 0.923700 1.285200 0.683600
H34 H 0.954300 0.514700 -0.097800
H35 H 0.755500 -0.172100 0.504800
H36 H 0.992100 0.811400 -0.050800
H37 H 0.795300 -0.144900 0.396200
H38 H 0.765900 0.976900 -0.100700
H39 H 1.155300 -0.519700 0.572400
H40 H 0.915700 0.880900 0.117100
H41 H 0.952000 -0.326500 0.642000
H42 H 0.858200 0.610600 0.203700
H43 H 1.078400 -0.083900 0.719600
H44 H 0.578400 0.583900 0.219600
H45 H 1.358200 -0.110600 0.703700
H46 H 0.452000 0.826500 0.142000
H47 H 1.415700 -0.380900 0.617100
H48 H 0.655300 1.019700 0.072400
H49 H 0.295300 0.644900 -0.103800
H50 H 0.255500 0.672100 0.004800
H51 H 1.265900 -0.476900 0.399300
H52 H 1.492100 -0.311400 0.449200
H53 H 1.454300 -0.014700 0.402200
H54 H 0.423700 0.214800 1.183600
H55 H 1.196000 0.009900 0.315900
H56 H 0.304000 0.509900 1.184100
H57 H 1.076300 -0.285200 0.316400
H58 H 0.045700 0.485300 1.097800
H59 H 1.415700 0.619100 0.617100
H60 H 0.007900 0.188600 1.050800
H61 H 1.244500 0.172100 0.495200
H62 H 0.234100 0.023100 1.100700
H63 H 1.204700 0.144900 0.603800
H64 H 0.084300 0.119100 0.882900
H65 H 0.844700 0.519700 0.427600
H66 H 0.141800 0.389400 0.796300
H67 H 1.048000 0.326500 0.358000
H68 H 0.421600 0.416100 0.780400
H69 H 0.921600 0.083900 0.280400
H70 H 0.548000 0.173500 0.858000
H71 H 0.641800 0.110600 0.296300
H72 H 0.344700 -0.019700 0.927600
H73 H 0.584300 0.380900 0.382900
H74 H 0.704700 0.355100 1.103800
H75 H 0.744500 0.327900 0.995200
H76 H 0.734100 0.476900 0.600700
H77 H 0.507900 0.311400 0.550800
H78 H 0.952000 0.673500 0.642000
H79 H 0.545700 0.014700 0.597800
H80 H 0.576300 0.785200 0.816400
H81 H 0.804000 -0.009900 0.684100
H82 H 0.696000 0.490100 0.815900
H83 H 0.923700 0.285200 0.683600
H84 H 0.954300 0.514700 0.902200
H85 H -0.244500 0.827900 0.504800
H86 H 0.992100 0.811400 0.949200
H87 H -0.204700 0.855100 0.396200
H88 H 0.765900 0.976900 0.899300
H89 H 0.155300 0.480300 0.572400
H90 H 0.915700 0.880900 1.117100
H91 H -0.048000 0.673500 0.642000
H92 H 0.858200 0.610600 1.203700
H93 H 0.078400 0.916100 0.719600
H94 H 0.578400 0.583900 1.219600
H95 H 0.358200 0.889400 0.703700
H96 H 0.452000 0.826500 1.142000
H97 H 0.415700 0.619100 0.617100
H98 H 0.655300 1.019700 1.072400
H99 H 0.295300 0.644900 0.896200
H100 H 0.255500 0.672100 1.004800
H101 H 0.265900 0.523100 0.399300
H102 H 0.492100 0.688600 0.449200
H103 H 0.454300 0.985300 0.402200
H104 H -0.076300 0.285200 0.683600
H105 H 0.196000 1.009900 0.315900
H106 H -0.196000 -0.009900 0.684100
H107 H 0.076300 0.714800 0.316400
H108 H -0.454300 0.014700 0.597800
H109 H 1.358200 0.889400 0.703700
H110 H -0.492100 0.311400 0.550800
H111 H 0.244500 1.172100 0.495200
H112 H -0.265900 0.476900 0.600700
H113 H 0.204700 1.144900 0.603800
H114 H -0.415700 0.380900 0.382900
H115 H -0.155300 1.519700 0.427600
H116 H -0.358200 0.110600 0.296300
H117 H 0.048000 1.326500 0.358000
H118 H -0.078400 0.083900 0.280400
H119 H -0.078400 1.083900 0.280400
H120 H 0.048000 0.326500 0.358000
H121 H -0.358200 1.110600 0.296300
H122 H -0.155300 0.519700 0.427600
H123 H -0.415700 1.380900 0.382900
H124 H 0.204700 0.144900 0.603800
H125 H 0.244500 0.172100 0.495200
H126 H -0.265900 1.476900 0.600700
H127 H -0.492100 1.311400 0.550800
H128 H 1.078400 0.916100 0.719600
H129 H -0.454300 1.014700 0.597800
H130 H 0.076300 -0.285200 0.316400
H131 H -0.196000 0.990100 0.684100
H132 H 0.196000 0.009900 0.315900
H133 H -0.076300 1.285200 0.683600
H134 H 0.454300 -0.014700 0.402200
H135 H -0.244500 -0.172100 0.504800
H136 H 0.492100 -0.311400 0.449200
H137 H -0.204700 -0.144900 0.396200
H138 H 0.265900 -0.476900 0.399300
H139 H 0.155300 -0.519700 0.572400
H140 H 0.415700 -0.380900 0.617100
H141 H -0.048000 -0.326500 0.642000
H142 H 0.358200 -0.110600 0.703700
H143 H 0.078400 -0.083900 0.719600
H144 H 1.492100 0.688600 0.449200
C145 C 0.060000 -0.308800 0.645400
C146 C 0.284500 -0.190000 0.679900
C147 C 0.171200 -0.416200 0.607300
C148 C 0.316200 -0.337600 0.631800
C149 C 0.278800 -0.358600 0.388700
C150 C 0.403700 -0.267100 0.416400
C151 C 0.038300 1.069200 0.513000
C152 C 0.195700 1.106200 0.540200
C153 C -0.173900 1.254000 0.657200
C154 C 0.383700 -0.104600 0.390400
C155 C -0.240200 1.090400 0.657100
C156 C 0.240200 -0.090400 0.342900
C157 C -0.383700 1.104600 0.609600
C158 C 0.173900 -0.254000 0.342800
C159 C -0.403700 1.267100 0.583600
C160 C -0.195700 -0.106200 0.459800
C161 C -0.278800 1.358600 0.611300
C162 C -0.038300 -0.069200 0.487000
C163 C -0.316200 1.337600 0.368200
C164 C 1.060000 0.691200 0.645400
C165 C -0.284500 1.190000 0.320100
C166 C -0.171200 0.416200 0.392700
C167 C -0.130100 1.175600 0.311900
C168 C -0.060000 0.308800 0.354600
C169 C -0.060000 1.308800 0.354600
C170 C -0.130100 0.175600 0.311900
C171 C -0.171200 1.416200 0.392700
C172 C -0.284500 0.190000 0.320100
C173 C 1.130100 0.824400 0.688100
C174 C -0.316200 0.337600 0.368200
C175 C -0.278800 0.358600 0.611300
C176 C -0.038300 0.930800 0.487000
C177 C -0.195700 0.893800 0.459800
C178 C -0.403700 0.267100 0.583600
C179 C 0.173900 0.746000 0.342800
C180 C -0.383700 0.104600 0.609600
C181 C 0.240200 0.909600 0.342900
C182 C -0.240200 0.090400 0.657100
C183 C 0.383700 0.895400 0.390400
C184 C -0.173900 0.254000 0.657200
C185 C 0.403700 0.732900 0.416400
C186 C 0.195700 0.106200 0.540200
C187 C 0.278800 0.641400 0.388700
C188 C 0.038300 0.069200 0.513000
C189 C 0.316200 0.662400 0.631800
C190 C 0.671200 0.916200 1.107300
C191 C 0.284500 0.810000 0.679900
C192 C 0.560000 0.808800 1.145400
C193 C 0.130100 0.824400 0.688100
C194 C 0.630100 0.675600 1.188100
C195 C 0.060000 0.691200 0.645400
C196 C 0.784500 0.690000 1.179900
C197 C 0.171200 0.583800 0.607300
C198 C 0.816200 0.837600 1.131800
C199 C 0.778800 0.858600 0.888700
C200 C 0.903700 0.767100 0.916400
C201 C 1.038300 0.069200 0.513000
C202 C 1.195700 0.106200 0.540200
C203 C 0.826100 0.254000 0.657200
C204 C 0.883700 0.604600 0.890400
C205 C 0.759800 0.090400 0.657100
C206 C 0.740200 0.590400 0.842900
C207 C 0.616300 0.104600 0.609600
C208 C 0.673900 0.754000 0.842800
C209 C 0.596300 0.267100 0.583600
C210 C 0.304300 0.606200 0.959800
C211 C 0.721200 0.358600 0.611300
C212 C 0.461700 0.569200 0.987000
C213 C 0.683800 0.337600 0.368200
C214 C 1.171200 0.583800 0.607300
C215 C 0.715500 0.190000 0.320100
C216 C 0.328800 0.083800 0.892700
C217 C 0.869900 0.175600 0.311900
C218 C 0.440000 0.191200 0.854600
C219 C 0.940000 0.308800 0.354600
C220 C 0.369900 0.324400 0.811900
C221 C 0.828800 0.416200 0.392700
C222 C 0.215500 0.310000 0.820100
C223 C 1.284500 0.810000 0.679900
C224 C 0.183800 0.162400 0.868200
C225 C 0.221200 0.141400 1.111300
C226 C 0.961700 -0.069200 0.487000
C227 C 0.804300 -0.106200 0.459800
C228 C 0.096300 0.232900 1.083600
C229 C 1.173900 -0.254000 0.342800
C230 C 0.116300 0.395400 1.109600
C231 C 1.240200 -0.090400 0.342900
C232 C 0.259800 0.409600 1.157100
C233 C 1.383700 -0.104600 0.390400
C234 C 0.326100 0.246000 1.157200
C235 C 1.403700 -0.267100 0.416400
C236 C 0.695700 0.393800 1.040200
C237 C 1.278800 -0.358600 0.388700
C238 C 0.538300 0.430800 1.013000
C239 C 1.316200 -0.337600 0.631800
C240 C 0.671200 0.916200 0.107300
C241 C 1.284500 -0.190000 0.679900
C242 C 0.560000 0.808800 0.145400
C243 C 1.130100 -0.175600 0.688100
C244 C 0.630100 0.675600 0.188100
C245 C 1.060000 -0.308800 0.645400
C246 C 0.784500 0.690000 0.179900
C247 C 1.171200 -0.416200 0.607300
C248 C 0.816200 0.837600 0.131800
C249 C 0.778800 0.858600 -0.111300
C250 C 0.903700 0.767100 -0.083600
C251 C 1.038300 1.069200 0.513000
C252 C 1.195700 1.106200 0.540200
C253 C 0.826100 1.254000 0.657200
C254 C 0.883700 0.604600 -0.109600
C255 C 0.759800 1.090400 0.657100
C256 C 0.740200 0.590400 -0.157100
C257 C 0.616300 1.104600 0.609600
C258 C 0.673900 0.754000 -0.157200
C259 C 0.596300 1.267100 0.583600
C260 C 0.304300 0.606200 -0.040200
C261 C 0.721200 1.358600 0.611300
C262 C 0.461700 0.569200 -0.013000
C263 C 0.683800 1.337600 0.368200
C264 C 0.328800 0.083800 -0.107300
C265 C 0.715500 1.190000 0.320100
C266 C 0.440000 0.191200 -0.145400
C267 C 0.869900 1.175600 0.311900
C268 C 0.369900 0.324400 -0.188100
C269 C 0.940000 1.308800 0.354600
C270 C 0.215500 0.310000 -0.179900
C271 C 0.828800 1.416200 0.392700
C272 C 0.183800 0.162400 -0.131800
C273 C 1.316200 0.662400 0.631800
C274 C 0.221200 0.141400 0.111300
C275 C 0.096300 0.232900 0.083600
C276 C 0.961700 0.930800 0.487000
C277 C 0.804300 0.893800 0.459800
C278 C 0.116300 0.395400 0.109600
C279 C 1.173900 0.746000 0.342800
C280 C 0.259800 0.409600 0.157100
C281 C 1.240200 0.909600 0.342900
C282 C 0.326100 0.246000 0.157200
C283 C 1.383700 0.895400 0.390400
C284 C 0.695700 0.393800 0.040200
C285 C 1.403700 0.732900 0.416400
C286 C 0.130100 -0.175600 0.688100
C287 C 1.278800 0.641400 0.388700
C288 C 0.538300 0.430800 0.013000
Ti289 Ti 0.809430 1.164380 0.487520
Ti290 Ti 1.190570 -0.164380 0.512480
Ti291 Ti 0.809430 0.164380 0.487520
Ti292 Ti 0.190570 0.835620 0.512480
Ti293 Ti -0.190570 1.164380 0.487520
Ti294 Ti 0.190570 -0.164380 0.512480
Ti295 Ti -0.190570 0.164380 0.487520
Ti296 Ti 0.690570 0.664380 1.012480
Ti297 Ti 0.309430 0.335620 0.987520
Ti298 Ti 0.690570 0.664380 0.012480
Ti299 Ti 0.309430 0.335620 -0.012480
Ti300 Ti 1.190570 0.835620 0.512480

#END
