./ABUFOT_from_POSCAR.cif_generated_by_CrystalShift
_symmetry_cell_setting triclinic
_symmetry_space_group_name_H-M 'P 1'
loop_
_symmetry_equiv_pos_site_id
_symmetry_equiv_pos_as_xyz
1 x,y,z
_cell_length_a 9.888100
_cell_length_b 10.552400
_cell_length_c 10.817300
_cell_angle_alpha 105.671800
_cell_angle_beta 103.830500
_cell_angle_gamma 116.627900
_cell_volume 882.364425
loop_
_atom_site_label
_atom_site_type_symbol
_atom_site_fract_x
_atom_site_fract_y
_atom_site_fract_z
H1 H -0.552000 -0.167000 0.633000
H2 H -0.440000 -0.095000 0.567000
H3 H -0.402000 -0.147000 0.928000
H4 H -0.217000 -0.050000 1.013000
H5 H 0.655000 0.663000 0.408000
H6 H -0.310000 0.028000 0.984000
H7 H 0.608000 0.577000 -0.257000
H8 H 0.126000 0.602000 1.185000
H9 H 1.270000 1.248000 0.343000
H10 H 0.118000 0.487000 1.248600
H11 H 0.256000 0.663000 1.334000
H12 H 0.708300 0.521400 0.130600
H13 H 0.551000 0.803000 1.245000
H14 H 0.540000 0.696000 1.107000
H15 H 0.984000 0.776400 -0.028900
H16 H 0.416000 0.757000 1.103000
H17 H 0.110000 0.532000 0.627000
H18 H 1.130500 0.945800 0.390800
H19 H 0.205000 0.544000 0.533000
H20 H 1.159000 0.824000 0.592500
H21 H 1.099000 0.930000 0.619000
H22 H 1.057000 0.816000 0.682000
H23 H 0.293000 0.581000 0.684000
H24 H 0.707000 0.419000 0.316000
H25 H 0.795000 0.456000 0.467000
H26 H 0.890000 0.468000 0.373000
H27 H -0.057000 0.184000 0.318000
H28 H 0.584000 0.243000 -0.103000
H29 H 0.460000 0.304000 -0.107000
H30 H 0.449000 0.197000 -0.245000
H31 H -0.099000 0.070000 0.381000
H32 H 0.744000 0.337000 -0.334000
H33 H 0.882000 0.513000 -0.248600
H34 H 0.874000 0.398000 -0.185000
H35 H -0.159000 0.176000 0.407500
H36 H 1.310000 0.972000 0.016000
H37 H 1.217000 1.050000 -0.013000
H38 H 1.402000 1.147000 0.072000
H39 H -0.130500 0.054200 0.609200
H40 H 1.440000 1.095000 0.433000
H41 H 1.455000 0.993000 0.317000
H42 H 1.552000 1.167000 0.367000
H43 H 0.016000 0.223600 1.028900
H44 H 0.291700 0.478600 0.869400
H45 H -0.270000 -0.248000 0.657000
H46 H 0.392000 0.423000 1.257000
H47 H 0.345000 0.337000 0.592000
H48 H -0.455000 0.007000 0.683000
C49 C -0.451500 -0.084000 0.651500
C50 C -0.302800 -0.055800 0.949400
C51 C 0.910600 0.727800 0.281830
C52 C 0.089400 0.272200 0.718170
C53 C 0.199100 0.388000 0.855960
C54 C 0.800900 0.612000 0.144040
C55 C 0.176500 0.375100 0.975650
C56 C 0.034700 0.235400 0.951170
C57 C 0.189200 0.575700 1.241400
C58 C -0.080200 0.114600 0.817180
C59 C -0.048400 0.136800 0.702150
C60 C 1.451500 1.084000 0.348500
C61 C -0.070700 0.166700 0.398100
C62 C 1.302800 1.055800 0.050600
C63 C 0.810800 0.424300 -0.241400
C64 C 0.527500 0.282700 -0.151100
C65 C 0.189900 0.515400 0.605500
C66 C 0.810100 0.484600 0.394500
C67 C 1.070700 0.833300 0.601900
C68 C 1.048400 0.863200 0.297850
C69 C 0.472500 0.717300 1.151100
C70 C 1.080200 0.885400 0.182820
C71 C 0.965300 0.764600 0.048830
C72 C 0.823500 0.624900 0.024350
O73 O 0.569600 0.505740 -0.252980
O74 O 0.265910 0.283160 0.535800
O75 O 0.734090 0.716840 0.464200
O76 O 1.273670 1.223890 0.279170
O77 O -0.273670 -0.223890 0.720830
O78 O 0.430400 0.494260 1.252980
Si79 Si 1.277200 1.065510 0.216260
Si80 Si 0.317900 0.538810 1.157260
Si81 Si 0.682100 0.461190 -0.157260
Si82 Si 0.120500 0.308220 0.563690
Si83 Si -0.277200 -0.065510 0.783740
Si84 Si 0.879500 0.691780 0.436310

#END
