./ABUGIN_from_POSCAR.cif_generated_by_CrystalShift
_symmetry_cell_setting triclinic
_symmetry_space_group_name_H-M 'P 1'
loop_
_symmetry_equiv_pos_site_id
_symmetry_equiv_pos_as_xyz
1 x,y,z
_cell_length_a 7.575200
_cell_length_b 15.683000
_cell_length_c 7.515800
_cell_angle_alpha 90.000000
_cell_angle_beta 107.045000
_cell_angle_gamma 90.000000
_cell_volume 853.670644
loop_
_atom_site_label
_atom_site_type_symbol
_atom_site_fract_x
_atom_site_fract_y
_atom_site_fract_z
H1 H 0.165000 0.483700 0.351000
H2 H 0.004300 0.546700 0.275800
H3 H -0.109000 0.754600 0.893000
H4 H 0.097900 0.722100 1.025900
H5 H -0.109800 0.659300 0.985200
H6 H 0.507000 0.532700 0.535000
H7 H 0.732000 0.493700 0.726000
H8 H 0.699000 0.574200 0.627000
H9 H 0.643000 0.705000 1.086000
H10 H 0.528500 0.767100 1.140000
H11 H 0.510300 0.681400 1.249700
H12 H -0.195100 0.879200 0.443600
H13 H -0.187800 0.780300 0.544300
H14 H -0.264200 0.869000 0.623000
H15 H 0.493700 1.041000 0.898300
H16 H 0.311200 1.166300 0.836400
H17 H -0.030000 1.141800 0.674800
H18 H -0.152800 1.017100 0.590600
H19 H 0.165000 0.516300 -0.149000
H20 H 0.196400 0.423200 -0.213400
H21 H 0.004300 0.453300 -0.224200
H22 H -0.109000 0.245400 0.393000
H23 H 0.097900 0.277900 0.525900
H24 H -0.109800 0.340700 0.485200
H25 H 0.507000 0.467300 0.035000
H26 H 0.732000 0.506300 0.226000
H27 H -0.152800 -0.017100 0.090600
H28 H -0.030000 -0.141800 0.174800
H29 H 0.311200 -0.166300 0.336400
H30 H 0.493700 -0.041000 0.398300
H31 H -0.264200 0.131000 0.123000
H32 H -0.187800 0.219700 0.044300
H33 H -0.195100 0.120800 -0.056400
H34 H 0.510300 0.318600 0.749700
H35 H 0.528500 0.232900 0.640000
H36 H 0.643000 0.295000 0.586000
H37 H 0.699000 0.425800 0.127000
H38 H 0.196400 0.576800 0.286600
C39 C 0.085100 0.334000 0.008300
C40 C -0.037700 0.297500 0.434400
C41 C 0.622300 0.457700 0.178600
C42 C 0.466200 0.332400 0.216900
C43 C 0.526500 0.297100 0.634800
C44 C 0.123800 0.296100 0.201500
C45 C 0.342300 0.292400 0.318800
C46 C 0.097900 0.052700 0.197900
C47 C -0.015800 -0.019300 0.155300
C48 C 0.058900 -0.099200 0.204500
C49 C 0.244800 -0.108900 0.293400
C50 C 0.357000 -0.039400 0.333600
C51 C 0.289200 0.044400 0.287900
C52 C 0.416100 0.116800 0.341500
C53 C 0.318200 0.196300 0.300200
C54 C 0.097900 0.947300 0.697900
C55 C -0.015800 1.019300 0.655300
C56 C 0.058900 1.099200 0.704500
C57 C 0.244800 1.108900 0.793400
C58 C 0.357000 1.039400 0.833600
C59 C 0.289200 0.955600 0.787900
C60 C 0.416100 0.883200 0.841500
C61 C 0.318200 0.803700 0.800200
C62 C 0.134300 0.800400 0.709700
C63 C -0.176900 0.853400 0.560800
C64 C 0.342300 0.707600 0.818800
C65 C 0.123800 0.703900 0.701500
C66 C 0.526500 0.702900 1.134800
C67 C 0.466200 0.667600 0.716900
C68 C 0.622300 0.542300 0.678600
C69 C -0.037700 0.702500 0.934400
C70 C 0.085100 0.666000 0.508300
C71 C 0.131200 0.544400 0.339500
C72 C -0.176900 0.146600 0.060800
C73 C 0.134300 0.199600 0.209700
C74 C 0.131200 0.455600 -0.160500
N75 N 0.019000 0.134500 0.153800
N76 N 0.019000 0.865500 0.653800
O77 O 0.012600 0.704600 0.367800
O78 O 0.004600 0.660900 0.782300
O79 O 0.531100 0.592100 0.786400
O80 O 0.490700 0.698600 0.580300
O81 O 0.365100 0.672200 0.997300
O82 O 0.141600 0.586200 0.516100
O83 O 0.141600 0.413800 0.016100
O84 O 0.584500 0.109300 0.412900
O85 O 0.012600 0.295400 -0.132200
O86 O 0.004600 0.339100 0.282300
O87 O 0.531100 0.407900 0.286400
O88 O 0.490700 0.301400 0.080300
O89 O 0.584500 0.890700 0.912900
O90 O 0.365100 0.327800 0.497300

#END
