./ABUHAZ_from_POSCAR.cif_generated_by_CrystalShift
_symmetry_cell_setting triclinic
_symmetry_space_group_name_H-M 'P 1'
loop_
_symmetry_equiv_pos_site_id
_symmetry_equiv_pos_as_xyz
1 x,y,z
_cell_length_a 10.288000
_cell_length_b 14.585000
_cell_length_c 17.670000
_cell_angle_alpha 90.000000
_cell_angle_beta 116.630000
_cell_angle_gamma 90.000000
_cell_volume 2370.131440
loop_
_atom_site_label
_atom_site_type_symbol
_atom_site_fract_x
_atom_site_fract_y
_atom_site_fract_z
H1 H -0.272500 0.275600 0.796800
H2 H -0.215800 0.353200 0.871300
H3 H -0.175400 0.404500 0.754800
H4 H -0.019900 0.391200 0.838600
H5 H 0.010900 0.245400 0.787500
H6 H -0.146300 0.256500 0.704500
H7 H -0.054700 0.381400 0.657200
H8 H 0.102100 0.371800 0.740700
H9 H 0.628400 0.375000 0.537800
H10 H 0.475500 0.429000 0.512800
H11 H 0.138700 0.062500 -0.101600
H12 H 0.054700 0.000000 -0.050800
H13 H -0.126100 0.442600 0.241100
H14 H -0.341300 0.517000 0.138900
H15 H -0.386000 0.526400 -0.006200
H16 H -0.206600 0.469400 -0.047600
H17 H 0.004400 0.387400 0.054600
H18 H 0.290300 0.433900 0.170100
H19 H 0.470800 0.549300 0.201700
H20 H 0.703900 0.533500 0.324200
H21 H 0.611700 0.442800 0.606500
H22 H 0.591400 0.288500 0.639900
H23 H 0.438600 0.342600 0.614800
H24 H 0.481500 0.233200 0.493800
H25 H 0.421700 0.188000 0.556900
H26 H 0.273400 0.316200 0.424400
H27 H 0.226300 0.210200 0.429200
H28 H 0.569400 0.215900 0.883200
H29 H 0.750500 0.094900 0.916600
H30 H 0.703900 -0.033500 0.824200
H31 H 0.470800 -0.049300 0.701700
H32 H 0.290300 0.066100 0.670100
H33 H 0.004400 0.112600 0.554600
H34 H -0.206600 0.030600 0.452400
H35 H -0.386000 -0.026400 0.493800
H36 H -0.341300 -0.017000 0.638900
H37 H -0.126100 0.057400 0.741100
H38 H 0.054700 0.500000 0.449200
H39 H 0.138700 0.437500 0.398400
H40 H 1.272500 0.775600 0.703200
H41 H 1.117100 0.762300 0.619400
H42 H 1.215800 0.853200 0.628700
H43 H 0.750500 0.405100 0.416600
H44 H 0.569400 0.284100 0.383200
H45 H 0.226300 0.289800 -0.070800
H46 H 0.273400 0.183800 -0.075600
H47 H 0.421700 0.312000 0.056900
H48 H 0.481500 0.266800 -0.006200
H49 H 0.438600 0.157400 0.114800
H50 H 0.591400 0.211500 0.139900
H51 H 0.611700 0.057200 0.106500
H52 H 0.475500 0.071000 0.012800
H53 H 0.628400 0.125000 0.037800
H54 H 0.102100 0.128200 0.240700
H55 H -0.054700 0.118600 0.157200
H56 H -0.146300 0.243500 0.204500
H57 H 0.010900 0.254600 0.287500
H58 H -0.019900 0.108800 0.338600
H59 H -0.175400 0.095500 0.254800
H60 H -0.215800 0.146800 0.371300
H61 H -0.117100 0.237700 0.380600
H62 H -0.272500 0.224400 0.296800
H63 H 1.175400 0.904500 0.745200
H64 H 1.019900 0.891200 0.661400
H65 H 0.989100 0.745400 0.712500
H66 H 1.146300 0.756500 0.795500
H67 H 1.054700 0.881400 0.842800
H68 H 0.897900 0.871800 0.759300
H69 H 0.371600 0.875000 0.962200
H70 H 0.524500 0.929000 0.987200
H71 H 0.388300 0.942800 0.893500
H72 H 0.408600 0.788500 0.860100
H73 H 0.861300 0.562500 0.601600
H74 H 0.945300 0.500000 0.550800
H75 H 1.126100 0.942600 0.258900
H76 H 1.341300 1.017000 0.361100
H77 H 1.386000 1.026400 0.506200
H78 H 1.206600 0.969400 0.547600
H79 H 0.995600 0.887400 0.445400
H80 H 0.709700 0.933900 0.329900
H81 H 0.529200 1.049300 0.298300
H82 H 0.296100 1.033500 0.175800
H83 H 0.561400 0.842600 0.885200
H84 H 0.518500 0.733200 1.006200
H85 H 0.578300 0.688000 0.943100
H86 H 0.726600 0.816200 1.075600
H87 H 0.773700 0.710200 1.070800
H88 H 0.430600 0.715900 0.616800
H89 H 0.249500 0.594900 0.583400
H90 H 0.296100 0.466500 0.675800
H91 H 0.529200 0.450700 0.798300
H92 H 0.709700 0.566100 0.829900
H93 H 0.995600 0.612600 0.945400
H94 H 1.206600 0.530600 1.047600
H95 H 1.386000 0.473600 1.006200
H96 H 1.341300 0.483000 0.861100
H97 H 1.126100 0.557400 0.758900
H98 H 0.945300 1.000000 1.050800
H99 H 0.861300 0.937500 1.101600
H100 H 1.272500 0.724400 0.203200
H101 H 1.117100 0.737700 0.119400
H102 H 1.215800 0.646800 0.128700
H103 H 1.175400 0.595500 0.245200
H104 H 1.019900 0.608800 0.161400
H105 H 0.249500 0.905100 0.083400
H106 H 0.430600 0.784100 0.116800
H107 H 0.773700 0.789800 0.570800
H108 H 0.726600 0.683800 0.575600
H109 H 0.578300 0.812000 0.443100
H110 H 0.518500 0.766800 0.506200
H111 H 0.561400 0.657400 0.385200
H112 H 0.408600 0.711500 0.360100
H113 H 0.388300 0.557200 0.393500
H114 H 0.524500 0.571000 0.487200
H115 H 0.371600 0.625000 0.462200
H116 H 0.897900 0.628200 0.259300
H117 H 1.054700 0.618600 0.342800
H118 H 1.146300 0.743500 0.295500
H119 H 0.989100 0.754600 0.212500
H120 H -0.117100 0.262300 0.880600
C121 C 1.108800 0.642600 0.205500
C122 C 1.060400 0.708300 0.253600
C123 C 0.988500 0.663500 0.302100
C124 C 0.447000 0.608100 0.440700
C125 C 0.096900 0.202800 0.090800
C126 C 0.107000 0.124300 -0.005200
C127 C 0.096300 0.377800 0.223600
C128 C -0.043600 0.412200 0.156000
C129 C -0.144900 0.448800 0.179600
C130 C -0.269000 0.490000 0.119700
C131 C -0.291000 0.497500 0.038000
C132 C -0.191100 0.461900 0.013500
C133 C 0.903100 0.797200 0.909200
C134 C 0.893000 0.875700 1.005200
C135 C 0.494600 0.683500 0.406600
C136 C 0.576500 0.751400 0.472600
C137 C 0.728500 0.732600 0.535800
C138 C 0.453500 0.841600 0.154500
C139 C 0.347400 0.910200 0.136200
C140 C 0.375900 0.984300 0.188500
C141 C 0.506300 0.993800 0.259900
C142 C 0.612500 0.926800 0.278100
C143 C 0.586300 0.850800 0.225500
C144 C 0.693000 0.774900 0.245600
C145 C 0.903700 0.622200 0.776400
C146 C 1.043600 0.587800 0.844000
C147 C 1.144900 0.551200 0.820400
C148 C 1.269000 0.510000 0.880300
C149 C 1.291000 0.502500 0.962000
C150 C 1.191100 0.538100 0.986500
C151 C 1.067600 0.583000 0.927900
C152 C 0.693000 0.725100 0.745600
C153 C 0.586300 0.649200 0.725500
C154 C 0.612500 0.573200 0.778100
C155 C 0.506300 0.506200 0.759900
C156 C 0.375900 0.515700 0.688500
C157 C 0.347400 0.589800 0.636200
C158 C 0.453500 0.658400 0.654500
C159 C 0.728500 0.767400 1.035800
C160 C 0.576500 0.748600 0.972600
C161 C 0.494600 0.816500 0.906600
C162 C 0.447000 0.891900 0.940700
C163 C 0.988500 0.836500 0.802100
C164 C 1.060400 0.791700 0.753600
C165 C 1.108800 0.857400 0.705500
C166 C 1.181400 0.807600 0.659500
C167 C 1.067600 0.917000 0.427900
C168 C 1.191100 0.961900 0.486500
C169 C 1.291000 0.997500 0.462000
C170 C 1.269000 0.990000 0.380300
C171 C 1.144900 0.948800 0.320400
C172 C 1.043600 0.912200 0.344000
C173 C 0.903700 0.877800 0.276400
C174 C 0.893000 0.624300 0.505200
C175 C 0.903100 0.702800 0.409200
C176 C -0.067600 0.417000 0.072100
C177 C 0.307000 0.274900 0.254400
C178 C 0.413700 0.350800 0.274500
C179 C -0.181400 0.307600 0.840500
C180 C -0.108800 0.357400 0.794500
C181 C -0.060400 0.291700 0.746400
C182 C 0.011500 0.336500 0.697900
C183 C 0.553000 0.391900 0.559300
C184 C -0.181400 0.192400 0.340500
C185 C -0.108800 0.142600 0.294500
C186 C -0.060400 0.208300 0.246400
C187 C 0.505400 0.316500 0.593400
C188 C 0.423500 0.248600 0.527400
C189 C 0.271500 0.267400 0.464200
C190 C 0.546500 0.158400 0.845500
C191 C 0.652600 0.089800 0.863800
C192 C 0.624100 0.015700 0.811500
C193 C 0.493700 0.006200 0.740100
C194 C 0.387500 0.073200 0.721900
C195 C 0.096900 0.297200 0.590800
C196 C 0.107000 0.375700 0.494800
C197 C 0.011500 0.163500 0.197900
C198 C 0.553000 0.108100 0.059300
C199 C 0.505400 0.183500 0.093400
C200 C 0.423500 0.251400 0.027400
C201 C 0.271500 0.232600 -0.035800
C202 C 0.546500 0.341600 0.345500
C203 C 0.652600 0.410200 0.363800
C204 C 0.624100 0.484300 0.311500
C205 C 0.493700 0.493800 0.240100
C206 C 0.387500 0.426800 0.221900
C207 C 0.096300 0.122200 0.723600
C208 C -0.043600 0.087800 0.656000
C209 C -0.144900 0.051200 0.679600
C210 C -0.269000 0.010000 0.619700
C211 C -0.291000 0.002500 0.538000
C212 C -0.191100 0.038100 0.513500
C213 C -0.067600 0.083000 0.572100
C214 C 0.307000 0.225100 0.754400
C215 C 0.413700 0.149200 0.774500
C216 C 1.181400 0.692400 0.159500
N217 N 0.059900 0.268200 0.654200
N218 N 0.088300 0.441900 0.437200
N219 N 0.049800 0.378000 0.549500
N220 N 0.174400 0.244400 0.566700
N221 N 0.180000 0.297800 0.502500
N222 N 0.180000 0.202200 0.002500
N223 N 0.174400 0.255600 0.066700
N224 N 0.049800 0.122000 0.049500
N225 N 0.088300 0.058100 -0.062800
N226 N 0.820000 0.702200 0.497500
N227 N 0.825600 0.755600 0.433300
N228 N 0.950200 0.622000 0.450500
N229 N 0.911700 0.558100 0.562800
N230 N 0.940100 0.731800 0.345800
N231 N 0.843700 0.798900 0.293400
N232 N 0.843700 0.701100 0.793400
N233 N 0.940100 0.768200 0.845800
N234 N 0.911700 0.941900 1.062800
N235 N 0.950200 0.878000 0.950500
N236 N 0.825600 0.744400 0.933300
N237 N 0.820000 0.797800 0.997500
N238 N 0.059900 0.231800 0.154200
N239 N 0.156300 0.298900 0.206600
N240 N 0.156300 0.201100 0.706600
O241 O 0.660100 0.696000 0.230200
O242 O 0.840500 0.916900 0.208900
O243 O 0.159500 0.083100 0.791100
O244 O 0.339900 0.304000 0.769800
O245 O 0.339900 0.196000 0.269800
O246 O 0.660100 0.804000 0.730200
O247 O 0.840500 0.583100 0.708900
O248 O 0.159500 0.416900 0.291100

#END
