./ABUJUE_from_POSCAR.cif_generated_by_CrystalShift
_symmetry_cell_setting triclinic
_symmetry_space_group_name_H-M 'P 1'
loop_
_symmetry_equiv_pos_site_id
_symmetry_equiv_pos_as_xyz
1 x,y,z
_cell_length_a 7.202700
_cell_length_b 7.569900
_cell_length_c 12.961500
_cell_angle_alpha 84.464000
_cell_angle_beta 86.387000
_cell_angle_gamma 75.580000
_cell_volume 680.695257
loop_
_atom_site_label
_atom_site_type_symbol
_atom_site_fract_x
_atom_site_fract_y
_atom_site_fract_z
H1 H 0.372400 0.766100 0.755700
H2 H 0.438000 0.678300 0.930200
H3 H 0.745300 0.520700 0.975700
H4 H 0.989300 0.455800 0.849400
H5 H 0.929900 0.555900 0.675500
H6 H 0.580000 0.629000 0.561000
H7 H 0.714000 0.756000 0.554000
H8 H 0.492000 0.822000 0.588000
H9 H 0.286000 0.244000 0.446000
H10 H 0.508000 0.178000 0.412000
H11 H 0.070100 0.444100 0.324500
H12 H 1.095800 -0.053100 0.779500
H13 H 0.535300 0.116100 0.867000
H14 H 0.851000 0.272000 0.529000
H15 H 0.010700 0.544200 0.150600
H16 H 0.254700 0.479300 0.024300
H17 H 0.149000 0.728000 0.471000
H18 H 0.464700 0.883900 0.133000
H19 H -0.095800 1.053100 0.220500
H20 H 0.562000 0.321700 0.069800
H21 H 0.627600 0.233900 0.244300
H22 H 0.420000 0.371000 0.439000
C23 C 0.829100 0.578500 0.727050
C24 C 0.645400 0.668600 0.700570
C25 C 0.719400 0.559000 0.904990
C26 C 0.537300 0.651200 0.878100
C27 C -0.100800 0.893500 0.410980
C28 C 0.030200 0.985100 0.236630
C29 C 0.936600 0.109200 0.667710
C30 C 0.748900 0.213500 0.643170
C31 C 0.602000 0.211800 0.720110
C32 C 0.636500 0.115300 0.816170
C33 C 0.820600 0.018600 0.836190
C34 C 0.969800 0.014900 0.763370
C35 C 1.100800 0.106500 0.589020
C36 C 0.179400 0.981400 0.163810
C37 C 0.363500 0.884700 0.183830
C38 C 0.398000 0.788200 0.279890
C39 C 0.251100 0.786500 0.356830
C40 C 0.354600 0.331400 0.299430
C41 C 0.170900 0.421500 0.272950
C42 C 0.135900 0.478600 0.169800
C43 C 0.280600 0.441000 0.095010
C44 C 0.462700 0.348800 0.121900
C45 C 0.501100 0.295200 0.224930
C46 C 0.063400 0.890800 0.332290
C47 C 0.498900 0.704800 0.775070
C48 C 0.864100 0.521400 0.830200
N49 N 0.397300 0.275700 0.408680
N50 N 0.858500 -0.082900 0.937540
N51 N 0.404500 0.316200 0.703940
N52 N 0.141500 1.082900 0.062460
N53 N 0.595500 0.683800 0.296060
N54 N 0.602700 0.724300 0.591320
O55 O 0.729100 -0.061500 1.004310
O56 O 0.285100 0.296600 0.770830
O57 O 0.365200 0.416800 0.625300
O58 O 0.718400 0.309600 0.552340
O59 O 1.060200 0.207600 0.504510
O60 O 1.018200 -0.184200 0.950380
O61 O 1.262700 0.013100 0.608380
O62 O -0.060200 0.792400 0.495490
O63 O -0.262700 0.986900 0.391620
O64 O -0.018200 1.184200 0.049620
O65 O 0.270900 1.061500 -0.004310
O66 O 0.714900 0.703400 0.229170
O67 O 0.634800 0.583200 0.374700
O68 O 0.281600 0.690400 0.447660

#END
