./ABUMAN_from_POSCAR.cif_generated_by_CrystalShift
_symmetry_cell_setting triclinic
_symmetry_space_group_name_H-M 'P 1'
loop_
_symmetry_equiv_pos_site_id
_symmetry_equiv_pos_as_xyz
1 x,y,z
_cell_length_a 21.764000
_cell_length_b 5.744000
_cell_length_c 15.684700
_cell_angle_alpha 90.000000
_cell_angle_beta 103.589000
_cell_angle_gamma 90.000000
_cell_volume 1905.892352
loop_
_atom_site_label
_atom_site_type_symbol
_atom_site_fract_x
_atom_site_fract_y
_atom_site_fract_z
H1 H 0.940900 0.041000 0.733000
H2 H 1.118600 0.793000 0.304100
H3 H 0.575300 0.179000 0.039100
H4 H 1.025600 0.062000 0.086500
H5 H 1.021400 0.262000 0.137000
H6 H 0.481000 0.191000 0.084100
H7 H 0.528700 0.803000 0.198200
H8 H 0.679200 0.324000 0.039900
H9 H 0.716500 0.759000 0.118400
H10 H 1.296600 1.176000 0.116700
H11 H 1.429100 0.560000 0.170000
H12 H 1.291700 0.540000 0.228100
H13 H 1.190600 0.624000 0.249100
H14 H 1.197300 1.259000 0.142600
H15 H 0.626600 0.797000 0.161500
H16 H 0.917600 0.862000 0.086500
H17 H 0.819200 0.906000 0.119900
H18 H 0.770200 0.278000 0.003100
H19 H 0.870100 0.261000 -0.025300
H20 H 0.881400 0.207000 0.695900
H21 H -0.059100 0.041000 0.733000
H22 H 0.129900 -0.239000 0.525300
H23 H 0.229800 -0.222000 0.496900
H24 H 0.180800 0.406000 0.380100
H25 H 0.082400 0.362000 0.413500
H26 H 0.373400 0.297000 0.338500
H27 H -0.197300 0.759000 0.357400
H28 H -0.190600 0.124000 0.250900
H29 H -0.291700 0.040000 0.271900
H30 H -0.429100 0.060000 0.330000
H31 H -0.296600 0.676000 0.383300
H32 H 0.283500 0.259000 0.381600
H33 H 0.320800 -0.176000 0.460100
H34 H 0.471300 0.303000 0.301800
H35 H 0.519000 -0.309000 0.415900
H36 H -0.021400 -0.238000 0.363000
H37 H -0.025600 -0.438000 0.413500
H38 H 1.424700 0.821000 0.960900
H39 H -0.118600 0.207000 0.695900
H40 H 0.974400 0.938000 0.913500
H41 H 0.978600 0.738000 0.863000
H42 H 1.519000 0.809000 0.915900
H43 H 0.424700 0.821000 0.960900
H44 H 1.471300 0.197000 0.801800
H45 H 1.320800 0.676000 0.960100
H46 H 1.283500 0.241000 0.881600
H47 H 0.424700 -0.321000 0.460900
H48 H -0.118600 0.293000 0.195900
H49 H -0.059100 0.459000 0.233000
H50 H 1.129900 0.739000 0.025300
H51 H 1.229800 0.722000 -0.003100
H52 H 1.180800 0.094000 -0.119900
H53 H 1.082400 0.138000 -0.086500
H54 H -0.025600 0.938000 0.913500
H55 H -0.021400 0.738000 0.863000
H56 H 0.519000 0.809000 0.915900
H57 H 0.471300 0.197000 0.801800
H58 H 0.320800 0.676000 0.960100
H59 H 0.283500 0.241000 0.881600
H60 H -0.296600 -0.176000 0.883300
H61 H -0.429100 0.440000 0.830000
H62 H -0.291700 0.460000 0.771900
H63 H -0.190600 0.376000 0.750900
H64 H -0.197300 -0.259000 0.857400
H65 H 0.373400 0.203000 0.838500
H66 H 0.082400 0.138000 0.913500
H67 H 0.180800 0.094000 0.880100
H68 H 0.229800 0.722000 0.996900
H69 H 0.703400 -0.176000 0.883300
H70 H 0.129900 0.739000 1.025300
H71 H -0.129900 0.239000 0.474700
H72 H -0.229800 0.222000 0.503100
H73 H -0.180800 -0.406000 0.619900
H74 H -0.082400 -0.362000 0.586500
H75 H -0.373400 -0.297000 0.661500
H76 H 0.197300 -0.759000 0.642600
H77 H 0.190600 -0.124000 0.749100
H78 H 0.291700 -0.040000 0.728100
H79 H 0.429100 -0.060000 0.670000
H80 H 0.296600 -0.676000 0.616700
H81 H -0.283500 -0.259000 0.618400
H82 H -0.320800 0.176000 0.539900
H83 H -0.471300 -0.303000 0.698200
H84 H -0.519000 0.309000 0.584100
H85 H 0.021400 0.238000 0.637000
H86 H 0.025600 0.438000 0.586500
H87 H 0.570900 0.440000 0.830000
H88 H 0.708300 0.460000 0.771900
H89 H 0.809400 0.376000 0.750900
H90 H 0.802700 -0.259000 0.857400
H91 H 1.373400 0.203000 -0.161500
H92 H 1.373400 0.203000 0.838500
H93 H 1.082400 0.138000 0.913500
H94 H 1.180800 0.094000 0.880100
H95 H -0.424700 0.321000 0.539100
H96 H 0.118600 -0.293000 0.804100
H97 H 0.059100 -0.459000 0.767000
H98 H 0.059100 0.959000 1.267000
H99 H 0.118600 0.793000 1.304100
H100 H -0.424700 0.179000 1.039100
H101 H 0.802700 -0.259000 -0.142600
H102 H 0.809400 0.376000 -0.249100
H103 H 0.708300 0.460000 -0.228100
H104 H 0.570900 0.440000 -0.170000
H105 H 0.703400 -0.176000 -0.116700
H106 H 1.283500 0.241000 -0.118400
H107 H 1.320800 0.676000 -0.039900
H108 H 1.471300 0.197000 -0.198200
H109 H 0.025600 0.062000 1.086500
H110 H 0.021400 0.262000 1.137000
H111 H -0.519000 0.191000 1.084100
H112 H -0.471300 0.803000 1.198200
H113 H -0.320800 0.324000 1.039900
H114 H -0.283500 0.759000 1.118400
H115 H 0.296600 1.176000 1.116700
H116 H 0.429100 0.560000 1.170000
H117 H 1.229800 0.722000 0.996900
H118 H 0.291700 0.540000 1.228100
H119 H 0.129900 0.761000 0.525300
H120 H 0.229800 0.778000 0.496900
H121 H 0.180800 1.406000 0.380100
H122 H 0.082400 1.362000 0.413500
H123 H 0.373400 1.297000 0.338500
H124 H -0.197300 1.759000 0.357400
H125 H -0.190600 1.124000 0.250900
H126 H -0.291700 1.040000 0.271900
H127 H -0.429100 1.060000 0.330000
H128 H -0.296600 1.676000 0.383300
H129 H 0.283500 1.259000 0.381600
H130 H 0.320800 0.824000 0.460100
H131 H 0.471300 1.303000 0.301800
H132 H 0.519000 0.691000 0.415900
H133 H -0.021400 0.762000 0.363000
H134 H -0.025600 0.562000 0.413500
H135 H 1.129900 0.739000 1.025300
H136 H 0.190600 0.624000 1.249100
H137 H 0.197300 1.259000 1.142600
H138 H -0.373400 0.797000 1.161500
H139 H -0.082400 0.862000 1.086500
H140 H -0.180800 0.906000 1.119900
H141 H -0.229800 0.278000 1.003100
H142 H -0.129900 0.261000 0.974700
H143 H 1.519000 0.809000 -0.084100
H144 H 0.424700 0.679000 0.460900
H145 H -0.118600 1.293000 0.195900
H146 H -0.059100 1.459000 0.233000
H147 H -0.059100 0.041000 -0.267000
H148 H -0.118600 0.207000 -0.304100
H149 H 0.424700 0.821000 -0.039100
H150 H 0.978600 0.738000 -0.137000
H151 H 0.974400 0.938000 -0.086500
H152 H 1.424700 0.821000 -0.039100
H153 H 0.881400 0.207000 -0.304100
H154 H 0.940900 0.041000 -0.267000
H155 H -0.025600 0.938000 -0.086500
H156 H -0.021400 0.738000 -0.137000
H157 H 0.519000 0.809000 -0.084100
H158 H 0.471300 0.197000 -0.198200
H159 H 0.320800 0.676000 -0.039900
H160 H 0.283500 0.241000 -0.118400
H161 H -0.296600 -0.176000 -0.116700
H162 H -0.429100 0.440000 -0.170000
H163 H -0.291700 0.460000 -0.228100
H164 H -0.190600 0.376000 -0.249100
H165 H -0.197300 -0.259000 -0.142600
H166 H 0.373400 0.203000 -0.161500
H167 H 0.082400 0.138000 -0.086500
H168 H -0.129900 1.239000 0.474700
H169 H -0.229800 1.222000 0.503100
H170 H -0.180800 0.594000 0.619900
H171 H -0.082400 0.638000 0.586500
H172 H -0.373400 0.703000 0.661500
H173 H 0.197300 0.241000 0.642600
H174 H 0.190600 0.876000 0.749100
H175 H 0.291700 0.960000 0.728100
H176 H 0.429100 0.940000 0.670000
H177 H 0.296600 0.324000 0.616700
H178 H -0.283500 0.741000 0.618400
H179 H -0.320800 1.176000 0.539900
H180 H -0.471300 0.697000 0.698200
H181 H -0.519000 1.309000 0.584100
H182 H 0.021400 1.238000 0.637000
H183 H 0.025600 1.438000 0.586500
H184 H 0.180800 0.094000 -0.119900
H185 H 0.229800 0.722000 -0.003100
H186 H 0.129900 0.739000 0.025300
H187 H 0.059100 0.959000 0.267000
H188 H 0.118600 0.793000 0.304100
H189 H -0.424700 0.179000 0.039100
H190 H 0.025600 0.062000 0.086500
H191 H 0.021400 0.262000 0.137000
H192 H -0.424700 1.321000 0.539100
H193 H 0.118600 0.707000 0.804100
H194 H 0.059100 0.541000 0.767000
H195 H -0.519000 0.191000 0.084100
H196 H -0.471300 0.803000 0.198200
H197 H -0.320800 0.324000 0.039900
H198 H -0.283500 0.759000 0.118400
H199 H 0.296600 1.176000 0.116700
H200 H 0.429100 0.560000 0.170000
H201 H 0.291700 0.540000 0.228100
H202 H 0.190600 0.624000 0.249100
H203 H 0.197300 1.259000 0.142600
H204 H -0.373400 0.797000 0.161500
H205 H -0.082400 0.862000 0.086500
H206 H -0.180800 0.906000 0.119900
H207 H -0.229800 0.278000 0.003100
H208 H -0.129900 0.261000 -0.025300
H209 H 1.059100 0.541000 0.767000
H210 H 1.118600 0.707000 0.804100
H211 H 0.575300 1.321000 0.539100
H212 H 1.025600 1.438000 0.586500
H213 H 1.021400 1.238000 0.637000
H214 H 0.481000 1.309000 0.584100
H215 H 0.528700 0.697000 0.698200
H216 H 1.129900 -0.239000 0.525300
H217 H 1.229800 -0.222000 0.496900
H218 H 1.180800 0.406000 0.380100
H219 H 1.082400 0.362000 0.413500
H220 H 1.373400 0.297000 0.338500
H221 H 0.802700 0.759000 0.357400
H222 H 0.809400 0.124000 0.250900
H223 H 0.708300 0.040000 0.271900
H224 H 0.570900 0.060000 0.330000
H225 H 0.703400 0.676000 0.383300
H226 H 1.283500 0.259000 0.381600
H227 H 1.320800 -0.176000 0.460100
H228 H 1.471300 0.303000 0.301800
H229 H 1.519000 -0.309000 0.415900
H230 H 0.978600 -0.238000 0.363000
H231 H 0.974400 -0.438000 0.413500
H232 H 0.679200 1.176000 0.539900
H233 H 0.716500 0.741000 0.618400
H234 H 1.296600 0.324000 0.616700
H235 H 1.429100 0.940000 0.670000
H236 H 1.059100 0.959000 1.267000
H237 H 1.291700 0.960000 0.728100
H238 H 1.118600 0.793000 1.304100
H239 H 0.575300 0.179000 1.039100
H240 H 1.190600 0.876000 0.749100
H241 H 1.424700 -0.321000 0.460900
H242 H 0.881400 0.293000 0.195900
H243 H 0.940900 0.459000 0.233000
H244 H 1.197300 0.241000 0.642600
H245 H 0.626600 0.703000 0.661500
H246 H 0.917600 0.638000 0.586500
H247 H 0.819200 0.594000 0.619900
H248 H 0.770200 1.222000 0.503100
H249 H 0.870100 1.239000 0.474700
H250 H 0.940900 1.459000 0.233000
H251 H 0.881400 1.293000 0.195900
H252 H 1.424700 0.679000 0.460900
H253 H 0.870100 0.261000 0.974700
H254 H 0.770200 0.278000 1.003100
H255 H 0.819200 0.906000 1.119900
H256 H 0.917600 0.862000 1.086500
H257 H 0.626600 0.797000 1.161500
H258 H 1.197300 1.259000 1.142600
H259 H 1.190600 0.624000 1.249100
H260 H 0.974400 0.562000 0.413500
H261 H 0.978600 0.762000 0.363000
H262 H 1.519000 0.691000 0.415900
H263 H 1.025600 0.062000 1.086500
H264 H 1.471300 1.303000 0.301800
H265 H 0.870100 0.239000 0.474700
H266 H 0.770200 0.222000 0.503100
H267 H 0.819200 -0.406000 0.619900
H268 H 0.917600 -0.362000 0.586500
H269 H 0.626600 -0.297000 0.661500
H270 H 1.197300 -0.759000 0.642600
H271 H 1.190600 -0.124000 0.749100
H272 H 1.291700 -0.040000 0.728100
H273 H 1.429100 -0.060000 0.670000
H274 H 1.296600 -0.676000 0.616700
H275 H 0.716500 -0.259000 0.618400
H276 H 0.679200 0.176000 0.539900
H277 H 0.528700 -0.303000 0.698200
H278 H 0.481000 0.309000 0.584100
H279 H 1.021400 0.238000 0.637000
H280 H 1.025600 0.438000 0.586500
H281 H 1.021400 0.262000 1.137000
H282 H 0.481000 0.191000 1.084100
H283 H 0.528700 0.803000 1.198200
H284 H 0.679200 0.324000 1.039900
H285 H 1.320800 0.824000 0.460100
H286 H 0.716500 0.759000 1.118400
H287 H 1.296600 1.176000 1.116700
H288 H 1.429100 0.560000 1.170000
H289 H 0.575300 0.321000 0.539100
H290 H 1.118600 -0.293000 0.804100
H291 H 1.059100 -0.459000 0.767000
H292 H 1.283500 1.259000 0.381600
H293 H 0.703400 1.676000 0.383300
H294 H 0.570900 1.060000 0.330000
H295 H 0.708300 1.040000 0.271900
H296 H 0.809400 1.124000 0.250900
H297 H 0.802700 1.759000 0.357400
H298 H 1.373400 1.297000 0.338500
H299 H 1.082400 1.362000 0.413500
H300 H 1.180800 1.406000 0.380100
H301 H 1.229800 0.778000 0.496900
H302 H 1.129900 0.761000 0.525300
H303 H 1.291700 0.540000 1.228100
H304 H 1.059100 0.959000 0.267000
C305 C 0.788000 1.237500 0.275970
C306 C 0.728450 1.188500 0.289030
C307 C 0.696010 1.348800 0.327900
C308 C 0.724090 1.563300 0.354000
C309 C 0.783170 1.614500 0.341150
C310 C 0.633080 1.293700 0.345360
C311 C 1.431040 0.807300 0.426400
C312 C 0.939860 1.173000 0.310690
C313 C 1.487730 0.820900 0.400820
C314 C 1.460130 1.171400 0.334610
C315 C 1.402410 1.170100 0.356810
C316 C 1.386690 0.984500 0.404160
C317 C 1.326190 0.966900 0.429950
C318 C 1.279630 1.119300 0.412600
C319 C 1.113660 1.244600 0.429960
C320 C 1.172290 1.267900 0.410700
C321 C 1.217890 1.096000 0.435010
C322 C 1.201140 0.903700 0.478760
C323 C 1.141810 0.892300 0.495580
C324 C 1.092480 -0.365900 0.750570
C325 C 1.060140 -0.173000 0.689310
C326 C 1.366920 -0.293700 0.654640
C327 C 1.216830 -0.614500 0.658850
C328 C 1.275910 -0.563300 0.646000
C329 C 1.303990 -0.348800 0.672100
C330 C 1.271550 -0.188500 0.710970
C331 C 1.212000 -0.237500 0.724030
C332 C 1.184950 -0.452800 0.699100
C333 C 0.568960 0.192700 0.573600
C334 C 0.907520 1.365900 0.249430
C335 C 0.512270 0.179100 0.599180
C336 C 0.539870 -0.171400 0.665390
C337 C 1.060140 0.673000 1.189310
C338 C 0.597590 -0.170100 0.643190
C339 C 0.613310 0.015500 0.595840
C340 C 0.673810 0.033100 0.570050
C341 C 0.858190 1.107700 0.504420
C342 C 0.798860 1.096300 0.521240
C343 C 0.782110 0.904000 0.564990
C344 C 0.827710 0.732100 0.589300
C345 C 0.886340 0.755400 0.570040
C346 C 0.720370 0.880700 0.587400
C347 C 0.673810 1.033100 0.570050
C348 C 0.613310 1.015500 0.595840
C349 C 0.597590 0.829900 0.643190
C350 C 0.539870 0.828600 0.665390
C351 C 0.512270 1.179100 0.599180
C352 C 0.568960 1.192700 0.573600
C353 C 1.184950 0.547200 0.699100
C354 C 1.212000 0.762500 0.724030
C355 C 1.271550 0.811500 0.710970
C356 C 1.303990 0.651200 0.672100
C357 C 1.275910 0.436700 0.646000
C358 C 1.216830 0.385500 0.658850
C359 C 1.366920 0.706300 0.654640
C360 C 1.366920 0.793700 1.154640
C361 C 1.060140 0.827000 0.689310
C362 C 0.720370 -0.119300 0.587400
C363 C 0.886340 -0.244600 0.570040
C364 C 0.827710 -0.267900 0.589300
C365 C 0.782110 -0.096000 0.564990
C366 C 0.798860 0.096300 0.521240
C367 C 0.858190 0.107700 0.504420
C368 C 1.092480 0.865900 1.250570
C369 C 0.907520 0.365900 0.249430
C370 C 1.141810 0.607700 0.995580
C371 C 1.201140 0.596300 0.978760
C372 C 1.217890 0.404000 0.935010
C373 C 1.172290 0.232100 0.910700
C374 C 0.939860 0.173000 0.310690
C375 C 1.113660 0.255400 0.929960
C376 C 0.633080 0.293700 0.345360
C377 C 0.783170 0.614500 0.341150
C378 C 1.216830 1.114500 1.158850
C379 C 1.275910 1.063300 1.146000
C380 C 1.303990 0.848800 1.172100
C381 C 1.271550 0.688500 1.210970
C382 C 1.092480 0.634100 0.750570
C383 C 1.212000 0.737500 1.224030
C384 C 1.184950 0.952800 1.199100
C385 C 0.568960 0.307300 1.073600
C386 C 0.724090 0.563300 0.354000
C387 C 0.696010 0.348800 0.327900
C388 C 0.728450 0.188500 0.289030
C389 C -0.141810 0.392300 0.004420
C390 C -0.201140 0.403700 0.021240
C391 C -0.217890 0.596000 0.064990
C392 C -0.172290 0.767900 0.089300
C393 C -0.113660 0.744600 0.070040
C394 C -0.279630 0.619300 0.087400
C395 C -0.326190 0.466900 0.070050
C396 C -0.386690 0.484500 0.095840
C397 C -0.402410 0.670100 0.143190
C398 C -0.460130 0.671400 0.165390
C399 C -0.487730 0.320900 0.099180
C400 C -0.431040 0.307300 0.073600
C401 C 0.184950 0.952800 0.199100
C402 C 0.212000 0.737500 0.224030
C403 C 0.271550 0.688500 0.210970
C404 C 0.303990 0.848800 0.172100
C405 C 0.275910 1.063300 0.146000
C406 C 0.216830 1.114500 0.158850
C407 C 0.366920 0.793700 0.154640
C408 C 0.512270 0.320900 1.099180
C409 C 0.060140 0.673000 0.189310
C410 C 0.788000 0.237500 0.275970
C411 C 0.815050 0.452800 0.300900
C412 C 1.431040 -0.192700 0.426400
C413 C 1.487730 -0.179100 0.400820
C414 C 1.460130 0.171400 0.334610
C415 C 1.402410 0.170100 0.356810
C416 C 1.386690 -0.015500 0.404160
C417 C 1.326190 -0.033100 0.429950
C418 C 1.279630 0.119300 0.412600
C419 C 1.113660 0.244600 0.429960
C420 C 1.172290 0.267900 0.410700
C421 C 1.217890 0.096000 0.435010
C422 C 1.201140 -0.096300 0.478760
C423 C 1.141810 -0.107700 0.495580
C424 C 1.279630 0.380700 0.912600
C425 C 1.326190 0.533100 0.929950
C426 C 0.539870 0.671400 1.165390
C427 C 0.597590 0.670100 1.143190
C428 C 0.613310 0.484500 1.095840
C429 C 0.673810 0.466900 1.070050
C430 C 0.720370 0.619300 1.087400
C431 C 0.092480 0.865900 0.250570
C432 C 0.886340 0.744600 1.070040
C433 C 0.827710 0.767900 1.089300
C434 C 0.782110 0.596000 1.064990
C435 C 1.386690 0.515500 0.904160
C436 C 0.092480 0.634100 0.750570
C437 C 1.402410 0.329900 0.856810
C438 C 0.141810 0.607700 -0.004420
C439 C 0.201140 0.596300 -0.021240
C440 C 0.217890 0.404000 -0.064990
C441 C 0.172290 0.232100 -0.089300
C442 C 0.113660 0.255400 -0.070040
C443 C 0.279630 0.380700 -0.087400
C444 C 0.326190 0.533100 -0.070050
C445 C 0.386690 0.515500 -0.095840
C446 C 0.402410 0.329900 -0.143190
C447 C 0.460130 0.328600 -0.165390
C448 C 0.487730 0.679100 -0.099180
C449 C 0.431040 0.692700 -0.073600
C450 C -0.184950 0.047200 -0.199100
C451 C -0.212000 0.262500 -0.224030
C452 C -0.271550 0.311500 -0.210970
C453 C -0.303990 0.151200 -0.172100
C454 C -0.275910 -0.063300 -0.146000
C455 C -0.216830 -0.114500 -0.158850
C456 C -0.366920 0.206300 -0.154640
C457 C 0.798860 0.403700 1.021240
C458 C -0.060140 0.327000 -0.189310
C459 C 1.460130 0.328600 0.834610
C460 C 1.487730 0.679100 0.900820
C461 C 1.431040 0.692700 0.926400
C462 C 0.060140 0.827000 0.689310
C463 C 0.815050 0.047200 0.800900
C464 C 0.366920 0.706300 0.654640
C465 C 0.216830 0.385500 0.658850
C466 C 0.275910 0.436700 0.646000
C467 C 0.303990 0.651200 0.672100
C468 C 0.271550 0.811500 0.710970
C469 C 0.212000 0.762500 0.724030
C470 C 0.184950 0.547200 0.699100
C471 C -0.431040 1.192700 0.573600
C472 C -0.487730 1.179100 0.599180
C473 C -0.460130 0.828600 0.665390
C474 C -0.402410 0.829900 0.643190
C475 C 0.858190 0.392300 1.004420
C476 C -0.386690 1.015500 0.595840
C477 C -0.326190 1.033100 0.570050
C478 C -0.279630 0.880700 0.587400
C479 C -0.092480 0.134100 -0.250570
C480 C 0.907520 0.134100 -0.250570
C481 C -0.113660 0.755400 0.570040
C482 C -0.172290 0.732100 0.589300
C483 C -0.217890 0.904000 0.564990
C484 C -0.201140 1.096300 0.521240
C485 C -0.141810 1.107700 0.504420
C486 C -0.141810 0.392300 1.004420
C487 C -0.201140 0.403700 1.021240
C488 C -0.217890 0.596000 1.064990
C489 C -0.172290 0.767900 1.089300
C490 C -0.113660 0.744600 1.070040
C491 C -0.279630 0.619300 1.087400
C492 C -0.326190 0.466900 1.070050
C493 C -0.386690 0.484500 1.095840
C494 C -0.402410 0.670100 1.143190
C495 C -0.460130 0.671400 1.165390
C496 C -0.487730 0.320900 1.099180
C497 C -0.431040 0.307300 1.073600
C498 C 0.184950 0.952800 1.199100
C499 C 0.212000 0.737500 1.224030
C500 C 0.271550 0.688500 1.210970
C501 C 0.303990 0.848800 1.172100
C502 C 0.275910 1.063300 1.146000
C503 C 0.216830 1.114500 1.158850
C504 C 0.366920 0.793700 1.154640
C505 C 0.788000 0.262500 0.775970
C506 C 0.060140 0.673000 1.189310
C507 C 0.728450 0.311500 0.789030
C508 C 0.696010 0.151200 0.827900
C509 C -0.092480 1.365900 0.249430
C510 C 0.724090 -0.063300 0.854000
C511 C 0.783170 -0.114500 0.841150
C512 C 0.633080 0.206300 0.845360
C513 C 0.939860 0.327000 0.810690
C514 C -0.060140 1.173000 0.310690
C515 C -0.366920 1.293700 0.345360
C516 C -0.216830 1.614500 0.341150
C517 C -0.275910 1.563300 0.354000
C518 C -0.303990 1.348800 0.327900
C519 C -0.271550 1.188500 0.289030
C520 C -0.212000 1.237500 0.275970
C521 C -0.184950 1.452800 0.300900
C522 C 0.431040 0.807300 0.426400
C523 C 0.487730 0.820900 0.400820
C524 C 0.460130 1.171400 0.334610
C525 C 0.402410 1.170100 0.356810
C526 C 0.386690 0.984500 0.404160
C527 C 0.326190 0.966900 0.429950
C528 C 0.092480 0.865900 1.250570
C529 C 0.279630 1.119300 0.412600
C530 C 0.113660 1.244600 0.429960
C531 C 0.172290 1.267900 0.410700
C532 C 0.217890 1.096000 0.435010
C533 C 0.201140 0.903700 0.478760
C534 C 0.141810 0.892300 0.495580
C535 C 0.141810 0.607700 0.995580
C536 C 0.201140 0.596300 0.978760
C537 C 0.217890 0.404000 0.935010
C538 C 0.172290 0.232100 0.910700
C539 C 0.113660 0.255400 0.929960
C540 C 0.279630 0.380700 0.912600
C541 C 0.326190 0.533100 0.929950
C542 C 0.386690 0.515500 0.904160
C543 C 0.402410 0.329900 0.856810
C544 C 0.460130 0.328600 0.834610
C545 C 0.487730 0.679100 0.900820
C546 C 0.431040 0.692700 0.926400
C547 C -0.184950 0.047200 0.800900
C548 C -0.212000 0.262500 0.775970
C549 C -0.271550 0.311500 0.789030
C550 C -0.303990 0.151200 0.827900
C551 C -0.275910 -0.063300 0.854000
C552 C -0.216830 -0.114500 0.841150
C553 C -0.366920 0.206300 0.845360
C554 C 0.092480 -0.365900 0.750570
C555 C -0.060140 0.327000 0.810690
C556 C 0.060140 -0.173000 0.689310
C557 C 0.366920 -0.293700 0.654640
C558 C 0.216830 -0.614500 0.658850
C559 C 0.275910 -0.563300 0.646000
C560 C 0.303990 -0.348800 0.672100
C561 C 0.271550 -0.188500 0.710970
C562 C 0.212000 -0.237500 0.724030
C563 C 0.184950 -0.452800 0.699100
C564 C -0.431040 0.192700 0.573600
C565 C -0.487730 0.179100 0.599180
C566 C -0.460130 -0.171400 0.665390
C567 C -0.402410 -0.170100 0.643190
C568 C -0.386690 0.015500 0.595840
C569 C -0.326190 0.033100 0.570050
C570 C -0.279630 -0.119300 0.587400
C571 C -0.113660 -0.244600 0.570040
C572 C -0.172290 -0.267900 0.589300
C573 C -0.217890 -0.096000 0.564990
C574 C -0.201140 0.096300 0.521240
C575 C -0.141810 0.107700 0.504420
C576 C -0.092480 0.134100 0.749430
C577 C 0.939860 0.327000 -0.189310
C578 C 0.633080 0.206300 -0.154640
C579 C 0.783170 -0.114500 -0.158850
C580 C -0.092480 0.365900 0.249430
C581 C 0.907520 0.134100 0.749430
C582 C -0.060140 0.173000 0.310690
C583 C 0.858190 0.392300 0.004420
C584 C 0.798860 0.403700 0.021240
C585 C 0.782110 0.596000 0.064990
C586 C 0.827710 0.767900 0.089300
C587 C 0.886340 0.744600 0.070040
C588 C 0.720370 0.619300 0.087400
C589 C 0.673810 0.466900 0.070050
C590 C 0.613310 0.484500 0.095840
C591 C 0.597590 0.670100 0.143190
C592 C 0.539870 0.671400 0.165390
C593 C 0.512270 0.320900 0.099180
C594 C 0.568960 0.307300 0.073600
C595 C 1.184950 0.952800 0.199100
C596 C 1.212000 0.737500 0.224030
C597 C 1.271550 0.688500 0.210970
C598 C 1.303990 0.848800 0.172100
C599 C 1.275910 1.063300 0.146000
C600 C 1.216830 1.114500 0.158850
C601 C 1.366920 0.793700 0.154640
C602 C 0.724090 -0.063300 -0.146000
C603 C 1.060140 0.673000 0.189310
C604 C -0.366920 0.293700 0.345360
C605 C -0.216830 0.614500 0.341150
C606 C -0.275910 0.563300 0.354000
C607 C -0.303990 0.348800 0.327900
C608 C -0.271550 0.188500 0.289030
C609 C -0.212000 0.237500 0.275970
C610 C -0.184950 0.452800 0.300900
C611 C 0.431040 -0.192700 0.426400
C612 C 0.487730 -0.179100 0.400820
C613 C 0.460130 0.171400 0.334610
C614 C 0.402410 0.170100 0.356810
C615 C 0.386690 -0.015500 0.404160
C616 C 0.326190 -0.033100 0.429950
C617 C 0.279630 0.119300 0.412600
C618 C 0.113660 0.244600 0.429960
C619 C 0.172290 0.267900 0.410700
C620 C 0.696010 0.151200 -0.172100
C621 C 0.728450 0.311500 -0.210970
C622 C 0.788000 0.262500 -0.224030
C623 C 0.815050 0.047200 -0.199100
C624 C 1.431040 0.692700 -0.073600
C625 C 1.092480 0.865900 0.250570
C626 C 1.487730 0.679100 -0.099180
C627 C 1.460130 0.328600 -0.165390
C628 C 1.402410 0.329900 -0.143190
C629 C 0.217890 0.096000 0.435010
C630 C 0.201140 -0.096300 0.478760
C631 C 0.815050 1.452800 0.300900
C632 C 1.141810 0.607700 -0.004420
C633 C 1.201140 0.596300 -0.021240
C634 C 1.217890 0.404000 -0.064990
C635 C 1.172290 0.232100 -0.089300
C636 C 1.113660 0.255400 -0.070040
C637 C 1.279630 0.380700 -0.087400
C638 C 1.326190 0.533100 -0.070050
C639 C 1.386690 0.515500 -0.095840
C640 C 0.141810 -0.107700 0.495580
N641 N 1.097910 0.440300 0.972060
N642 N 0.502380 0.000100 0.355850
N643 N -0.097910 -0.059700 0.527940
N644 N -0.502380 -0.000100 0.644150
N645 N 0.497620 0.500100 0.144150
N646 N 0.902090 0.559700 0.027940
N647 N 0.097910 1.059700 0.472060
N648 N 0.502380 1.000100 0.355850
N649 N -0.097910 0.940300 0.527940
N650 N -0.502380 0.999900 0.644150
N651 N 1.097910 0.059700 0.472060
N652 N 1.502380 0.000100 0.355850
N653 N 0.497620 0.500100 1.144150
N654 N 0.902090 0.559700 1.027940
N655 N 0.502380 0.499900 0.855850
N656 N 0.097910 0.440300 0.972060
N657 N 0.097910 0.059700 0.472060
N658 N 0.902090 -0.059700 0.527940
N659 N 0.497620 -0.000100 0.644150
N660 N 1.097910 1.059700 0.472060
N661 N 1.502380 1.000100 0.355850
N662 N 1.502380 0.499900 0.855850
N663 N -0.502380 0.500100 1.144150
N664 N -0.097910 0.559700 1.027940
N665 N 0.902090 0.940300 0.527940
N666 N 0.497620 0.999900 0.644150
N667 N -0.097910 0.559700 0.027940
N668 N -0.502380 0.500100 0.144150
N669 N 1.097910 0.440300 -0.027940
N670 N 1.502380 0.499900 -0.144150
N671 N 0.097910 0.440300 -0.027940
N672 N 0.502380 0.499900 -0.144150
O673 O -0.050060 0.512650 -0.223420
O674 O 0.949940 0.512650 -0.223420
O675 O 0.955840 0.277050 -0.108170
O676 O 0.993310 0.802240 -0.086690
O677 O -0.394230 0.074000 -0.115820
O678 O -0.388460 0.412500 -0.182590
O679 O 0.605770 0.074000 -0.115820
O680 O 0.611540 0.412500 -0.182590
O681 O -0.127820 -0.024240 -0.210660
O682 O 0.006690 0.197760 0.086690
O683 O 0.044160 0.722950 0.108170
O684 O 0.050060 0.487350 0.223420
O685 O 0.394230 0.926000 0.115820
O686 O 0.388460 0.587500 0.182590
O687 O -0.044160 0.277050 -0.108170
O688 O -0.006690 0.802240 -0.086690
O689 O 0.955840 0.277050 0.891830
O690 O 0.127820 1.024240 0.210660
O691 O 1.006690 1.302240 0.586690
O692 O 1.044160 0.777050 0.608170
O693 O 1.050060 1.012650 0.723420
O694 O 1.394230 0.574000 0.615820
O695 O 1.388460 0.912500 0.682590
O696 O 0.127820 1.024240 1.210660
O697 O 0.993310 0.802240 0.913310
O698 O 1.127820 0.475760 0.710660
O699 O 1.127820 1.024240 1.210660
O700 O 0.993310 0.697760 0.413310
O701 O 0.955840 1.222950 0.391830
O702 O 0.949940 0.987350 0.276580
O703 O 0.605770 1.426000 0.384180
O704 O 0.388460 0.587500 1.182590
O705 O 0.394230 0.926000 1.115820
O706 O 0.050060 0.487350 1.223420
O707 O 0.949940 0.512650 0.776580
O708 O 0.872180 1.524240 0.289340
O709 O 1.006690 0.302240 0.586690
O710 O 1.044160 -0.222950 0.608170
O711 O 1.050060 0.012650 0.723420
O712 O 1.394230 -0.426000 0.615820
O713 O 1.388460 -0.087500 0.682590
O714 O 0.044160 0.722950 1.108170
O715 O 0.006690 0.197760 1.086690
O716 O 1.127820 -0.524240 0.710660
O717 O -0.127820 -0.024240 0.789340
O718 O -0.388460 0.412500 0.817410
O719 O -0.394230 0.074000 0.884180
O720 O 1.388460 0.587500 1.182590
O721 O 1.394230 0.926000 1.115820
O722 O 0.993310 -0.302240 0.413310
O723 O 1.050060 0.487350 1.223420
O724 O 1.044160 0.722950 1.108170
O725 O 1.006690 0.197760 1.086690
O726 O 0.955840 0.222950 0.391830
O727 O 0.949940 -0.012650 0.276580
O728 O 0.605770 0.426000 0.384180
O729 O 0.611540 0.087500 0.317410
O730 O -0.050060 0.512650 0.776580
O731 O 0.872180 -0.024240 -0.210660
O732 O 0.605770 0.074000 0.884180
O733 O 0.872180 0.524240 0.289340
O734 O 0.006690 1.302240 0.586690
O735 O 0.044160 0.777050 0.608170
O736 O 0.050060 1.012650 0.723420
O737 O 0.394230 0.574000 0.615820
O738 O 0.388460 0.912500 0.682590
O739 O -0.044160 0.277050 0.891830
O740 O -0.006690 0.802240 0.913310
O741 O 0.127820 0.475760 0.710660
O742 O -0.006690 0.697760 0.413310
O743 O -0.044160 1.222950 0.391830
O744 O -0.050060 0.987350 0.276580
O745 O -0.394230 1.426000 0.384180
O746 O -0.388460 1.087500 0.317410
O747 O 1.127820 1.024240 0.210660
O748 O 0.872180 -0.024240 0.789340
O749 O -0.127820 0.524240 0.289340
O750 O 0.611540 0.412500 0.817410
O751 O -0.127820 1.524240 0.289340
O752 O 0.006690 0.302240 0.586690
O753 O 0.044160 -0.222950 0.608170
O754 O 0.050060 0.012650 0.723420
O755 O 0.394230 -0.426000 0.615820
O756 O 0.388460 -0.087500 0.682590
O757 O 1.388460 0.587500 0.182590
O758 O 1.394230 0.926000 0.115820
O759 O 0.127820 -0.524240 0.710660
O760 O -0.006690 -0.302240 0.413310
O761 O -0.044160 0.222950 0.391830
O762 O -0.050060 -0.012650 0.276580
O763 O -0.394230 0.426000 0.384180
O764 O -0.388460 0.087500 0.317410
O765 O 1.050060 0.487350 0.223420
O766 O 1.044160 0.722950 0.108170
O767 O 0.611540 1.087500 0.317410
O768 O 1.006690 0.197760 0.086690
Mn769 Mn 1.000000 0.000000 0.500000
Mn770 Mn 1.000000 0.500000 1.000000
Mn771 Mn 1.000000 1.000000 0.500000
Mn772 Mn 0.000000 0.500000 0.000000
Mn773 Mn 0.000000 0.500000 1.000000
Mn774 Mn 0.000000 0.000000 0.500000
Mn775 Mn 1.000000 0.500000 0.000000
Mn776 Mn 0.000000 1.000000 0.500000

#END
