./ABUMIT_from_POSCAR.cif_generated_by_CrystalShift
_symmetry_cell_setting triclinic
_symmetry_space_group_name_H-M 'P 1'
loop_
_symmetry_equiv_pos_site_id
_symmetry_equiv_pos_as_xyz
1 x,y,z
_cell_length_a 3.949500
_cell_length_b 10.626000
_cell_length_c 15.270000
_cell_angle_alpha 90.000000
_cell_angle_beta 97.000000
_cell_angle_gamma 90.000000
_cell_volume 636.065260
loop_
_atom_site_label
_atom_site_type_symbol
_atom_site_fract_x
_atom_site_fract_y
_atom_site_fract_z
H1 H 0.251100 0.094800 0.784500
H2 H 0.210500 0.040500 0.932100
H3 H 0.415500 0.178800 1.045900
H4 H 0.658000 0.370600 1.013700
H5 H 0.751100 0.405200 0.284500
H6 H -0.158000 0.870600 0.486300
H7 H 0.710500 0.459500 0.432100
H8 H 0.084500 0.678800 0.454100
H9 H 0.915500 0.321200 0.545900
H10 H 0.289500 0.540500 0.567900
H11 H 1.158000 0.129400 0.513700
H12 H 0.248900 0.594800 0.715500
H13 H 0.748900 0.905200 0.215500
H14 H 0.789500 0.959500 0.067900
H15 H 0.584500 0.821200 -0.045900
H16 H 0.342000 0.629400 -0.013700
C17 C 0.424400 0.685800 0.033240
C18 C 0.399000 0.652800 0.120180
C19 C 0.568500 0.798800 0.014340
C20 C 0.519200 0.734800 0.187680
C21 C 0.689000 0.880800 0.081640
C22 C 0.311000 0.119200 0.918360
C23 C 0.664700 0.848800 0.168670
C24 C 0.019200 0.765200 0.687680
C25 C 0.431500 0.201200 0.985660
C26 C -0.101000 0.847200 0.620180
C27 C 0.980800 0.234800 0.312320
C28 C 1.101000 0.152800 0.379820
C29 C 1.075600 0.185800 0.466760
C30 C 0.164700 0.651200 0.668670
C31 C 0.931500 0.298800 0.485660
C32 C 0.189000 0.619200 0.581640
C33 C 0.811000 0.380800 0.418360
C34 C 0.068500 0.701200 0.514340
C35 C 0.835300 0.348800 0.331330
C36 C -0.075600 0.814200 0.533240
C37 C 0.575600 0.314200 0.966760
C38 C 0.601000 0.347200 0.879820
C39 C 0.480800 0.265200 0.812320
C40 C 0.335300 0.151200 0.831330
Cl41 Cl 1.276500 0.008940 0.357030
Cl42 Cl 1.008700 0.196500 0.203080
Cl43 Cl 0.491300 0.696500 0.296920
Cl44 Cl 0.223500 0.508940 0.142970
Cl45 Cl -0.276500 0.991060 0.642970
Cl46 Cl 0.508700 0.303500 0.703080
Cl47 Cl 0.776500 0.491060 0.857030
Cl48 Cl -0.008700 0.803500 0.796920

#END
