
#######################################################################
#
#                 Cambridge Crystallographic Data Centre
#                                CCDC 
#
#######################################################################
#
# If this CIF has been generated from an entry in the Cambridge 
# Structural Database, then it will include bibliographic, chemical, 
# crystal, experimental, refinement or atomic coordinate data resulting 
# from the CCDC's data processing and validation procedures.
#
#######################################################################

data_ABURIY
_symmetry_cell_setting           monoclinic
_symmetry_space_group_name_H-M   'P 21/c'
_symmetry_Int_Tables_number      14
_space_group_name_Hall           '-P 2ybc'
loop_
_symmetry_equiv_pos_site_id
_symmetry_equiv_pos_as_xyz
1 x,y,z
2 x,1/2-y,1/2+z
3 -x,-y,-z
4 -x,1/2+y,1/2-z
_cell_length_a                   11.2389(11)
_cell_length_b                   8.1296(4)
_cell_length_c                   40.637(4)
_cell_angle_alpha                90
_cell_angle_beta                 92.584(5)
_cell_angle_gamma                90
_cell_volume                     3709.14
loop_
_atom_site_label
_atom_site_type_symbol
_atom_site_fract_x
_atom_site_fract_y
_atom_site_fract_z
C1 C 0.9835(4) 0.0383(6) 0.63942(12)
H1 H 0.9099 -0.0011 0.6282
C2 C 0.9672(4) 0.2175(6) 0.64704(11)
H2 H 1.0246 0.2650 0.6613
C3 C 0.8822(4) 0.3135(7) 0.63603(11)
H3 H 0.8261 0.2689 0.6211
C4 C 0.8669(5) 0.4908(6) 0.64547(12)
H4 H 0.9331 0.5243 0.6601
H5 H 0.8676 0.5589 0.6259
C5 C 0.7530(5) 0.5170(7) 0.66219(15)
H6 H 0.6854 0.5376 0.6488
C6 C 0.7397(5) 0.5134(7) 0.69406(15)
H7 H 0.6631 0.5342 0.7008
C7 C 0.8308(5) 0.4803(7) 0.72077(12)
H8 H 0.8321 0.5715 0.7362
H9 H 0.9084 0.4747 0.7113
C8 C 0.8094(5) 0.3202(7) 0.73973(12)
H10 H 0.8696 0.3097 0.7575
H11 H 0.7323 0.3256 0.7494
C9 C 0.8136(5) 0.1718(8) 0.71805(13)
H12 H 0.7462 0.1514 0.7045
C10 C 0.9001(5) 0.0696(7) 0.71608(13)
H13 H 0.9661 0.0874 0.7303
C11 C 0.9063(5) -0.0750(7) 0.69347(13)
H14 H 0.8315 -0.0833 0.6807
H15 H 0.9152 -0.1741 0.7067
C12 C 1.0073(5) -0.0679(6) 0.66987(12)
H16 H 1.0245 -0.1790 0.6628
H17 H 1.0779 -0.0266 0.6817
C13 C 1.0829(4) 0.0154(7) 0.61626(12)
H18 H 1.1560 0.0639 0.6255
H19 H 1.0967 -0.1007 0.6124
O1 O 1.0462(3) 0.0967(5) 0.58575(9)
C14 C 1.1138(5) 0.0816(7) 0.56000(13)
O2 O 1.2066(3) 0.0089(5) 0.56053(8)
C15 C 1.0586(4) 0.1661(6) 0.53080(13)
C16 C 0.9519(4) 0.2502(6) 0.53198(13)
H20 H 0.9143 0.2577 0.5519
C17 C 0.9002(4) 0.3228(6) 0.50431(14)
H21 H 0.8281 0.3784 0.5051
C18 C 0.9588(5) 0.3108(6) 0.47519(13)
C19 C 1.0644(4) 0.2273(6) 0.47289(13)
H22 H 1.1009 0.2183 0.4529
C20 C 1.1146(4) 0.1574(6) 0.50113(14)
H23 H 1.1873 0.1033 0.5003
N1 N 0.9021(5) 0.3875(6) 0.44549(14)
O3 O 0.8080(4) 0.4616(6) 0.44790(10)
O4 O 0.9539(4) 0.3767(6) 0.41992(10)
C1 C 0.9835(4) 0.4617(6) 0.13942(12)
H1 H 0.9099 0.5011 0.1282
C2 C 0.9672(4) 0.2825(6) 0.14704(11)
H2 H 1.0246 0.2350 0.1613
C3 C 0.8822(4) 0.1865(7) 0.13603(11)
H3 H 0.8261 0.2311 0.1211
C4 C 0.8669(5) 0.0092(6) 0.14547(12)
H4 H 0.9331 -0.0243 0.1601
H5 H 0.8676 -0.0589 0.1259
C5 C 0.7530(5) -0.0170(7) 0.16219(15)
H6 H 0.6854 -0.0376 0.1488
C6 C 0.7397(5) -0.0134(7) 0.19406(15)
H7 H 0.6631 -0.0342 0.2008
C7 C 0.8308(5) 0.0197(7) 0.22077(12)
H8 H 0.8321 -0.0715 0.2362
H9 H 0.9084 0.0253 0.2113
C8 C 0.8094(5) 0.1798(7) 0.23973(12)
H10 H 0.8696 0.1903 0.2575
H11 H 0.7323 0.1744 0.2494
C9 C 0.8136(5) 0.3282(8) 0.21805(13)
H12 H 0.7462 0.3486 0.2045
C10 C 0.9001(5) 0.4304(7) 0.21608(13)
H13 H 0.9661 0.4126 0.2303
C11 C 0.9063(5) 0.5750(7) 0.19347(13)
H14 H 0.8315 0.5833 0.1807
H15 H 0.9152 0.6741 0.2067
C12 C 1.0073(5) 0.5679(6) 0.16987(12)
H16 H 1.0245 0.6790 0.1628
H17 H 1.0779 0.5266 0.1817
C13 C 1.0829(4) 0.4846(7) 0.11626(12)
H18 H 1.1560 0.4361 0.1255
H19 H 1.0967 0.6007 0.1124
O1 O 1.0462(3) 0.4033(5) 0.08575(9)
C14 C 1.1138(5) 0.4184(7) 0.06000(13)
O2 O 1.2066(3) 0.4911(5) 0.06053(8)
C15 C 1.0586(4) 0.3339(6) 0.03080(13)
C16 C 0.9519(4) 0.2498(6) 0.03198(13)
H20 H 0.9143 0.2423 0.0519
C17 C 0.9002(4) 0.1772(6) 0.00431(14)
H21 H 0.8281 0.1216 0.0051
C18 C 0.9588(5) 0.1892(6) -0.02481(13)
C19 C 1.0644(4) 0.2727(6) -0.02711(13)
H22 H 1.1009 0.2817 -0.0471
C20 C 1.1146(4) 0.3426(6) 0.00113(14)
H23 H 1.1873 0.3967 0.0003
N1 N 0.9021(5) 0.1125(6) -0.05451(14)
O3 O 0.8080(4) 0.0384(6) -0.05210(10)
O4 O 0.9539(4) 0.1233(6) -0.08008(10)
C1 C 0.0165(4) 0.9617(6) 0.36058(12)
H1 H 0.0901 1.0011 0.3718
C2 C 0.0328(4) 0.7825(6) 0.35296(11)
H2 H -0.0246 0.7350 0.3387
C3 C 0.1178(4) 0.6865(7) 0.36397(11)
H3 H 0.1739 0.7311 0.3789
C4 C 0.1331(5) 0.5092(6) 0.35453(12)
H4 H 0.0669 0.4757 0.3399
H5 H 0.1324 0.4411 0.3741
C5 C 0.2470(5) 0.4830(7) 0.33781(15)
H6 H 0.3146 0.4624 0.3512
C6 C 0.2603(5) 0.4866(7) 0.30594(15)
H7 H 0.3369 0.4658 0.2992
C7 C 0.1692(5) 0.5197(7) 0.27923(12)
H8 H 0.1679 0.4285 0.2638
H9 H 0.0916 0.5253 0.2887
C8 C 0.1906(5) 0.6798(7) 0.26027(12)
H10 H 0.1304 0.6903 0.2425
H11 H 0.2677 0.6744 0.2506
C9 C 0.1864(5) 0.8282(8) 0.28195(13)
H12 H 0.2538 0.8486 0.2955
C10 C 0.0999(5) 0.9304(7) 0.28392(13)
H13 H 0.0339 0.9126 0.2697
C11 C 0.0937(5) 1.0750(7) 0.30653(13)
H14 H 0.1685 1.0833 0.3193
H15 H 0.0848 1.1741 0.2933
C12 C -0.0073(5) 1.0679(6) 0.33013(12)
H16 H -0.0245 1.1790 0.3372
H17 H -0.0779 1.0266 0.3183
C13 C -0.0829(4) 0.9846(7) 0.38374(12)
H18 H -0.1560 0.9361 0.3745
H19 H -0.0967 1.1007 0.3876
O1 O -0.0462(3) 0.9033(5) 0.41425(9)
C14 C -0.1138(5) 0.9184(7) 0.44000(13)
O2 O -0.2066(3) 0.9911(5) 0.43947(8)
C15 C -0.0586(4) 0.8339(6) 0.46920(13)
C16 C 0.0481(4) 0.7498(6) 0.46802(13)
H20 H 0.0857 0.7423 0.4481
C17 C 0.0998(4) 0.6772(6) 0.49569(14)
H21 H 0.1719 0.6216 0.4949
C18 C 0.0412(5) 0.6892(6) 0.52481(13)
C19 C -0.0644(4) 0.7727(6) 0.52711(13)
H22 H -0.1009 0.7817 0.5471
C20 C -0.1146(4) 0.8426(6) 0.49887(14)
H23 H -0.1873 0.8967 0.4997
N1 N 0.0979(5) 0.6125(6) 0.55451(14)
O3 O 0.1920(4) 0.5384(6) 0.55210(10)
O4 O 0.0461(4) 0.6233(6) 0.58008(10)
C1 C 0.0165(4) 0.5383(6) 0.86058(12)
H1 H 0.0901 0.4989 0.8718
C2 C 0.0328(4) 0.7175(6) 0.85296(11)
H2 H -0.0246 0.7650 0.8387
C3 C 0.1178(4) 0.8135(7) 0.86397(11)
H3 H 0.1739 0.7689 0.8789
C4 C 0.1331(5) 0.9908(6) 0.85453(12)
H4 H 0.0669 1.0243 0.8399
H5 H 0.1324 1.0589 0.8741
C5 C 0.2470(5) 1.0170(7) 0.83781(15)
H6 H 0.3146 1.0376 0.8512
C6 C 0.2603(5) 1.0134(7) 0.80594(15)
H7 H 0.3369 1.0342 0.7992
C7 C 0.1692(5) 0.9803(7) 0.77923(12)
H8 H 0.1679 1.0715 0.7638
H9 H 0.0916 0.9747 0.7887
C8 C 0.1906(5) 0.8202(7) 0.76027(12)
H10 H 0.1304 0.8097 0.7425
H11 H 0.2677 0.8256 0.7506
C9 C 0.1864(5) 0.6718(8) 0.78195(13)
H12 H 0.2538 0.6514 0.7955
C10 C 0.0999(5) 0.5696(7) 0.78392(13)
H13 H 0.0339 0.5874 0.7697
C11 C 0.0937(5) 0.4250(7) 0.80653(13)
H14 H 0.1685 0.4167 0.8193
H15 H 0.0848 0.3259 0.7933
C12 C -0.0073(5) 0.4321(6) 0.83013(12)
H16 H -0.0245 0.3210 0.8372
H17 H -0.0779 0.4734 0.8183
C13 C -0.0829(4) 0.5154(7) 0.88374(12)
H18 H -0.1560 0.5639 0.8745
H19 H -0.0967 0.3993 0.8876
O1 O -0.0462(3) 0.5967(5) 0.91425(9)
C14 C -0.1138(5) 0.5816(7) 0.94000(13)
O2 O -0.2066(3) 0.5089(5) 0.93947(8)
C15 C -0.0586(4) 0.6661(6) 0.96920(13)
C16 C 0.0481(4) 0.7502(6) 0.96802(13)
H20 H 0.0857 0.7577 0.9481
C17 C 0.0998(4) 0.8228(6) 0.99569(14)
H21 H 0.1719 0.8784 0.9949
C18 C 0.0412(5) 0.8108(6) 1.02481(13)
C19 C -0.0644(4) 0.7273(6) 1.02711(13)
H22 H -0.1009 0.7183 1.0471
C20 C -0.1146(4) 0.6574(6) 0.99887(14)
H23 H -0.1873 0.6033 0.9997
N1 N 0.0979(5) 0.8875(6) 1.05451(14)
O3 O 0.1920(4) 0.9616(6) 1.05210(10)
O4 O 0.0461(4) 0.8767(6) 1.08008(10)
C21 C 0.4845(4) 0.0507(6) 0.62693(11)
H24 H 0.4104 0.0078 0.6166
C22 C 0.4642(4) 0.2266(6) 0.63574(10)
H25 H 0.5216 0.2760 0.6497
C23 C 0.3739(4) 0.3178(6) 0.62579(10)
H26 H 0.3170 0.2705 0.6114
C24 C 0.3552(4) 0.4941(6) 0.63586(11)
H27 H 0.4253 0.5323 0.6484
H28 H 0.3458 0.5618 0.6163
C25 C 0.2489(4) 0.5145(6) 0.65597(13)
H29 H 0.1766 0.5324 0.6445
C26 C 0.2464(5) 0.5101(6) 0.68817(14)
H30 H 0.1724 0.5250 0.6971
C27 C 0.3493(5) 0.4836(6) 0.71197(12)
H31 H 0.3544 0.5758 0.7271
H32 H 0.4220 0.4818 0.7000
C28 C 0.3414(5) 0.3228(7) 0.73199(11)
H33 H 0.4099 0.3152 0.7473
H34 H 0.2704 0.3257 0.7447
C29 C 0.3373(5) 0.1745(7) 0.71038(12)
H35 H 0.2656 0.1530 0.6988
C30 C 0.4232(5) 0.0737(7) 0.70619(12)
H36 H 0.4924 0.0914 0.7191
C31 C 0.4250(5) -0.0693(6) 0.68287(12)
H37 H 0.3469 -0.0794 0.6719
H38 H 0.4395 -0.1690 0.6956
C32 C 0.5179(4) -0.0576(6) 0.65671(12)
H39 H 0.5340 -0.1678 0.6489
H40 H 0.5913 -0.0157 0.6671
C33 C 0.5804(4) 0.0358(6) 0.60234(12)
H41 H 0.6534 0.0870 0.6109
H42 H 0.5966 -0.0791 0.5979
O5 O 0.5380(3) 0.1173(4) 0.57260(8)
C34 C 0.6020(4) 0.1059(6) 0.54625(13)
O6 O 0.6946(3) 0.0333(5) 0.54560(8)
C35 C 0.5436(4) 0.1930(6) 0.51782(12)
C36 C 0.4366(4) 0.2749(5) 0.52094(12)
H43 H 0.4013 0.2771 0.5412
C37 C 0.3825(4) 0.3530(6) 0.49428(13)
H44 H 0.3106 0.4079 0.4963
C38 C 0.4364(4) 0.3485(6) 0.46460(12)
C39 C 0.5421(5) 0.2677(6) 0.46087(13)
H45 H 0.5766 0.2649 0.4405
C40 C 0.5962(4) 0.1910(6) 0.48771(13)
H46 H 0.6686 0.1374 0.4856
N2 N 0.3763(5) 0.4304(6) 0.43603(12)
O7 O 0.2884(4) 0.5121(6) 0.44040(10)
O8 O 0.4192(4) 0.4113(6) 0.40951(10)
C21 C 0.4845(4) 0.4493(6) 0.12693(11)
H24 H 0.4104 0.4922 0.1166
C22 C 0.4642(4) 0.2734(6) 0.13574(10)
H25 H 0.5216 0.2240 0.1497
C23 C 0.3739(4) 0.1822(6) 0.12579(10)
H26 H 0.3170 0.2295 0.1114
C24 C 0.3552(4) 0.0059(6) 0.13586(11)
H27 H 0.4253 -0.0323 0.1484
H28 H 0.3458 -0.0618 0.1163
C25 C 0.2489(4) -0.0145(6) 0.15597(13)
H29 H 0.1766 -0.0324 0.1445
C26 C 0.2464(5) -0.0101(6) 0.18817(14)
H30 H 0.1724 -0.0250 0.1971
C27 C 0.3493(5) 0.0164(6) 0.21197(12)
H31 H 0.3544 -0.0758 0.2271
H32 H 0.4220 0.0182 0.2000
C28 C 0.3414(5) 0.1772(7) 0.23199(11)
H33 H 0.4099 0.1848 0.2473
H34 H 0.2704 0.1743 0.2447
C29 C 0.3373(5) 0.3255(7) 0.21038(12)
H35 H 0.2656 0.3470 0.1988
C30 C 0.4232(5) 0.4263(7) 0.20619(12)
H36 H 0.4924 0.4086 0.2191
C31 C 0.4250(5) 0.5693(6) 0.18287(12)
H37 H 0.3469 0.5794 0.1719
H38 H 0.4395 0.6690 0.1956
C32 C 0.5179(4) 0.5576(6) 0.15671(12)
H39 H 0.5340 0.6678 0.1489
H40 H 0.5913 0.5157 0.1671
C33 C 0.5804(4) 0.4642(6) 0.10234(12)
H41 H 0.6534 0.4130 0.1109
H42 H 0.5966 0.5791 0.0979
O5 O 0.5380(3) 0.3827(4) 0.07260(8)
C34 C 0.6020(4) 0.3941(6) 0.04625(13)
O6 O 0.6946(3) 0.4667(5) 0.04560(8)
C35 C 0.5436(4) 0.3070(6) 0.01782(12)
C36 C 0.4366(4) 0.2251(5) 0.02094(12)
H43 H 0.4013 0.2229 0.0412
C37 C 0.3825(4) 0.1470(6) -0.00572(13)
H44 H 0.3106 0.0921 -0.0037
C38 C 0.4364(4) 0.1515(6) -0.03540(12)
C39 C 0.5421(5) 0.2323(6) -0.03913(13)
H45 H 0.5766 0.2351 -0.0595
C40 C 0.5962(4) 0.3090(6) -0.01229(13)
H46 H 0.6686 0.3626 -0.0144
N2 N 0.3763(5) 0.0696(6) -0.06397(12)
O7 O 0.2884(4) -0.0121(6) -0.05960(10)
O8 O 0.4192(4) 0.0887(6) -0.09049(10)
C21 C 0.5155(4) 0.9493(6) 0.37307(11)
H24 H 0.5896 0.9922 0.3834
C22 C 0.5358(4) 0.7734(6) 0.36426(10)
H25 H 0.4784 0.7240 0.3503
C23 C 0.6261(4) 0.6822(6) 0.37421(10)
H26 H 0.6830 0.7295 0.3886
C24 C 0.6448(4) 0.5059(6) 0.36414(11)
H27 H 0.5747 0.4677 0.3516
H28 H 0.6542 0.4382 0.3837
C25 C 0.7511(4) 0.4855(6) 0.34403(13)
H29 H 0.8234 0.4676 0.3555
C26 C 0.7536(5) 0.4899(6) 0.31183(14)
H30 H 0.8276 0.4750 0.3029
C27 C 0.6507(5) 0.5164(6) 0.28803(12)
H31 H 0.6456 0.4242 0.2729
H32 H 0.5780 0.5182 0.3000
C28 C 0.6586(5) 0.6772(7) 0.26801(11)
H33 H 0.5901 0.6848 0.2527
H34 H 0.7296 0.6743 0.2553
C29 C 0.6627(5) 0.8255(7) 0.28962(12)
H35 H 0.7344 0.8470 0.3012
C30 C 0.5768(5) 0.9263(7) 0.29381(12)
H36 H 0.5076 0.9086 0.2809
C31 C 0.5750(5) 1.0693(6) 0.31713(12)
H37 H 0.6531 1.0794 0.3281
H38 H 0.5605 1.1690 0.3044
C32 C 0.4821(4) 1.0576(6) 0.34329(12)
H39 H 0.4660 1.1678 0.3511
H40 H 0.4087 1.0157 0.3329
C33 C 0.4196(4) 0.9642(6) 0.39766(12)
H41 H 0.3466 0.9130 0.3891
H42 H 0.4034 1.0791 0.4021
O5 O 0.4620(3) 0.8827(4) 0.42740(8)
C34 C 0.3980(4) 0.8941(6) 0.45375(13)
O6 O 0.3054(3) 0.9667(5) 0.45440(8)
C35 C 0.4564(4) 0.8070(6) 0.48218(12)
C36 C 0.5634(4) 0.7251(5) 0.47906(12)
H43 H 0.5987 0.7229 0.4588
C37 C 0.6175(4) 0.6470(6) 0.50572(13)
H44 H 0.6894 0.5921 0.5037
C38 C 0.5636(4) 0.6515(6) 0.53540(12)
C39 C 0.4579(5) 0.7323(6) 0.53913(13)
H45 H 0.4234 0.7351 0.5595
C40 C 0.4038(4) 0.8090(6) 0.51229(13)
H46 H 0.3314 0.8626 0.5144
N2 N 0.6237(5) 0.5696(6) 0.56397(12)
O7 O 0.7116(4) 0.4879(6) 0.55960(10)
O8 O 0.5808(4) 0.5887(6) 0.59049(10)
C21 C 0.5155(4) 0.5507(6) 0.87307(11)
H24 H 0.5896 0.5078 0.8834
C22 C 0.5358(4) 0.7266(6) 0.86426(10)
H25 H 0.4784 0.7760 0.8503
C23 C 0.6261(4) 0.8178(6) 0.87421(10)
H26 H 0.6830 0.7705 0.8886
C24 C 0.6448(4) 0.9941(6) 0.86414(11)
H27 H 0.5747 1.0323 0.8516
H28 H 0.6542 1.0618 0.8837
C25 C 0.7511(4) 1.0145(6) 0.84403(13)
H29 H 0.8234 1.0324 0.8555
C26 C 0.7536(5) 1.0101(6) 0.81183(14)
H30 H 0.8276 1.0250 0.8029
C27 C 0.6507(5) 0.9836(6) 0.78803(12)
H31 H 0.6456 1.0758 0.7729
H32 H 0.5780 0.9818 0.8000
C28 C 0.6586(5) 0.8228(7) 0.76801(11)
H33 H 0.5901 0.8152 0.7527
H34 H 0.7296 0.8257 0.7553
C29 C 0.6627(5) 0.6745(7) 0.78962(12)
H35 H 0.7344 0.6530 0.8012
C30 C 0.5768(5) 0.5737(7) 0.79381(12)
H36 H 0.5076 0.5914 0.7809
C31 C 0.5750(5) 0.4307(6) 0.81713(12)
H37 H 0.6531 0.4206 0.8281
H38 H 0.5605 0.3310 0.8044
C32 C 0.4821(4) 0.4424(6) 0.84329(12)
H39 H 0.4660 0.3322 0.8511
H40 H 0.4087 0.4843 0.8329
C33 C 0.4196(4) 0.5358(6) 0.89766(12)
H41 H 0.3466 0.5870 0.8891
H42 H 0.4034 0.4209 0.9021
O5 O 0.4620(3) 0.6173(4) 0.92740(8)
C34 C 0.3980(4) 0.6059(6) 0.95375(13)
O6 O 0.3054(3) 0.5333(5) 0.95440(8)
C35 C 0.4564(4) 0.6930(6) 0.98218(12)
C36 C 0.5634(4) 0.7749(5) 0.97906(12)
H43 H 0.5987 0.7771 0.9588
C37 C 0.6175(4) 0.8530(6) 1.00572(13)
H44 H 0.6894 0.9079 1.0037
C38 C 0.5636(4) 0.8485(6) 1.03540(12)
C39 C 0.4579(5) 0.7677(6) 1.03913(13)
H45 H 0.4234 0.7649 1.0595
C40 C 0.4038(4) 0.6910(6) 1.01229(13)
H46 H 0.3314 0.6374 1.0144
N2 N 0.6237(5) 0.9304(6) 1.06397(12)
O7 O 0.7116(4) 1.0121(6) 1.05960(10)
O8 O 0.5808(4) 0.9113(6) 1.09049(10)

#END
