./ABUSIZ_from_POSCAR.cif_generated_by_CrystalShift
_symmetry_cell_setting triclinic
_symmetry_space_group_name_H-M 'P 1'
loop_
_symmetry_equiv_pos_site_id
_symmetry_equiv_pos_as_xyz
1 x,y,z
_cell_length_a 8.474400
_cell_length_b 9.446000
_cell_length_c 11.432000
_cell_angle_alpha 85.660000
_cell_angle_beta 78.058000
_cell_angle_gamma 72.910000
_cell_volume 855.675319
loop_
_atom_site_label
_atom_site_type_symbol
_atom_site_fract_x
_atom_site_fract_y
_atom_site_fract_z
H1 H 0.285400 0.533000 0.759500
H2 H 0.339700 1.031600 0.703800
H3 H 0.455300 0.373200 0.242700
H4 H 0.419700 0.839600 0.552500
H5 H 0.451300 0.627000 0.450900
H6 H 0.225600 0.544000 0.445900
H7 H 0.530100 0.831200 0.034200
H8 H -0.042000 0.668000 0.539800
H9 H 0.329900 0.965400 -0.070100
H10 H -0.124000 1.132000 0.744300
H11 H 0.097500 0.891900 -0.078300
H12 H 0.151000 1.179600 0.736700
H13 H 0.052400 0.681600 0.024700
H14 H 1.368900 -0.032500 0.274000
H15 H 0.849000 -0.179600 0.263300
H16 H 0.048900 0.467400 0.183500
H17 H 0.185000 0.325400 0.220000
H18 H 0.154700 0.377400 0.088400
H19 H 0.749300 -0.150300 0.382500
H20 H 0.714600 0.467000 0.240500
H21 H -0.368900 1.032500 0.726000
H22 H 0.660300 -0.031600 0.296200
H23 H 0.580300 0.160400 0.447500
H24 H 0.544700 0.626800 0.757300
H25 H 0.548700 0.373000 0.549100
H26 H 0.774400 0.456000 0.554100
H27 H 1.042000 0.332000 0.460200
H28 H 0.469900 0.168800 0.965800
H29 H 1.124000 -0.132000 0.255700
H30 H 0.670100 0.034600 1.070100
H31 H 0.250700 1.150300 0.617500
H32 H 0.902500 0.108100 1.078300
H33 H 0.845300 0.622600 0.911600
H34 H 0.947600 0.318400 0.975300
H35 H 0.815000 0.674600 0.780000
H36 H 0.951100 0.532600 0.816500
C37 C 0.844200 0.584200 0.835640
C38 C 0.730090 0.370390 0.911430
C39 C 0.852100 0.289540 0.973980
C40 C 0.330000 0.452100 0.806370
C41 C 0.824800 0.164400 1.033970
C42 C -0.293100 0.950800 0.685210
C43 C 0.421340 0.458220 0.196890
C44 C 1.057920 -0.048010 0.298290
C45 C 0.683600 0.120700 1.029500
C46 C 1.119070 0.057550 0.333810
C47 C 0.975220 0.165640 0.397490
C48 C 0.951600 0.296150 0.457800
C49 C 0.563900 0.199820 0.967490
C50 C 0.791400 0.369700 0.513180
C51 C 0.586050 0.328530 0.906750
C52 C 0.655000 0.319900 0.510080
C53 C 0.489760 0.440050 0.836040
C54 C 0.672410 0.193510 0.450650
C55 C 0.578660 0.541780 0.803110
C56 C 0.834870 0.117510 0.395330
C57 C 0.782500 -0.103600 0.318040
C58 C 0.217500 1.103600 0.681960
C59 C 0.670000 0.547900 0.193630
C60 C 0.155800 0.415800 0.164360
C61 C 1.293100 0.049200 0.314790
C62 C 0.269910 0.629610 0.088570
C63 C 0.147900 0.710460 0.026020
C64 C 0.165130 0.882490 0.604670
C65 C -0.057920 1.048010 0.701710
C66 C 0.175200 0.835600 -0.033970
C67 C -0.119070 0.942450 0.666190
C68 C 0.024780 0.834360 0.602510
C69 C 0.048400 0.703850 0.542200
C70 C 0.316400 0.879300 -0.029500
C71 C 0.208600 0.630300 0.486820
C72 C 0.436100 0.800180 0.032510
C73 C 0.345000 0.680100 0.489920
C74 C 0.413950 0.671470 0.093250
C75 C 0.327590 0.806490 0.549350
C76 C 0.510240 0.559950 0.163960
N77 N 0.722310 0.501020 0.846550
N78 N 0.889640 -0.013960 0.333320
N79 N 0.277690 0.498980 0.153450
N80 N 0.110360 1.013960 0.666680
O81 O 0.248390 0.364640 0.837880
O82 O 0.751610 0.635360 0.162120
O83 O -0.351390 0.859970 0.652650
O84 O 1.351390 0.140030 0.347350

#END
