./ACACCR08_from_POSCAR.cif_generated_by_CrystalShift
_symmetry_cell_setting triclinic
_symmetry_space_group_name_H-M 'P 1'
loop_
_symmetry_equiv_pos_site_id
_symmetry_equiv_pos_as_xyz
1 x,y,z
_cell_length_a 27.582300
_cell_length_b 7.465600
_cell_length_c 48.601200
_cell_angle_alpha 90.000000
_cell_angle_beta 99.273100
_cell_angle_gamma 90.000000
_cell_volume 9877.094046
loop_
_atom_site_label
_atom_site_type_symbol
_atom_site_fract_x
_atom_site_fract_y
_atom_site_fract_z
H1 H 0.194400 0.806400 0.619200
H2 H 0.219200 0.626400 0.610200
H3 H 0.222300 0.863200 0.673500
H4 H 0.292700 0.863900 0.732900
H5 H 0.251900 0.994300 0.716500
H6 H 0.308200 1.055500 0.722400
H7 H 0.384400 0.255600 0.709600
H8 H 0.439600 0.214900 0.705300
H9 H 0.186200 0.734800 0.225800
H10 H 0.135600 0.769500 0.237100
H11 H 0.138800 0.800900 0.204800
H12 H 0.395100 0.181600 0.680300
H13 H 0.484500 0.473000 0.701500
H14 H 0.114700 0.485200 0.252200
H15 H 0.523500 0.865400 0.678800
H16 H 0.537700 0.707900 0.701000
H17 H 0.068000 0.043200 0.247500
H18 H 0.043000 0.229600 0.253600
H19 H 0.096200 0.178800 0.270100
H20 H 0.511700 0.885700 0.709800
H21 H -0.024300 0.395100 0.150200
H22 H -0.043800 0.225500 0.131500
H23 H -0.015300 0.383300 0.118600
H24 H 0.452600 0.730600 0.577400
H25 H 0.400600 0.647700 0.564000
H26 H 0.005700 -0.023300 0.130700
H27 H 0.435200 0.543000 0.588400
H28 H 0.395800 0.995100 0.581800
H29 H 0.094900 -0.259400 0.119600
H30 H 0.044800 -0.298600 0.131100
H31 H 0.096400 -0.328800 0.150900
H32 H 0.321900 1.262200 0.605200
H33 H 0.232300 0.210900 0.106000
H34 H 0.251500 0.400800 0.118700
H35 H 0.195900 0.379000 0.103400
H36 H 0.373300 1.278200 0.594200
H37 H 0.370400 1.316100 0.626300
H38 H 0.274900 0.175400 0.159600
H39 H 0.805600 0.306400 0.880800
H40 H 0.810600 0.124000 0.864100
H41 H 0.280900 0.142300 0.226400
H42 H 0.303000 0.042400 0.202000
H43 H 0.262600 -0.055200 0.217000
H44 H 0.780800 0.126400 0.889800
H45 H 0.777700 0.363200 0.826500
H46 H 0.707300 0.363900 0.767100
H47 H 0.748100 0.494300 0.783500
H48 H 0.691800 0.555500 0.777600
H49 H 0.615600 -0.244400 0.790400
H50 H 0.560400 -0.285100 0.794700
H51 H 0.604900 -0.318400 0.819700
H52 H 0.813800 1.234800 0.274200
H53 H 0.864400 1.269500 0.262900
H54 H 0.861200 1.300900 0.295200
H55 H 0.515500 -0.027000 0.798500
H56 H 0.476500 0.365400 0.821200
H57 H 0.885300 0.985200 0.247800
H58 H 0.462300 0.207900 0.799000
H59 H 0.488300 0.385700 0.790200
H60 H 0.932000 0.543200 0.252500
H61 H 0.957000 0.729600 0.246400
H62 H 0.903800 0.678800 0.229900
H63 H 0.547400 0.230600 0.922600
H64 H 1.024300 0.895100 0.349800
H65 H 1.043800 0.725500 0.368500
H66 H 1.015300 0.883300 0.381400
H67 H 0.599400 0.147700 0.936000
H68 H 0.564800 0.043000 0.911600
H69 H 0.994300 0.476700 0.369300
H70 H 0.604200 0.495100 0.918200
H71 H 0.678100 0.762200 0.894800
H72 H 0.905100 0.240600 0.380400
H73 H 0.955200 0.201400 0.368900
H74 H 0.903600 0.171200 0.349100
H75 H 0.626700 0.778200 0.905800
H76 H 0.767700 0.710900 0.394000
H77 H 0.748500 0.900800 0.381300
H78 H 0.804100 0.879000 0.396600
H79 H 0.629600 0.816100 0.873700
H80 H 0.805600 0.193600 0.380800
H81 H 0.725100 0.675400 0.340400
H82 H 0.810600 0.376000 0.364100
H83 H 0.780800 0.373600 0.389800
H84 H 0.719100 0.642300 0.273600
H85 H 0.697000 0.542400 0.298000
H86 H 0.737400 0.444800 0.283000
H87 H 0.777700 0.136800 0.326500
H88 H 0.707300 0.136100 0.267100
H89 H 0.748100 0.005700 0.283500
H90 H 0.691800 -0.055500 0.277600
H91 H 0.615600 0.744400 0.290400
H92 H 0.560400 0.785100 0.294700
H93 H 0.604900 0.818400 0.319700
H94 H 0.515500 0.527000 0.298500
H95 H 0.813800 0.265200 0.774200
H96 H 0.864400 0.230500 0.762900
H97 H 0.861200 0.199100 0.795200
H98 H 0.476500 0.134600 0.321200
H99 H 0.462300 0.292100 0.299000
H100 H 0.885300 0.514800 0.747800
H101 H 0.488300 0.114300 0.290200
H102 H 0.547400 0.269400 0.422600
H103 H 0.932000 0.956800 0.752500
H104 H 0.957000 0.770400 0.746400
H105 H 0.903800 0.821200 0.729900
H106 H 0.599400 0.352300 0.436000
H107 H 1.024300 0.604900 0.849800
H108 H 1.043800 0.774500 0.868500
H109 H 1.015300 0.616700 0.881400
H110 H 0.564800 0.457000 0.411600
H111 H 0.604200 0.004900 0.418200
H112 H 0.994300 1.023300 0.869300
H113 H 0.678100 -0.262200 0.394800
H114 H 0.626700 -0.278200 0.405800
H115 H 0.905100 1.259400 0.880400
H116 H 0.955200 1.298600 0.868900
H117 H 0.903600 1.328800 0.849100
H118 H 0.629600 -0.316100 0.373700
H119 H 0.767700 0.789100 0.894000
H120 H 0.748500 0.599200 0.881300
H121 H 0.804100 0.621000 0.896600
H122 H 0.194400 0.693600 0.119200
H123 H 0.189400 0.876000 0.135900
H124 H 0.725100 0.824600 0.840400
H125 H 0.219200 0.873600 0.110200
H126 H 0.222300 0.636800 0.173500
H127 H 0.719100 0.857700 0.773600
H128 H 0.697000 0.957600 0.798000
H129 H 0.737400 1.055200 0.783000
H130 H 0.292700 0.636100 0.232900
H131 H 0.251900 0.505700 0.216500
H132 H 0.308200 0.444500 0.222400
H133 H 0.384400 1.244400 0.209600
H134 H 0.439600 1.285100 0.205300
H135 H 0.395100 1.318400 0.180300
H136 H 0.484500 1.027000 0.201500
H137 H 0.523500 0.634600 0.178800
H138 H 0.186200 -0.234800 0.725800
H139 H 0.135600 -0.269500 0.737100
H140 H 0.138800 -0.300900 0.704800
H141 H 0.537700 0.792100 0.201000
H142 H 0.511700 0.614300 0.209800
H143 H 0.114700 0.014800 0.752200
H144 H 0.452600 0.769400 0.077400
H145 H 0.400600 0.852300 0.064000
H146 H 0.068000 0.456800 0.747500
H147 H 0.043000 0.270400 0.753600
H148 H 0.096200 0.321200 0.770100
H149 H 0.435200 0.957000 0.088400
H150 H -0.024300 0.104900 0.650200
H151 H -0.043800 0.274500 0.631500
H152 H -0.015300 0.116700 0.618600
H153 H 0.395800 0.504900 0.081800
H154 H 0.321900 0.237800 0.105200
H155 H 0.005700 0.523300 0.630700
H156 H 0.373300 0.221800 0.094200
H157 H 0.370400 0.183900 0.126300
H158 H 0.094900 0.759400 0.619600
H159 H 0.044800 0.798600 0.631100
H160 H 0.096400 0.828800 0.650900
H161 H 0.188800 0.877200 0.802100
H162 H 0.232300 0.289100 0.606000
H163 H 0.251500 0.099200 0.618700
H164 H 0.195900 0.121000 0.603400
H165 H 0.198000 0.708900 0.783200
H166 H 0.220000 0.900800 0.777300
H167 H 0.274900 0.324600 0.659600
H168 H 0.223700 0.645300 0.839000
H169 H 0.309100 0.449300 0.886900
H170 H 0.280900 0.357700 0.726400
H171 H 0.303000 0.457600 0.702000
H172 H 0.262600 0.555200 0.717000
H173 H 0.253100 0.515300 0.881900
H174 H 0.295100 0.639100 0.898800
H175 H 0.391300 1.336900 0.848000
H176 H 0.440800 1.310300 0.869800
H177 H 0.388900 1.261100 0.878500
H178 H 0.485000 1.049800 0.868100
H179 H 0.513500 0.642300 0.877400
H180 H 0.539400 0.816300 0.867100
H181 H 0.135000 -0.279600 0.373200
H182 H 0.137900 -0.242000 0.405800
H183 H 0.185400 -0.213600 0.391300
H184 H 0.524900 0.652400 0.846100
H185 H 0.404100 0.870900 0.730400
H186 H 0.113700 0.039400 0.419400
H187 H 0.456200 0.797800 0.745500
H188 H 0.435400 0.984100 0.755000
H189 H 0.064700 0.479900 0.414000
H190 H 0.096200 0.355000 0.437100
H191 H 0.043200 0.290700 0.421800
H192 H 0.396000 0.532400 0.747500
H193 H -0.015400 0.138500 0.285600
H194 H -0.043900 0.301600 0.297100
H195 H -0.026100 0.135200 0.317000
H196 H 0.371300 0.206200 0.791500
H197 H 0.374000 0.248000 0.759500
H198 H 0.005800 0.546600 0.296900
H199 H 0.322700 0.262800 0.770800
H200 H 0.811200 0.377200 0.697900
H201 H 0.095500 0.851100 0.317700
H202 H 0.046400 0.819300 0.295700
H203 H 0.098900 0.779200 0.287000
H204 H 0.802000 0.208900 0.716800
H205 H 0.195100 0.107700 0.272100
H206 H 0.251000 0.095100 0.287200
H207 H 0.230300 0.278600 0.272800
H208 H 0.780000 0.400800 0.722700
H209 H 0.776300 0.145300 0.661000
H210 H 0.275800 0.304100 0.328200
H211 H 0.690900 -0.050700 0.613100
H212 H 0.746900 0.015300 0.618100
H213 H 0.264400 0.551900 0.385100
H214 H 0.303600 0.454300 0.369300
H215 H 0.281600 0.351600 0.393400
H216 H 0.704900 0.139100 0.601200
H217 H 0.608700 0.836900 0.652000
H218 H 0.559200 0.810300 0.630200
H219 H 0.611100 0.761100 0.621500
H220 H 0.515000 0.549800 0.631900
H221 H 0.486500 0.142300 0.622600
H222 H 0.460600 0.316300 0.632900
H223 H 0.475100 0.152400 0.653900
H224 H 0.865000 0.220400 0.126800
H225 H 0.862100 0.258000 0.094200
H226 H 0.814600 0.286400 0.108700
H227 H 0.595900 0.370900 0.769600
H228 H 0.543800 0.297800 0.754500
H229 H 0.886300 0.539400 0.080600
H230 H 0.564600 0.484100 0.745000
H231 H 0.604000 0.032400 0.752500
H232 H 0.935300 0.979900 0.086000
H233 H 0.903800 0.855000 0.062900
H234 H 0.956800 0.790700 0.078200
H235 H 0.628700 -0.293800 0.708500
H236 H 1.015400 0.638500 0.214400
H237 H 1.043900 0.801600 0.202900
H238 H 1.026100 0.635200 0.183000
H239 H 0.626000 -0.252000 0.740500
H240 H 0.677300 -0.237200 0.729200
H241 H 0.994200 1.046600 0.203100
H242 H 0.811200 0.122800 0.197900
H243 H 0.802000 0.291100 0.216800
H244 H 0.904500 1.351100 0.182300
H245 H 0.953600 1.319300 0.204300
H246 H 0.901100 1.279200 0.213000
H247 H 0.780000 0.099200 0.222700
H248 H 0.804900 0.607700 0.227900
H249 H 0.749000 0.595100 0.212800
H250 H 0.769700 0.778600 0.227200
H251 H 0.776300 0.354700 0.161000
H252 H 0.690900 0.550700 0.113100
H253 H 0.724200 0.804100 0.171800
H254 H 0.746900 0.484700 0.118100
H255 H 0.704900 0.360900 0.101200
H256 H 0.735600 1.051900 0.114900
H257 H 0.696400 0.954300 0.130700
H258 H 0.718400 0.851600 0.106600
H259 H 0.608700 -0.336900 0.152000
H260 H 0.559200 -0.310300 0.130200
H261 H 0.611100 -0.261100 0.121500
H262 H 0.515000 -0.049800 0.131900
H263 H 0.486500 0.357700 0.122600
H264 H 0.460600 0.183700 0.132900
H265 H 0.475100 0.347600 0.153900
H266 H 0.595900 0.129100 0.269600
H267 H 0.865000 1.279600 0.626800
H268 H 0.862100 1.242000 0.594200
H269 H 0.814600 1.213600 0.608700
H270 H 0.543800 0.202200 0.254500
H271 H 0.564600 0.015900 0.245000
H272 H 0.886300 0.960600 0.580600
H273 H 0.604000 0.467600 0.252500
H274 H 0.628700 0.793800 0.208500
H275 H 0.935300 0.520100 0.586000
H276 H 0.903800 0.645000 0.562900
H277 H 0.956800 0.709300 0.578200
H278 H 0.626000 0.752000 0.240500
H279 H 1.015400 0.861500 0.714400
H280 H 1.043900 0.698400 0.702900
H281 H 1.026100 0.864800 0.683000
H282 H 0.677300 0.737200 0.229200
H283 H 0.188800 0.622800 0.302100
H284 H 0.994200 0.453400 0.703100
H285 H 0.198000 0.791100 0.283200
H286 H 0.220000 0.599200 0.277300
H287 H 0.904500 0.148900 0.682300
H288 H 0.953600 0.180700 0.704300
H289 H 0.901100 0.220800 0.713000
H290 H 0.223700 0.854700 0.339000
H291 H 0.804900 0.892300 0.727900
H292 H 0.749000 0.904900 0.712800
H293 H 0.769700 0.721400 0.727200
H294 H 0.309100 1.050700 0.386900
H295 H 0.253100 0.984700 0.381900
H296 H 0.724200 0.695900 0.671800
H297 H 0.295100 0.860900 0.398800
H298 H 0.391300 0.163100 0.348000
H299 H 0.735600 0.448100 0.614900
H300 H 0.696400 0.545700 0.630700
H301 H 0.718400 0.648400 0.606600
H302 H 0.440800 0.189700 0.369800
H303 H 0.388900 0.238900 0.378500
H304 H 0.485000 0.450200 0.368100
H305 H 0.513500 0.857700 0.377400
H306 H 0.539400 0.683700 0.367100
H307 H 0.524900 0.847600 0.346100
H308 H 0.404100 0.629100 0.230400
H309 H 0.456200 0.702200 0.245500
H310 H 0.135000 0.779600 0.873200
H311 H 0.137900 0.742000 0.905800
H312 H 0.185400 0.713600 0.891300
H313 H 0.435400 0.515900 0.255000
H314 H 0.396000 0.967600 0.247500
H315 H 0.113700 0.460600 0.919400
H316 H 0.371300 1.293800 0.291500
H317 H 0.374000 1.252000 0.259500
H318 H 0.064700 0.020100 0.914000
H319 H 0.096200 0.145000 0.937100
H320 H 0.043200 0.209300 0.921800
H321 H 0.322700 1.237200 0.270800
H322 H -0.015400 0.361500 0.785600
H323 H -0.043900 0.198400 0.797100
H324 H -0.026100 0.364800 0.817000
H325 H 0.219500 0.639600 0.939700
H326 H 0.197800 0.534400 0.963700
H327 H 0.005800 -0.046600 0.796900
H328 H 0.238200 0.441200 0.948200
H329 H 0.225200 0.674800 1.006200
H330 H 0.095500 -0.351100 0.817700
H331 H 0.046400 -0.319300 0.795700
H332 H 0.098900 -0.279200 0.787000
H333 H 0.269200 0.706600 1.060300
H334 H 0.195100 0.392300 0.772100
H335 H 0.251000 0.404900 0.787200
H336 H 0.230300 0.221400 0.772800
H337 H 0.247900 0.891900 1.046900
H338 H 0.303900 0.879500 1.061900
H339 H 0.275800 0.195900 0.828200
H340 H 0.404600 0.228300 1.046400
H341 H 0.455700 0.190800 1.035900
H342 H 0.264400 -0.051900 0.885100
H343 H 0.303600 0.045700 0.869300
H344 H 0.281600 0.148400 0.893400
H345 H 0.405000 0.158900 1.015300
H346 H 0.494500 0.465800 1.036200
H347 H 0.527100 0.875400 1.016700
H348 H 0.543500 0.714600 1.037900
H349 H 0.514000 0.881700 1.047600
H350 H 0.457400 0.721200 0.912000
H351 H 0.404600 0.658900 0.896300
H352 H 0.435200 0.532400 0.919400
H353 H 0.177500 0.757200 0.560200
H354 H 0.128000 0.768400 0.573400
H355 H 0.126900 0.809700 0.540900
H356 H 0.385900 0.972400 0.913900
H357 H 0.313900 1.224000 0.943000
H358 H 0.103200 0.485900 0.584500
H359 H 0.360200 1.251700 0.927400
H360 H 0.365200 1.290600 0.960100
H361 H 0.064900 0.033400 0.577700
H362 H 0.047300 0.220100 0.588900
H363 H 0.099200 0.137300 0.602300
H364 H 0.780500 0.139600 0.560300
H365 H -0.025300 0.348700 0.488200
H366 H -0.037700 0.197600 0.464700
H367 H -0.012300 0.380800 0.457600
H368 H 0.802200 0.034400 0.536300
H369 H 0.761800 -0.058800 0.551800
H370 H 0.016000 -0.036800 0.465800
H371 H 0.774800 0.174800 0.493800
H372 H 0.730800 0.206600 0.439700
H373 H 0.113800 -0.247900 0.455300
H374 H 0.060900 -0.295600 0.462900
H375 H 0.109100 -0.323200 0.485600
H376 H 0.752100 0.391900 0.453100
H377 H 0.206800 0.368400 0.434000
H378 H 0.247200 0.499400 0.450600
H379 H 0.190700 0.558500 0.444800
H380 H 0.696100 0.379500 0.438100
H381 H 0.595400 -0.271700 0.453600
H382 H 0.277600 0.366000 0.493000
H383 H 0.544300 -0.309200 0.464100
H384 H 0.595000 -0.341100 0.484700
H385 H 0.281400 0.123200 0.556300
H386 H 0.305800 0.305300 0.547800
H387 H 0.311100 0.125500 0.530600
H388 H 0.505500 -0.034200 0.463800
H389 H 0.472900 0.375400 0.483300
H390 H 0.456500 0.214600 0.462100
H391 H 0.486000 0.381700 0.452400
H392 H 0.542600 0.221200 0.588000
H393 H 0.595400 0.158900 0.603700
H394 H 0.564800 0.032400 0.580600
H395 H 0.614100 0.472400 0.586100
H396 H 0.822500 1.257200 0.939800
H397 H 0.872000 1.268400 0.926600
H398 H 0.873100 1.309700 0.959100
H399 H 0.686100 0.724000 0.557000
H400 H 0.639800 0.751700 0.572600
H401 H 0.896800 0.985900 0.915500
H402 H 0.634800 0.790600 0.539900
H403 H 0.780500 0.360400 0.060300
H404 H 0.935100 0.533400 0.922300
H405 H 0.952700 0.720100 0.911100
H406 H 0.900800 0.637300 0.897700
H407 H 0.802200 0.465600 0.036300
H408 H 1.025300 0.848700 1.011800
H409 H 1.037700 0.697600 1.035300
H410 H 1.012300 0.880800 1.042400
H411 H 0.761800 0.558800 0.051800
H412 H 0.774800 0.325200 -0.006200
H413 H 0.984000 0.463200 1.034200
H414 H 0.730800 0.293400 -0.060300
H415 H 0.752100 0.108100 -0.046900
H416 H 0.886200 0.252100 1.044700
H417 H 0.939100 0.204400 1.037100
H418 H 0.890900 0.176800 1.014400
H419 H 0.696100 0.120500 -0.061900
H420 H 0.793200 0.868400 1.066000
H421 H 0.752800 0.999400 1.049400
H422 H 0.809300 1.058500 1.055200
H423 H 0.595400 0.771700 -0.046400
H424 H 0.544300 0.809200 -0.035900
H425 H 0.722400 0.866000 1.007000
H426 H 0.595000 0.841100 -0.015300
H427 H 0.505500 0.534200 -0.036200
H428 H 0.718600 0.623200 0.943700
H429 H 0.694200 0.805300 0.952200
H430 H 0.688900 0.625500 0.969400
H431 H 0.472900 0.124600 -0.016700
H432 H 0.456500 0.285400 -0.037900
H433 H 0.486000 0.118300 -0.047600
H434 H 0.542600 0.278800 0.088000
H435 H 0.595400 0.341100 0.103700
H436 H 0.564800 0.467600 0.080600
H437 H 0.614100 0.027600 0.086100
H438 H 0.686100 -0.224000 0.057000
H439 H 0.822500 0.242800 0.439800
H440 H 0.872000 0.231600 0.426600
H441 H 0.873100 0.190300 0.459100
H442 H 0.639800 -0.251700 0.072600
H443 H 0.634800 -0.290600 0.039900
H444 H 0.896800 0.514100 0.415500
H445 H 0.219500 0.860400 0.439700
H446 H 0.197800 0.965600 0.463700
H447 H 0.935100 0.966600 0.422300
H448 H 0.952700 0.779900 0.411100
H449 H 0.900800 0.862700 0.397700
H450 H 0.238200 1.058800 0.448200
H451 H 1.025300 0.651300 0.511800
H452 H 1.037700 0.802400 0.535300
H453 H 1.012300 0.619200 0.542400
H454 H 0.225200 0.825200 0.506200
H455 H 0.269200 0.793400 0.560300
H456 H 0.984000 1.036800 0.534200
H457 H 0.247900 0.608100 0.546900
H458 H 0.303900 0.620500 0.561900
H459 H 0.886200 1.247900 0.544700
H460 H 0.939100 1.295600 0.537100
H461 H 0.890900 1.323200 0.514400
H462 H 0.404600 1.271700 0.546400
H463 H 0.793200 0.631600 0.566000
H464 H 0.752800 0.500600 0.549400
H465 H 0.809300 0.441500 0.555200
H466 H 0.455700 1.309200 0.535900
H467 H 0.405000 1.341100 0.515300
H468 H 0.722400 0.634000 0.507000
H469 H 0.494500 1.034200 0.536200
H470 H 0.527100 0.624600 0.516700
H471 H 0.718600 0.876800 0.443700
H472 H 0.694200 0.694700 0.452200
H473 H 0.688900 0.874500 0.469400
H474 H 0.543500 0.785400 0.537900
H475 H 0.514000 0.618300 0.547600
H476 H 0.457400 0.778800 0.412000
H477 H 0.404600 0.841100 0.396300
H478 H 0.435200 0.967600 0.419400
H479 H 0.385900 0.527600 0.413900
H480 H 0.313900 0.276000 0.443000
H481 H 0.360200 0.248300 0.427400
H482 H 0.177500 -0.257200 0.060200
H483 H 0.128000 -0.268400 0.073400
H484 H 0.126900 -0.309700 0.040900
H485 H 0.365200 0.209400 0.460100
H486 H 0.311100 0.374500 0.030600
H487 H 0.103200 0.014100 0.084500
H488 H 0.305800 0.194700 0.047800
H489 H 0.281400 0.376800 0.056300
H490 H 0.064900 0.466600 0.077700
H491 H 0.047300 0.279900 0.088900
H492 H 0.099200 0.362700 0.102300
H493 H 0.277600 0.134000 -0.007000
H494 H -0.025300 0.151300 -0.011800
H495 H -0.037700 0.302400 -0.035300
H496 H -0.012300 0.119200 -0.042400
H497 H 0.190700 -0.058500 -0.055200
H498 H 0.247200 0.000600 -0.049400
H499 H 0.016000 0.536800 -0.034200
H500 H 0.206800 0.131600 -0.066000
H501 H 0.109100 0.823200 -0.014400
H502 H 0.113800 0.747900 -0.044700
H503 H 0.060900 0.795600 -0.037100
H504 H 0.189400 0.624000 0.635900
C505 C 0.213280 0.043000 -0.050970
C506 C 0.088720 0.559500 -0.019580
C507 C 0.043510 0.470600 -0.025290
C508 C 0.035870 0.291600 -0.018790
C509 C 0.205710 0.127500 -0.023970
C510 C 0.245970 0.169400 -0.003750
C511 C -0.014260 0.208800 -0.027850
C512 C 0.242670 0.260600 0.021120
C513 C 0.289320 0.305600 0.040640
C514 C 0.075720 0.348400 0.085050
C515 C 0.100040 0.249500 0.063750
C516 C 0.110910 0.067500 0.068050
C517 C 0.211090 0.695200 0.626020
C518 C 0.257590 0.739200 0.645620
C519 C 0.254060 0.828700 0.670370
C520 C 0.293810 0.871100 0.690830
C521 C 0.285970 0.953400 0.718050
C522 C 0.150350 0.726800 0.221220
C523 C 0.135590 0.534600 0.215040
C524 C 0.349690 0.286100 0.444790
C525 C 0.132080 -0.040700 0.050050
C526 C 0.141970 -0.236200 0.056730
C527 C 0.407430 0.258400 0.696220
C528 C 0.364800 0.478000 0.450910
C529 C 0.384760 0.579900 0.431580
C530 C 0.412340 0.448300 0.686260
C531 C 0.403390 0.754400 0.436220
C532 C 0.427210 0.843200 0.414060
C533 C 0.115890 0.432700 0.234490
C534 C 0.457040 0.538000 0.692270
C535 C 0.464330 0.717300 0.685650
C536 C 0.517830 0.696600 0.531910
C537 C 0.097660 0.257900 0.229900
C538 C 0.074170 0.169700 0.252240
C539 C 0.710680 0.805600 0.459360
C540 C 0.469710 0.791600 0.521800
C541 C 0.465900 0.974200 0.527240
C542 C 0.757330 0.760600 0.478880
C543 C 0.423050 1.074700 0.520430
C544 C 0.422020 1.265900 0.530380
C545 C 0.754030 0.669400 0.503750
C546 C 0.794290 0.627500 0.523970
C547 C 0.786720 0.543000 0.550970
C548 C 0.277010 0.685300 0.550460
C549 C 0.906470 1.248000 0.529820
C550 C 0.911280 1.059500 0.519580
C551 C 0.956490 0.970600 0.525290
C552 C 0.292380 0.737100 0.523300
C553 C 0.257780 0.812000 0.502470
C554 C 0.964130 0.791600 0.518790
C555 C 0.267270 0.868900 0.476650
C556 C 0.227220 0.945100 0.455190
C557 C 1.014260 0.708800 0.527850
C558 C 0.924280 0.848400 0.414950
C559 C 0.899960 0.749500 0.436250
C560 C -0.017360 0.314100 0.135480
C561 C 0.513560 0.801300 0.694590
C562 C 0.030700 0.219600 0.144880
C563 C 0.034440 0.036900 0.139430
C564 C 0.077540 -0.063700 0.145960
C565 C 0.424250 0.661500 0.581260
C566 C 0.400080 0.758800 0.602770
C567 C 0.650310 -0.213900 0.055210
C568 C 0.889090 0.567500 0.431950
C569 C 0.867920 0.459300 0.449950
C570 C 0.858030 0.263800 0.443270
C571 C 0.635200 -0.022000 0.049090
C572 C 0.615240 0.079900 0.068420
C573 C 0.078470 -0.254200 0.136020
C574 C 0.596610 0.254400 0.063780
C575 C 0.572790 0.343200 0.085940
C576 C 0.388610 0.941100 0.598400
C577 C 0.367510 1.047600 0.616620
C578 C 0.223240 0.319500 0.115320
C579 C 0.482170 0.196600 -0.031910
C580 C 0.207960 0.270200 0.142570
C581 C 0.242540 0.192300 0.163540
C582 C 0.357380 1.243200 0.610000
C583 C 0.530290 0.291600 -0.021800
C584 C 0.534100 0.474200 -0.027240
C585 C 0.710680 0.694400 0.959360
C586 C 0.576950 0.574700 -0.020430
C587 C 0.577980 0.765900 -0.030380
C588 C 0.757330 0.739400 0.978880
C589 C 0.754030 0.830600 1.003750
C590 C 0.794290 0.872500 1.023970
C591 C 0.722990 0.185300 -0.050460
C592 C 0.786720 0.957000 1.050970
C593 C 0.906470 0.252000 1.029820
C594 C 0.911280 0.440500 1.019580
C595 C 0.707620 0.237100 -0.023300
C596 C 0.742220 0.312000 -0.002470
C597 C 0.956490 0.529400 1.025290
C598 C 0.732730 0.368900 0.023350
C599 C 0.772780 0.445100 0.044810
C600 C 0.964130 0.708400 1.018790
C601 C 1.014260 0.791200 1.027850
C602 C 0.924280 0.651600 0.914950
C603 C 0.233400 0.138400 0.189300
C604 C 0.273470 0.060200 0.210530
C605 C 0.788910 0.195200 0.873980
C606 C 0.742410 0.239200 0.854380
C607 C 0.745940 0.328700 0.829630
C608 C 0.706190 0.371100 0.809170
C609 C 0.714030 0.453400 0.781950
C610 C 0.650310 0.713900 0.555210
C611 C 0.899960 0.750500 0.936250
C612 C 0.889090 0.932500 0.931950
C613 C 0.867920 1.040700 0.949950
C614 C 0.635200 0.522000 0.549090
C615 C 0.615240 0.420100 0.568420
C616 C 0.858030 1.236200 0.943270
C617 C 0.596610 0.245600 0.563780
C618 C 0.572790 0.156800 0.585940
C619 C 0.849650 1.226800 0.278780
C620 C 0.592570 -0.241600 0.803780
C621 C 0.587660 -0.051700 0.813740
C622 C 0.482170 0.303400 0.468090
C623 C 0.864410 1.034600 0.284960
C624 C 0.542960 0.038000 0.807730
C625 C 0.535670 0.217300 0.814350
C626 C 0.530290 0.208400 0.478200
C627 C 0.534100 0.025800 0.472760
C628 C 0.884110 0.932700 0.265510
C629 C 0.576950 -0.074700 0.479570
C630 C 0.577980 -0.265900 0.469620
C631 C 0.289320 0.194400 0.540640
C632 C 0.242670 0.239400 0.521120
C633 C 0.245970 0.330600 0.496250
C634 C 0.722990 0.314700 0.449540
C635 C 0.205710 0.372500 0.476030
C636 C 0.213280 0.457000 0.449030
C637 C 0.093530 -0.248000 0.470180
C638 C 0.707620 0.262900 0.476700
C639 C 0.742220 0.188000 0.497530
C640 C 0.088720 -0.059500 0.480420
C641 C 0.732730 0.131100 0.523350
C642 C 0.772780 0.054900 0.544810
C643 C 0.043510 0.029400 0.474710
C644 C 0.035870 0.208400 0.481210
C645 C -0.014260 0.291200 0.472150
C646 C 0.902340 0.757900 0.270100
C647 C 0.925830 0.669700 0.247760
C648 C 0.486440 0.301300 0.805410
C649 C 1.017360 0.814100 0.364520
C650 C 0.969300 0.719600 0.355120
C651 C 0.965560 0.536900 0.360570
C652 C 0.575750 0.161500 0.918740
C653 C 0.349690 1.213900 0.944790
C654 C 0.075720 0.151600 0.585050
C655 C 0.100040 0.250500 0.563750
C656 C 0.110910 0.432500 0.568050
C657 C 0.364800 1.022000 0.950910
C658 C 0.384760 0.920100 0.931580
C659 C 0.132080 0.540700 0.550050
C660 C 0.403390 0.745600 0.936220
C661 C 0.427210 0.656800 0.914060
C662 C 0.141970 0.736200 0.556730
C663 C 0.599920 0.258800 0.897230
C664 C 0.922460 0.436300 0.354040
C665 C 0.517830 0.803400 1.031910
C666 C 0.611390 0.441100 0.901600
C667 C 0.632490 0.547600 0.883380
C668 C 0.921530 0.245800 0.363980
C669 C 0.469710 0.708400 1.021800
C670 C 0.465900 0.525800 1.027240
C671 C 0.776760 0.819500 0.384680
C672 C 0.423050 0.425300 1.020430
C673 C 0.422020 0.234100 1.030380
C674 C 0.792040 0.770200 0.357430
C675 C 0.274270 0.063000 0.877980
C676 C 0.233180 0.134700 0.856700
C677 C 0.277010 0.814700 1.050460
C678 C 0.242770 0.198800 0.831400
C679 C 0.207060 0.267900 0.810170
C680 C 0.222190 0.326800 0.783220
C681 C 0.292380 0.762900 1.023300
C682 C 0.257780 0.688000 1.002470
C683 C 0.079750 -0.275300 0.802320
C684 C 0.267270 0.631100 0.976650
C685 C 0.227220 0.554900 0.955190
C686 C 0.077320 -0.084700 0.812460
C687 C 0.034290 0.014000 0.805880
C688 C 0.029980 0.195600 0.811600
C689 C 0.642620 0.743200 0.890000
C690 C 0.757460 0.692300 0.336460
C691 C 0.766600 0.638400 0.310700
C692 C 0.726530 0.560200 0.289470
C693 C 0.788910 0.304800 0.373980
C694 C 0.742410 0.260800 0.354380
C695 C 0.745940 0.171300 0.329630
C696 C 0.358250 1.218900 0.275500
C697 C -0.018030 0.288100 0.801980
C698 C 0.073140 0.144100 0.919460
C699 C 0.096750 0.233500 0.896970
C700 C 0.368610 1.024600 0.282650
C701 C 0.389470 0.915400 0.264360
C702 C 0.115020 0.408700 0.901730
C703 C 0.401470 0.734100 0.269090
C704 C 0.426470 0.636800 0.248160
C705 C 0.134810 0.511100 0.882540
C706 C 0.149580 0.703500 0.888740
C707 C 0.706190 0.128900 0.309170
C708 C 0.515140 0.778300 0.361480
C709 C 0.714030 0.046600 0.281950
C710 C 0.592570 0.741600 0.303780
C711 C 0.587660 0.551700 0.313740
C712 C 0.465310 0.695000 0.352060
C713 C 0.457650 0.515700 0.358790
C714 C 0.849650 0.273200 0.778780
C715 C 0.412470 0.426400 0.352780
C716 C 0.407980 0.238100 0.363200
C717 C 0.542960 0.462000 0.307730
C718 C 0.535670 0.282700 0.314350
C719 C 0.725730 0.563000 0.622020
C720 C 0.287430 0.946300 0.383350
C721 C 0.766820 0.634700 0.643300
C722 C 0.757230 0.698800 0.668600
C723 C 0.792940 0.767900 0.689830
C724 C 0.295010 0.858300 0.356620
C725 C 0.255400 0.816900 0.336090
C726 C 0.777810 0.826800 0.716780
C727 C 0.258840 0.724000 0.311640
C728 C 0.212340 0.680500 0.291820
C729 C 0.920250 0.224700 0.697680
C730 C 0.922680 0.415300 0.687540
C731 C 0.965710 0.514000 0.694120
C732 C 0.864410 0.465400 0.784960
C733 C 0.884110 0.567300 0.765510
C734 C 0.902340 0.742100 0.770100
C735 C 0.486440 0.198700 0.305410
C736 C 0.925830 0.830300 0.747760
C737 C 1.017360 0.685900 0.864520
C738 C 0.969300 0.780400 0.855120
C739 C 0.641750 0.718900 0.224500
C740 C 0.970020 0.695600 0.688400
C741 C 1.018030 0.788100 0.698020
C742 C 0.926860 0.644100 0.580540
C743 C 0.631390 0.524600 0.217350
C744 C 0.610530 0.415400 0.235640
C745 C 0.903250 0.733500 0.603030
C746 C 0.598530 0.234100 0.230910
C747 C 0.573530 0.136800 0.251840
C748 C 0.884980 0.908700 0.598270
C749 C 0.865190 1.011100 0.617460
C750 C 0.850420 1.203500 0.611260
C751 C 0.484860 0.278300 0.138520
C752 C 0.575750 0.338500 0.418740
C753 C 0.599920 0.241200 0.397230
C754 C 0.965560 0.963100 0.860570
C755 C 0.534690 0.195000 0.147940
C756 C 0.542350 0.015700 0.141210
C757 C 0.611390 0.058900 0.401600
C758 C 0.587530 -0.073600 0.147220
C759 C 0.592020 -0.261900 0.136800
C760 C 0.632490 -0.047600 0.383380
C761 C 0.922460 1.063700 0.854040
C762 C 0.921530 1.254200 0.863980
C763 C 0.712570 0.446300 0.116650
C764 C 0.725730 0.937000 0.122020
C765 C 0.766820 0.865300 0.143300
C766 C 0.757230 0.801200 0.168600
C767 C 0.704990 0.358300 0.143380
C768 C 0.744600 0.316900 0.163910
C769 C 0.792940 0.732100 0.189830
C770 C 0.741160 0.224000 0.188360
C771 C 0.787660 0.180500 0.208180
C772 C 0.777810 0.673200 0.216780
C773 C 0.920250 1.275300 0.197680
C774 C 0.922680 1.084700 0.187540
C775 C 0.776760 0.680500 0.884680
C776 C 0.642620 -0.243200 0.390000
C777 C 0.792040 0.729800 0.857430
C778 C 0.757460 0.807700 0.836460
C779 C 0.766600 0.861600 0.810700
C780 C 0.211090 0.804800 0.126020
C781 C 0.257590 0.760800 0.145620
C782 C 0.641750 -0.218900 0.724500
C783 C 0.965710 0.986000 0.194120
C784 C 0.970020 0.804400 0.188400
C785 C 1.018030 0.711900 0.198020
C786 C 0.631390 -0.024600 0.717350
C787 C 0.610530 0.084600 0.735640
C788 C 0.926860 0.855900 0.080540
C789 C 0.598530 0.265900 0.730910
C790 C 0.573530 0.363200 0.751840
C791 C 0.903250 0.766500 0.103030
C792 C 0.884980 0.591300 0.098270
C793 C 0.865190 0.488900 0.117460
C794 C 0.484860 0.221700 0.638520
C795 C 0.850420 0.296500 0.111260
C796 C 0.726530 0.939800 0.789470
C797 C 0.254060 0.671300 0.170370
C798 C 0.534690 0.305000 0.647940
C799 C 0.542350 0.484300 0.641210
C800 C 0.293810 0.628900 0.190830
C801 C 0.587530 0.573600 0.647220
C802 C 0.592020 0.761900 0.636800
C803 C 0.285970 0.546600 0.218050
C804 C 0.407430 1.241600 0.196220
C805 C 0.412340 1.051700 0.186260
C806 C 0.712570 0.053700 0.616650
C807 C 0.457040 0.962000 0.192270
C808 C 0.274270 0.437000 0.377980
C809 C 0.233180 0.365300 0.356700
C810 C 0.704990 0.141700 0.643380
C811 C 0.744600 0.183100 0.663910
C812 C 0.242770 0.301200 0.331400
C813 C 0.741160 0.276000 0.688360
C814 C 0.787660 0.319500 0.708180
C815 C 0.207060 0.232100 0.310170
C816 C 0.222190 0.173200 0.283220
C817 C 0.079750 0.775300 0.302320
C818 C 0.464330 0.782700 0.185650
C819 C 0.150350 -0.226800 0.721220
C820 C 0.135590 -0.034600 0.715040
C821 C 0.115890 0.067300 0.734490
C822 C 0.513560 0.698700 0.194590
C823 C 0.097660 0.242100 0.729900
C824 C 0.074170 0.330300 0.752240
C825 C 0.358250 0.281100 0.775500
C826 C 0.077320 0.584700 0.312460
C827 C 0.034290 0.486000 0.305880
C828 C 0.029980 0.304400 0.311600
C829 C 0.368610 0.475400 0.782650
C830 C 0.389470 0.584600 0.764360
C831 C -0.018030 0.211900 0.301980
C832 C 0.401470 0.765900 0.769090
C833 C 0.426470 0.863200 0.748160
C834 C 0.073140 0.355900 0.419460
C835 C 0.096750 0.266500 0.396970
C836 C 0.115020 0.091300 0.401730
C837 C 0.515140 0.721700 0.861480
C838 C 0.134810 -0.011100 0.382540
C839 C 0.149580 -0.203500 0.388740
C840 C -0.017360 0.185900 0.635480
C841 C 0.465310 0.805000 0.852060
C842 C 0.457650 0.984300 0.858790
C843 C 0.424250 0.838500 0.081260
C844 C 0.412470 1.073600 0.852780
C845 C 0.407980 1.261900 0.863200
C846 C 0.400080 0.741200 0.102770
C847 C 0.030700 0.280400 0.644880
C848 C 0.388610 0.558900 0.098400
C849 C 0.287430 0.553700 0.883350
C850 C 0.367510 0.452400 0.116620
C851 C 0.034440 0.463100 0.639430
C852 C 0.273470 0.439800 0.710530
C853 C 0.295010 0.641700 0.856620
C854 C 0.255400 0.683100 0.836090
C855 C 0.233400 0.361600 0.689300
C856 C 0.258840 0.776000 0.811640
C857 C 0.212340 0.819500 0.791820
C858 C 0.242540 0.307700 0.663540
C859 C 0.207960 0.229800 0.642570
C860 C 0.223240 0.180500 0.615320
C861 C 0.077540 0.563700 0.645960
C862 C 0.078470 0.754200 0.636020
C863 C 0.357380 0.256800 0.110000
C864 C 0.093530 0.748000 -0.029820
O865 O 0.372570 0.985100 0.172570
O866 O 0.339050 0.657900 0.188650
O867 O 0.297880 0.808200 0.137550
O868 O 0.392080 0.832800 0.123380
O869 O 0.355450 0.505200 0.139730
O870 O 0.142990 0.477200 0.191210
O871 O 0.357810 0.534100 0.474810
O872 O 0.141500 0.044100 0.358270
O873 O 0.097220 0.356400 0.374920
O874 O 0.064560 0.204500 0.323850
O875 O 0.117600 0.525700 0.326710
O876 O 0.161340 0.216300 0.311670
O877 O 0.190910 0.368400 0.364330
O878 O 0.299240 0.828100 0.804030
O879 O 0.340200 0.676100 0.854910
O880 O 0.373370 1.006200 0.839180
O881 O 0.432770 0.700600 0.839450
O882 O 0.393390 0.856100 0.790040
O883 O 0.356640 0.527200 0.805620
O884 O 0.098170 0.166900 0.207750
O885 O 0.403260 0.845300 0.458350
O886 O 0.191430 0.349800 0.697420
O887 O 0.858500 0.544100 0.141730
O888 O 0.902780 0.856400 0.125080
O889 O 0.162970 0.199400 0.644570
O890 O 0.117810 0.504700 0.659730
O891 O 0.065690 0.181300 0.656870
O892 O 0.935440 0.704500 0.176150
O893 O 0.098170 0.333100 0.707750
O894 O 0.142990 0.022800 0.691210
O895 O 0.435110 0.693600 0.509630
O896 O 0.882400 1.025700 0.173290
O897 O 0.838660 0.716300 0.188330
O898 O 0.809090 0.868400 0.135670
O899 O 0.700760 0.328100 0.695970
O900 O 0.659800 0.176100 0.645090
O901 O 0.626630 0.506200 0.660820
O902 O 0.567230 0.200600 0.660550
O903 O 0.606610 0.356100 0.709960
O904 O 0.065690 0.318700 0.156870
O905 O 0.644550 0.005200 0.360270
O906 O 0.607920 0.332800 0.376620
O907 O 0.568550 0.177900 0.326810
O908 O 0.627430 0.485100 0.327430
O909 O 0.660950 0.157900 0.311350
O910 O 0.702120 0.308200 0.362450
O911 O 0.643360 0.027200 0.694380
O912 O 0.117810 -0.004700 0.159730
O913 O 0.162970 0.300600 0.144570
O914 O 0.858500 0.955900 0.641730
O915 O 0.902780 0.643600 0.625080
O916 O 0.935440 0.795500 0.676150
O917 O 0.882400 0.474300 0.673290
O918 O 0.838660 0.783700 0.688330
O919 O 0.809090 0.631600 0.635670
O920 O 0.700760 0.171900 0.195970
O921 O 0.659800 0.323900 0.145090
O922 O 0.626630 -0.006200 0.160820
O923 O 0.567230 0.299400 0.160550
O924 O 0.606610 0.143900 0.209960
O925 O 0.643360 0.472800 0.194380
O926 O 0.383080 1.016500 0.506440
O927 O 0.191430 0.150200 0.197420
O928 O 0.141500 0.455900 0.858270
O929 O 0.097220 0.143600 0.874920
O930 O 0.064560 0.295500 0.823850
O931 O 0.117600 -0.025700 0.826710
O932 O 0.808570 0.849800 0.802580
O933 O 0.837030 0.699400 0.855430
O934 O 0.882190 1.004700 0.840270
O935 O 0.161340 0.283700 0.811670
O936 O 0.934310 0.681300 0.843130
O937 O 0.901830 0.833100 0.792250
O938 O 0.857010 0.522800 0.808790
O939 O 0.190910 0.131600 0.864330
O940 O 0.299240 0.671900 0.304030
O941 O 0.337770 0.710300 0.521490
O942 O 0.340200 0.823900 0.354910
O943 O 0.373370 0.493800 0.339180
O944 O 0.432770 0.799400 0.339450
O945 O 0.393390 0.643900 0.290040
O946 O 0.356640 0.972800 0.305620
O947 O 0.309530 0.860700 0.468520
O948 O 0.644550 0.494800 0.860270
O949 O 0.607920 0.167200 0.876620
O950 O 0.568550 0.322100 0.826810
O951 O 0.627430 0.014900 0.827430
O952 O 0.660950 0.342100 0.811350
O953 O 0.702120 0.191800 0.862450
O954 O 0.202580 0.312900 0.028900
O955 O 0.160810 0.162100 -0.022110
O956 O 0.144910 0.488200 0.527240
O957 O 0.108760 0.158900 0.543140
O958 O 0.068590 0.313500 0.493680
O959 O 0.127940 0.008300 0.493770
O960 O 0.160810 0.337900 0.477890
O961 O 0.202580 0.187100 0.528900
O962 O 0.309530 0.639300 0.968520
O963 O 0.337770 0.789700 1.021490
O964 O 0.383080 0.483500 1.006440
O965 O 0.435110 0.806400 1.009630
O966 O 0.403260 0.654700 0.958350
O967 O 0.357810 0.965900 0.974810
O968 O 0.127940 0.491700 -0.006230
O969 O 0.068590 0.186500 -0.006320
O970 O 0.855090 0.988200 0.972760
O971 O 0.891240 0.658900 0.956860
O972 O 0.931410 0.813500 1.006320
O973 O 0.872060 0.508300 1.006230
O974 O 0.839190 0.837900 1.022110
O975 O 0.797420 0.687100 0.971100
O976 O 0.808570 0.650200 0.302580
O977 O 0.837030 0.800600 0.355430
O978 O 0.690470 0.139300 0.531480
O979 O 0.882190 0.495300 0.340270
O980 O 0.934310 0.818700 0.343130
O981 O 0.901830 0.666900 0.292250
O982 O 0.662230 0.289700 0.478510
O983 O 0.616920 -0.016500 0.493560
O984 O 0.857010 0.977200 0.308790
O985 O 0.564890 0.306400 0.490370
O986 O 0.596740 0.154700 0.541650
O987 O 0.108760 0.341100 0.043140
O988 O 0.642190 0.465900 0.525190
O989 O 0.144910 0.011800 0.027240
O990 O 0.642190 0.034100 0.025190
O991 O 0.355450 0.994800 0.639730
O992 O 0.392080 0.667200 0.623380
O993 O 0.431450 0.822100 0.673190
O994 O 0.372570 0.514900 0.672570
O995 O 0.339050 0.842100 0.688650
O996 O 0.297880 0.691800 0.637550
O997 O 0.596740 0.345300 0.041650
O998 O 0.855090 0.511800 0.472760
O999 O 0.891240 0.841100 0.456860
O1000 O 0.931410 0.686500 0.506320
O1001 O 0.872060 0.991700 0.506230
O1002 O 0.839190 0.662100 0.522110
O1003 O 0.797420 0.812900 0.471100
O1004 O 0.690470 0.360700 0.031480
O1005 O 0.662230 0.210300 -0.021490
O1006 O 0.616920 0.516500 -0.006440
O1007 O 0.564890 0.193600 -0.009630
O1008 O 0.431450 0.677900 0.173190
Cr1009 Cr 0.364423 0.754790 0.655932
Cr1010 Cr 0.629090 0.276170 0.009978
Cr1011 Cr 0.135853 0.251700 0.010759
Cr1012 Cr 0.629090 0.223830 0.509978
Cr1013 Cr 0.869941 0.735650 0.323864
Cr1014 Cr 0.864147 0.748300 0.989241
Cr1015 Cr 0.370910 0.723830 0.990022
Cr1016 Cr 0.135853 0.248300 0.510759
Cr1017 Cr 0.365644 0.733530 0.322249
Cr1018 Cr 0.635577 0.254790 0.844068
Cr1019 Cr 0.869941 0.764350 0.823864
Cr1020 Cr 0.129053 0.214860 0.843099
Cr1021 Cr 0.634356 0.233530 0.177751
Cr1022 Cr 0.870947 0.714860 0.656901
Cr1023 Cr 0.634356 0.266470 0.677751
Cr1024 Cr 0.635577 0.245210 0.344068
Cr1025 Cr 0.130059 0.264350 0.676136
Cr1026 Cr 0.870947 0.785140 0.156901
Cr1027 Cr 0.365644 0.766470 0.822249
Cr1028 Cr 0.129053 0.285140 0.343099
Cr1029 Cr 0.370910 0.776170 0.490022
Cr1030 Cr 0.364423 0.745210 0.155932
Cr1031 Cr 0.864147 0.751700 0.489241
Cr1032 Cr 0.130059 0.235650 0.176136

#END
