
#######################################################################
#
#                 Cambridge Crystallographic Data Centre
#                                CCDC 
#
#######################################################################
#
# If this CIF has been generated from an entry in the Cambridge 
# Structural Database, then it will include bibliographic, chemical, 
# crystal, experimental, refinement or atomic coordinate data resulting 
# from the CCDC's data processing and validation procedures.
#
#######################################################################

data_ACACCR08
_symmetry_cell_setting           monoclinic
_symmetry_space_group_name_H-M   'P 21/c'
_symmetry_Int_Tables_number      14
_space_group_name_Hall           '-P 2ybc'
loop_
_symmetry_equiv_pos_site_id
_symmetry_equiv_pos_as_xyz
1 x,y,z
2 -x,1/2+y,1/2-z
3 -x,-y,-z
4 x,1/2-y,1/2+z
_cell_length_a                   27.5823(2)
_cell_length_b                   7.46560(10)
_cell_length_c                   48.6012(4)
_cell_angle_alpha                90
_cell_angle_beta                 99.2731(3)
_cell_angle_gamma                90
_cell_volume                     9877.09
loop_
_atom_site_label
_atom_site_type_symbol
_atom_site_fract_x
_atom_site_fract_y
_atom_site_fract_z
Cr1 Cr 0.130059(14) 0.23565(5) 0.176136(9)
O1 O 0.14299(6) 0.4772(2) 0.19121(4)
O2 O 0.09817(6) 0.1669(2) 0.20775(4)
O3 O 0.06569(6) 0.3187(2) 0.15687(4)
O4 O 0.11781(6) -0.0047(2) 0.15973(4)
O5 O 0.16297(6) 0.3006(2) 0.14457(4)
O6 O 0.19143(6) 0.1502(2) 0.19742(4)
C1 C 0.15035(9) 0.7268(3) 0.22122(6)
H1 H 0.1862 0.7348 0.2258
H2 H 0.1356 0.7695 0.2371
H3 H 0.1388 0.8009 0.2048
C2 C 0.13559(8) 0.5346(3) 0.21504(6)
C3 C 0.11589(8) 0.4327(3) 0.23449(6)
H4 H 0.1147 0.4852 0.2522
C4 C 0.09766(8) 0.2579(3) 0.22990(5)
C5 C 0.07417(9) 0.1697(3) 0.25224(5)
H5 H 0.0680 0.0432 0.2475
H6 H 0.0430 0.2296 0.2536
H7 H 0.0962 0.1788 0.2701
C6 C -0.01736(8) 0.3141(3) 0.13548(6)
H8 H -0.0243 0.3951 0.1502
H9 H -0.0438 0.2255 0.1315
H10 H -0.0153 0.3833 0.1186
C7 C 0.03070(8) 0.2196(3) 0.14488(6)
C8 C 0.03444(9) 0.0369(3) 0.13943(6)
H11 H 0.0057 -0.0233 0.1307
C9 C 0.07754(9) -0.0637(3) 0.14596(5)
C10 C 0.07847(9) -0.2542(3) 0.13602(6)
H12 H 0.0949 -0.2594 0.1196
H13 H 0.0448 -0.2986 0.1311
H14 H 0.0964 -0.3288 0.1509
C11 C 0.22324(9) 0.3195(4) 0.11532(6)
H15 H 0.2323 0.2109 0.1060
H16 H 0.2515 0.4008 0.1187
H17 H 0.1959 0.3790 0.1034
C12 C 0.20796(9) 0.2702(3) 0.14257(6)
C13 C 0.24254(8) 0.1923(3) 0.16354(6)
H18 H 0.2749 0.1754 0.1596
C14 C 0.23340(8) 0.1384(3) 0.18930(6)
C15 C 0.27347(8) 0.0602(3) 0.21053(6)
H19 H 0.2809 0.1423 0.2264
H20 H 0.3030 0.0424 0.2020
H21 H 0.2626 -0.0552 0.2170
Cr1 Cr 0.869941(14) 0.73565(5) 0.323864(9)
O1 O 0.85701(6) 0.9772(2) 0.30879(4)
O2 O 0.90183(6) 0.6669(2) 0.29225(4)
O3 O 0.93431(6) 0.8187(2) 0.34313(4)
O4 O 0.88219(6) 0.4953(2) 0.34027(4)
O5 O 0.83703(6) 0.8006(2) 0.35543(4)
O6 O 0.80857(6) 0.6502(2) 0.30258(4)
C1 C 0.84965(9) 1.2268(3) 0.27878(6)
H1 H 0.8138 1.2348 0.2742
H2 H 0.8644 1.2695 0.2629
H3 H 0.8612 1.3009 0.2952
C2 C 0.86441(8) 1.0346(3) 0.28496(6)
C3 C 0.88411(8) 0.9327(3) 0.26551(6)
H4 H 0.8853 0.9852 0.2478
C4 C 0.90234(8) 0.7579(3) 0.27010(5)
C5 C 0.92583(9) 0.6697(3) 0.24776(5)
H5 H 0.9320 0.5432 0.2525
H6 H 0.9570 0.7296 0.2464
H7 H 0.9038 0.6788 0.2299
C6 C 1.01736(8) 0.8141(3) 0.36452(6)
H8 H 1.0243 0.8951 0.3498
H9 H 1.0438 0.7255 0.3685
H10 H 1.0153 0.8833 0.3814
C7 C 0.96930(8) 0.7196(3) 0.35512(6)
C8 C 0.96556(9) 0.5369(3) 0.36057(6)
H11 H 0.9943 0.4767 0.3693
C9 C 0.92246(9) 0.4363(3) 0.35404(5)
C10 C 0.92153(9) 0.2458(3) 0.36398(6)
H12 H 0.9051 0.2406 0.3804
H13 H 0.9552 0.2014 0.3689
H14 H 0.9036 0.1712 0.3491
C11 C 0.77676(9) 0.8195(4) 0.38468(6)
H15 H 0.7677 0.7109 0.3940
H16 H 0.7485 0.9008 0.3813
H17 H 0.8041 0.8790 0.3966
C12 C 0.79204(9) 0.7702(3) 0.35743(6)
C13 C 0.75746(8) 0.6923(3) 0.33646(6)
H18 H 0.7251 0.6754 0.3404
C14 C 0.76660(8) 0.6384(3) 0.31070(6)
C15 C 0.72653(8) 0.5602(3) 0.28947(6)
H19 H 0.7191 0.6423 0.2736
H20 H 0.6970 0.5424 0.2980
H21 H 0.7374 0.4448 0.2830
Cr1 Cr 0.869941(14) 0.76435(5) 0.823864(9)
O1 O 0.85701(6) 0.5228(2) 0.80879(4)
O2 O 0.90183(6) 0.8331(2) 0.79225(4)
O3 O 0.93431(6) 0.6813(2) 0.84313(4)
O4 O 0.88219(6) 1.0047(2) 0.84027(4)
O5 O 0.83703(6) 0.6994(2) 0.85543(4)
O6 O 0.80857(6) 0.8498(2) 0.80258(4)
C1 C 0.84965(9) 0.2732(3) 0.77878(6)
H1 H 0.8138 0.2652 0.7742
H2 H 0.8644 0.2305 0.7629
H3 H 0.8612 0.1991 0.7952
C2 C 0.86441(8) 0.4654(3) 0.78496(6)
C3 C 0.88411(8) 0.5673(3) 0.76551(6)
H4 H 0.8853 0.5148 0.7478
C4 C 0.90234(8) 0.7421(3) 0.77010(5)
C5 C 0.92583(9) 0.8303(3) 0.74776(5)
H5 H 0.9320 0.9568 0.7525
H6 H 0.9570 0.7704 0.7464
H7 H 0.9038 0.8212 0.7299
C6 C 1.01736(8) 0.6859(3) 0.86452(6)
H8 H 1.0243 0.6049 0.8498
H9 H 1.0438 0.7745 0.8685
H10 H 1.0153 0.6167 0.8814
C7 C 0.96930(8) 0.7804(3) 0.85512(6)
C8 C 0.96556(9) 0.9631(3) 0.86057(6)
H11 H 0.9943 1.0233 0.8693
C9 C 0.92246(9) 1.0637(3) 0.85404(5)
C10 C 0.92153(9) 1.2542(3) 0.86398(6)
H12 H 0.9051 1.2594 0.8804
H13 H 0.9552 1.2986 0.8689
H14 H 0.9036 1.3288 0.8491
C11 C 0.77676(9) 0.6805(4) 0.88468(6)
H15 H 0.7677 0.7891 0.8940
H16 H 0.7485 0.5992 0.8813
H17 H 0.8041 0.6210 0.8966
C12 C 0.79204(9) 0.7298(3) 0.85743(6)
C13 C 0.75746(8) 0.8077(3) 0.83646(6)
H18 H 0.7251 0.8246 0.8404
C14 C 0.76660(8) 0.8616(3) 0.81070(6)
C15 C 0.72653(8) 0.9398(3) 0.78947(6)
H19 H 0.7191 0.8577 0.7736
H20 H 0.6970 0.9576 0.7980
H21 H 0.7374 1.0552 0.7830
Cr1 Cr 0.130059(14) 0.26435(5) 0.676136(9)
O1 O 0.14299(6) 0.0228(2) 0.69121(4)
O2 O 0.09817(6) 0.3331(2) 0.70775(4)
O3 O 0.06569(6) 0.1813(2) 0.65687(4)
O4 O 0.11781(6) 0.5047(2) 0.65973(4)
O5 O 0.16297(6) 0.1994(2) 0.64457(4)
O6 O 0.19143(6) 0.3498(2) 0.69742(4)
C1 C 0.15035(9) -0.2268(3) 0.72122(6)
H1 H 0.1862 -0.2348 0.7258
H2 H 0.1356 -0.2695 0.7371
H3 H 0.1388 -0.3009 0.7048
C2 C 0.13559(8) -0.0346(3) 0.71504(6)
C3 C 0.11589(8) 0.0673(3) 0.73449(6)
H4 H 0.1147 0.0148 0.7522
C4 C 0.09766(8) 0.2421(3) 0.72990(5)
C5 C 0.07417(9) 0.3303(3) 0.75224(5)
H5 H 0.0680 0.4568 0.7475
H6 H 0.0430 0.2704 0.7536
H7 H 0.0962 0.3212 0.7701
C6 C -0.01736(8) 0.1859(3) 0.63548(6)
H8 H -0.0243 0.1049 0.6502
H9 H -0.0438 0.2745 0.6315
H10 H -0.0153 0.1167 0.6186
C7 C 0.03070(8) 0.2804(3) 0.64488(6)
C8 C 0.03444(9) 0.4631(3) 0.63943(6)
H11 H 0.0057 0.5233 0.6307
C9 C 0.07754(9) 0.5637(3) 0.64596(5)
C10 C 0.07847(9) 0.7542(3) 0.63602(6)
H12 H 0.0949 0.7594 0.6196
H13 H 0.0448 0.7986 0.6311
H14 H 0.0964 0.8288 0.6509
C11 C 0.22324(9) 0.1805(4) 0.61532(6)
H15 H 0.2323 0.2891 0.6060
H16 H 0.2515 0.0992 0.6187
H17 H 0.1959 0.1210 0.6034
C12 C 0.20796(9) 0.2298(3) 0.64257(6)
C13 C 0.24254(8) 0.3077(3) 0.66354(6)
H18 H 0.2749 0.3246 0.6596
C14 C 0.23340(8) 0.3616(3) 0.68930(6)
C15 C 0.27347(8) 0.4398(3) 0.71053(6)
H19 H 0.2809 0.3577 0.7264
H20 H 0.3030 0.4576 0.7020
H21 H 0.2626 0.5552 0.7170
Cr2 Cr 0.129053(14) 0.28514(5) 0.343099(9)
O7 O 0.14150(6) 0.0441(2) 0.35827(4)
O8 O 0.09722(6) 0.3564(2) 0.37492(4)
O9 O 0.06456(6) 0.2045(2) 0.32385(4)
O10 O 0.11760(6) 0.5257(2) 0.32671(4)
O11 O 0.16134(6) 0.2163(2) 0.31167(4)
O12 O 0.19091(5) 0.3684(2) 0.36433(4)
C16 C 0.14958(9) -0.2035(3) 0.38874(6)
H22 H 0.1350 -0.2796 0.3732
H23 H 0.1379 -0.2420 0.4058
H24 H 0.1854 -0.2136 0.3913
C17 C 0.13481(8) -0.0111(3) 0.38254(5)
C18 C 0.11502(9) 0.0913(3) 0.40173(6)
H25 H 0.1137 0.0394 0.4194
C19 C 0.09675(8) 0.2665(3) 0.39697(6)
C20 C 0.07314(9) 0.3559(3) 0.41946(6)
H26 H 0.0647 0.4799 0.4140
H27 H 0.0962 0.3550 0.4371
H28 H 0.0432 0.2907 0.4218
C21 C -0.01803(9) 0.2119(3) 0.30198(6)
H29 H -0.0154 0.1385 0.2856
H30 H -0.0439 0.3016 0.2971
H31 H -0.0261 0.1352 0.3170
C22 C 0.02998(8) 0.3044(3) 0.31160(6)
C23 C 0.03429(9) 0.4860(3) 0.30588(6)
H32 H 0.0058 0.5466 0.2969
C24 C 0.07732(9) 0.5847(3) 0.31246(5)
C25 C 0.07975(9) 0.7753(3) 0.30232(6)
H33 H 0.0955 0.8511 0.3177
H34 H 0.0464 0.8193 0.2957
H35 H 0.0989 0.7792 0.2870
C26 C 0.22219(9) 0.1732(4) 0.28322(6)
H36 H 0.1951 0.1077 0.2721
H37 H 0.2510 0.0951 0.2872
H38 H 0.2303 0.2786 0.2728
C27 C 0.20706(9) 0.2321(3) 0.31017(5)
C28 C 0.24277(8) 0.3012(3) 0.33140(6)
H39 H 0.2758 0.3041 0.3282
C29 C 0.23318(8) 0.3653(3) 0.35670(5)
C30 C 0.27427(8) 0.4370(3) 0.37798(5)
H40 H 0.2644 0.5519 0.3851
H41 H 0.3036 0.4543 0.3693
H42 H 0.2816 0.3516 0.3934
Cr2 Cr 0.870947(14) 0.78514(5) 0.156901(9)
O7 O 0.85850(6) 0.5441(2) 0.14173(4)
O8 O 0.90278(6) 0.8564(2) 0.12508(4)
O9 O 0.93544(6) 0.7045(2) 0.17615(4)
O10 O 0.88240(6) 1.0257(2) 0.17329(4)
O11 O 0.83866(6) 0.7163(2) 0.18833(4)
O12 O 0.80909(5) 0.8684(2) 0.13567(4)
C16 C 0.85042(9) 0.2965(3) 0.11126(6)
H22 H 0.8650 0.2204 0.1268
H23 H 0.8621 0.2580 0.0942
H24 H 0.8146 0.2864 0.1087
C17 C 0.86519(8) 0.4889(3) 0.11746(5)
C18 C 0.88498(9) 0.5913(3) 0.09827(6)
H25 H 0.8863 0.5394 0.0806
C19 C 0.90325(8) 0.7665(3) 0.10303(6)
C20 C 0.92686(9) 0.8559(3) 0.08054(6)
H26 H 0.9353 0.9799 0.0860
H27 H 0.9038 0.8550 0.0629
H28 H 0.9568 0.7907 0.0782
C21 C 1.01803(9) 0.7119(3) 0.19802(6)
H29 H 1.0154 0.6385 0.2144
H30 H 1.0439 0.8016 0.2029
H31 H 1.0261 0.6352 0.1830
C22 C 0.97002(8) 0.8044(3) 0.18840(6)
C23 C 0.96571(9) 0.9860(3) 0.19412(6)
H32 H 0.9942 1.0466 0.2031
C24 C 0.92268(9) 1.0847(3) 0.18754(5)
C25 C 0.92025(9) 1.2753(3) 0.19768(6)
H33 H 0.9045 1.3511 0.1823
H34 H 0.9536 1.3193 0.2043
H35 H 0.9011 1.2792 0.2130
C26 C 0.77781(9) 0.6732(4) 0.21678(6)
H36 H 0.8049 0.6077 0.2279
H37 H 0.7490 0.5951 0.2128
H38 H 0.7697 0.7786 0.2272
C27 C 0.79294(9) 0.7321(3) 0.18983(5)
C28 C 0.75723(8) 0.8012(3) 0.16860(6)
H39 H 0.7242 0.8041 0.1718
C29 C 0.76682(8) 0.8653(3) 0.14330(5)
C30 C 0.72573(8) 0.9370(3) 0.12202(5)
H40 H 0.7356 1.0519 0.1149
H41 H 0.6964 0.9543 0.1307
H42 H 0.7184 0.8516 0.1066
Cr2 Cr 0.870947(14) 0.71486(5) 0.656901(9)
O7 O 0.85850(6) 0.9559(2) 0.64173(4)
O8 O 0.90278(6) 0.6436(2) 0.62508(4)
O9 O 0.93544(6) 0.7955(2) 0.67615(4)
O10 O 0.88240(6) 0.4743(2) 0.67329(4)
O11 O 0.83866(6) 0.7837(2) 0.68833(4)
O12 O 0.80909(5) 0.6316(2) 0.63567(4)
C16 C 0.85042(9) 1.2035(3) 0.61126(6)
H22 H 0.8650 1.2796 0.6268
H23 H 0.8621 1.2420 0.5942
H24 H 0.8146 1.2136 0.6087
C17 C 0.86519(8) 1.0111(3) 0.61746(5)
C18 C 0.88498(9) 0.9087(3) 0.59827(6)
H25 H 0.8863 0.9606 0.5806
C19 C 0.90325(8) 0.7335(3) 0.60303(6)
C20 C 0.92686(9) 0.6441(3) 0.58054(6)
H26 H 0.9353 0.5201 0.5860
H27 H 0.9038 0.6450 0.5629
H28 H 0.9568 0.7093 0.5782
C21 C 1.01803(9) 0.7881(3) 0.69802(6)
H29 H 1.0154 0.8615 0.7144
H30 H 1.0439 0.6984 0.7029
H31 H 1.0261 0.8648 0.6830
C22 C 0.97002(8) 0.6956(3) 0.68840(6)
C23 C 0.96571(9) 0.5140(3) 0.69412(6)
H32 H 0.9942 0.4534 0.7031
C24 C 0.92268(9) 0.4153(3) 0.68754(5)
C25 C 0.92025(9) 0.2247(3) 0.69768(6)
H33 H 0.9045 0.1489 0.6823
H34 H 0.9536 0.1807 0.7043
H35 H 0.9011 0.2208 0.7130
C26 C 0.77781(9) 0.8268(4) 0.71678(6)
H36 H 0.8049 0.8923 0.7279
H37 H 0.7490 0.9049 0.7128
H38 H 0.7697 0.7214 0.7272
C27 C 0.79294(9) 0.7679(3) 0.68983(5)
C28 C 0.75723(8) 0.6988(3) 0.66860(6)
H39 H 0.7242 0.6959 0.6718
C29 C 0.76682(8) 0.6347(3) 0.64330(5)
C30 C 0.72573(8) 0.5630(3) 0.62202(5)
H40 H 0.7356 0.4481 0.6149
H41 H 0.6964 0.5457 0.6307
H42 H 0.7184 0.6484 0.6066
Cr2 Cr 0.129053(14) 0.21486(5) 0.843099(9)
O7 O 0.14150(6) 0.4559(2) 0.85827(4)
O8 O 0.09722(6) 0.1436(2) 0.87492(4)
O9 O 0.06456(6) 0.2955(2) 0.82385(4)
O10 O 0.11760(6) -0.0257(2) 0.82671(4)
O11 O 0.16134(6) 0.2837(2) 0.81167(4)
O12 O 0.19091(5) 0.1316(2) 0.86433(4)
C16 C 0.14958(9) 0.7035(3) 0.88874(6)
H22 H 0.1350 0.7796 0.8732
H23 H 0.1379 0.7420 0.9058
H24 H 0.1854 0.7136 0.8913
C17 C 0.13481(8) 0.5111(3) 0.88254(5)
C18 C 0.11502(9) 0.4087(3) 0.90173(6)
H25 H 0.1137 0.4606 0.9194
C19 C 0.09675(8) 0.2335(3) 0.89697(6)
C20 C 0.07314(9) 0.1441(3) 0.91946(6)
H26 H 0.0647 0.0201 0.9140
H27 H 0.0962 0.1450 0.9371
H28 H 0.0432 0.2093 0.9218
C21 C -0.01803(9) 0.2881(3) 0.80198(6)
H29 H -0.0154 0.3615 0.7856
H30 H -0.0439 0.1984 0.7971
H31 H -0.0261 0.3648 0.8170
C22 C 0.02998(8) 0.1956(3) 0.81160(6)
C23 C 0.03429(9) 0.0140(3) 0.80588(6)
H32 H 0.0058 -0.0466 0.7969
C24 C 0.07732(9) -0.0847(3) 0.81246(5)
C25 C 0.07975(9) -0.2753(3) 0.80232(6)
H33 H 0.0955 -0.3511 0.8177
H34 H 0.0464 -0.3193 0.7957
H35 H 0.0989 -0.2792 0.7870
C26 C 0.22219(9) 0.3268(4) 0.78322(6)
H36 H 0.1951 0.3923 0.7721
H37 H 0.2510 0.4049 0.7872
H38 H 0.2303 0.2214 0.7728
C27 C 0.20706(9) 0.2679(3) 0.81017(5)
C28 C 0.24277(8) 0.1988(3) 0.83140(6)
H39 H 0.2758 0.1959 0.8282
C29 C 0.23318(8) 0.1347(3) 0.85670(5)
C30 C 0.27427(8) 0.0630(3) 0.87798(5)
H40 H 0.2644 -0.0519 0.8851
H41 H 0.3036 0.0457 0.8693
H42 H 0.2816 0.1484 0.8934
Cr3 Cr 0.135853(14) 0.24830(5) 0.510759(9)
O13 O 0.14491(6) 0.4882(2) 0.52724(4)
O14 O 0.10876(6) 0.1589(2) 0.54314(4)
O15 O 0.06859(6) 0.3135(2) 0.49368(4)
O16 O 0.12794(6) 0.0083(2) 0.49377(4)
O17 O 0.16081(6) 0.3379(2) 0.47789(4)
O18 O 0.20258(6) 0.1871(2) 0.52890(4)
C31 C 0.14197(9) 0.7362(3) 0.55673(6)
H43 H 0.1775 0.7572 0.5602
H44 H 0.1280 0.7684 0.5734
H45 H 0.1269 0.8097 0.5409
C32 C 0.13208(8) 0.5407(3) 0.55005(6)
C33 C 0.11091(9) 0.4325(3) 0.56805(6)
H46 H 0.1032 0.4859 0.5845
C34 C 0.10004(9) 0.2505(3) 0.56375(6)
C35 C 0.07572(10) 0.1516(3) 0.58505(6)
H47 H 0.0649 0.0334 0.5777
H48 H 0.0473 0.2201 0.5889
H49 H 0.0992 0.1373 0.6023
C36 C -0.01426(9) 0.2912(4) 0.47215(7)
H50 H -0.0253 0.3487 0.4882
H51 H -0.0377 0.1976 0.4647
H52 H -0.0123 0.3808 0.4576
C37 C 0.03587(9) 0.2084(3) 0.48121(6)
C38 C 0.04351(9) 0.0294(3) 0.47471(6)
H53 H 0.0160 -0.0368 0.4658
C39 C 0.08872(9) -0.0595(3) 0.48042(5)
C40 C 0.09353(9) -0.2480(3) 0.47018(6)
H54 H 0.1138 -0.2479 0.4553
H55 H 0.0609 -0.2956 0.4629
H56 H 0.1091 -0.3232 0.4856
C41 C 0.21328(8) 0.4570(3) 0.44903(5)
H57 H 0.2068 0.3684 0.4340
H58 H 0.2472 0.4994 0.4506
H59 H 0.1907 0.5585 0.4448
C42 C 0.20571(8) 0.3725(3) 0.47603(5)
C43 C 0.24597(8) 0.3306(3) 0.49625(5)
H60 H 0.2776 0.3660 0.4930
C44 C 0.24267(8) 0.2394(3) 0.52112(5)
C45 C 0.28932(8) 0.1944(3) 0.54064(5)
H61 H 0.2814 0.1232 0.5563
H62 H 0.3058 0.3053 0.5478
H63 H 0.3111 0.1255 0.5306
Cr3 Cr 0.864147(14) 0.74830(5) 0.989241(9)
O13 O 0.85509(6) 0.9882(2) 0.97276(4)
O14 O 0.89124(6) 0.6589(2) 0.95686(4)
O15 O 0.93141(6) 0.8135(2) 1.00632(4)
O16 O 0.87206(6) 0.5083(2) 1.00623(4)
O17 O 0.83919(6) 0.8379(2) 1.02211(4)
O18 O 0.79742(6) 0.6871(2) 0.97110(4)
C31 C 0.85803(9) 1.2362(3) 0.94327(6)
H43 H 0.8225 1.2572 0.9398
H44 H 0.8720 1.2684 0.9266
H45 H 0.8731 1.3097 0.9591
C32 C 0.86792(8) 1.0407(3) 0.94995(6)
C33 C 0.88909(9) 0.9325(3) 0.93195(6)
H46 H 0.8968 0.9859 0.9155
C34 C 0.89996(9) 0.7505(3) 0.93625(6)
C35 C 0.92428(10) 0.6516(3) 0.91495(6)
H47 H 0.9351 0.5334 0.9223
H48 H 0.9527 0.7201 0.9111
H49 H 0.9008 0.6373 0.8977
C36 C 1.01426(9) 0.7912(4) 1.02785(7)
H50 H 1.0253 0.8487 1.0118
H51 H 1.0377 0.6976 1.0353
H52 H 1.0123 0.8808 1.0424
C37 C 0.96413(9) 0.7084(3) 1.01879(6)
C38 C 0.95649(9) 0.5294(3) 1.02529(6)
H53 H 0.9840 0.4632 1.0342
C39 C 0.91128(9) 0.4405(3) 1.01958(5)
C40 C 0.90647(9) 0.2520(3) 1.02982(6)
H54 H 0.8862 0.2521 1.0447
H55 H 0.9391 0.2044 1.0371
H56 H 0.8909 0.1768 1.0144
C41 C 0.78672(8) 0.9570(3) 1.05097(5)
H57 H 0.7932 0.8684 1.0660
H58 H 0.7528 0.9994 1.0494
H59 H 0.8093 1.0585 1.0552
C42 C 0.79429(8) 0.8725(3) 1.02397(5)
C43 C 0.75403(8) 0.8306(3) 1.00375(5)
H60 H 0.7224 0.8660 1.0070
C44 C 0.75733(8) 0.7394(3) 0.97888(5)
C45 C 0.71068(8) 0.6944(3) 0.95936(5)
H61 H 0.7186 0.6232 0.9437
H62 H 0.6942 0.8053 0.9522
H63 H 0.6889 0.6255 0.9694
Cr3 Cr 0.864147(14) 0.75170(5) 0.489241(9)
O13 O 0.85509(6) 0.5118(2) 0.47276(4)
O14 O 0.89124(6) 0.8411(2) 0.45686(4)
O15 O 0.93141(6) 0.6865(2) 0.50632(4)
O16 O 0.87206(6) 0.9917(2) 0.50623(4)
O17 O 0.83919(6) 0.6621(2) 0.52211(4)
O18 O 0.79742(6) 0.8129(2) 0.47110(4)
C31 C 0.85803(9) 0.2638(3) 0.44327(6)
H43 H 0.8225 0.2428 0.4398
H44 H 0.8720 0.2316 0.4266
H45 H 0.8731 0.1903 0.4591
C32 C 0.86792(8) 0.4593(3) 0.44995(6)
C33 C 0.88909(9) 0.5675(3) 0.43195(6)
H46 H 0.8968 0.5141 0.4155
C34 C 0.89996(9) 0.7495(3) 0.43625(6)
C35 C 0.92428(10) 0.8484(3) 0.41495(6)
H47 H 0.9351 0.9666 0.4223
H48 H 0.9527 0.7799 0.4111
H49 H 0.9008 0.8627 0.3977
C36 C 1.01426(9) 0.7088(4) 0.52785(7)
H50 H 1.0253 0.6513 0.5118
H51 H 1.0377 0.8024 0.5353
H52 H 1.0123 0.6192 0.5424
C37 C 0.96413(9) 0.7916(3) 0.51879(6)
C38 C 0.95649(9) 0.9706(3) 0.52529(6)
H53 H 0.9840 1.0368 0.5342
C39 C 0.91128(9) 1.0595(3) 0.51958(5)
C40 C 0.90647(9) 1.2480(3) 0.52982(6)
H54 H 0.8862 1.2479 0.5447
H55 H 0.9391 1.2956 0.5371
H56 H 0.8909 1.3232 0.5144
C41 C 0.78672(8) 0.5430(3) 0.55097(5)
H57 H 0.7932 0.6316 0.5660
H58 H 0.7528 0.5006 0.5494
H59 H 0.8093 0.4415 0.5552
C42 C 0.79429(8) 0.6275(3) 0.52397(5)
C43 C 0.75403(8) 0.6694(3) 0.50375(5)
H60 H 0.7224 0.6340 0.5070
C44 C 0.75733(8) 0.7606(3) 0.47888(5)
C45 C 0.71068(8) 0.8056(3) 0.45936(5)
H61 H 0.7186 0.8768 0.4437
H62 H 0.6942 0.6947 0.4522
H63 H 0.6889 0.8745 0.4694
Cr3 Cr 0.135853(14) 0.25170(5) 0.010759(9)
O13 O 0.14491(6) 0.0118(2) 0.02724(4)
O14 O 0.10876(6) 0.3411(2) 0.04314(4)
O15 O 0.06859(6) 0.1865(2) -0.00632(4)
O16 O 0.12794(6) 0.4917(2) -0.00623(4)
O17 O 0.16081(6) 0.1621(2) -0.02211(4)
O18 O 0.20258(6) 0.3129(2) 0.02890(4)
C31 C 0.14197(9) -0.2362(3) 0.05673(6)
H43 H 0.1775 -0.2572 0.0602
H44 H 0.1280 -0.2684 0.0734
H45 H 0.1269 -0.3097 0.0409
C32 C 0.13208(8) -0.0407(3) 0.05005(6)
C33 C 0.11091(9) 0.0675(3) 0.06805(6)
H46 H 0.1032 0.0141 0.0845
C34 C 0.10004(9) 0.2495(3) 0.06375(6)
C35 C 0.07572(10) 0.3484(3) 0.08505(6)
H47 H 0.0649 0.4666 0.0777
H48 H 0.0473 0.2799 0.0889
H49 H 0.0992 0.3627 0.1023
C36 C -0.01426(9) 0.2088(4) -0.02785(7)
H50 H -0.0253 0.1513 -0.0118
H51 H -0.0377 0.3024 -0.0353
H52 H -0.0123 0.1192 -0.0424
C37 C 0.03587(9) 0.2916(3) -0.01879(6)
C38 C 0.04351(9) 0.4706(3) -0.02529(6)
H53 H 0.0160 0.5368 -0.0342
C39 C 0.08872(9) 0.5595(3) -0.01958(5)
C40 C 0.09353(9) 0.7480(3) -0.02982(6)
H54 H 0.1138 0.7479 -0.0447
H55 H 0.0609 0.7956 -0.0371
H56 H 0.1091 0.8232 -0.0144
C41 C 0.21328(8) 0.0430(3) -0.05097(5)
H57 H 0.2068 0.1316 -0.0660
H58 H 0.2472 0.0006 -0.0494
H59 H 0.1907 -0.0585 -0.0552
C42 C 0.20571(8) 0.1275(3) -0.02397(5)
C43 C 0.24597(8) 0.1694(3) -0.00375(5)
H60 H 0.2776 0.1340 -0.0070
C44 C 0.24267(8) 0.2606(3) 0.02112(5)
C45 C 0.28932(8) 0.3056(3) 0.04064(5)
H61 H 0.2814 0.3768 0.0563
H62 H 0.3058 0.1947 0.0478
H63 H 0.3111 0.3745 0.0306
Cr4 Cr 0.370910(13) 0.77617(5) 0.490022(8)
O19 O 0.35781(6) 0.5341(2) 0.47481(4)
O20 O 0.40326(6) 0.8453(2) 0.45835(4)
O21 O 0.43511(6) 0.6936(2) 0.50963(4)
O22 O 0.38308(6) 1.0165(2) 0.50644(4)
O23 O 0.33777(6) 0.7103(2) 0.52149(4)
O24 O 0.30953(5) 0.8607(2) 0.46852(4)
C46 C 0.34969(9) 0.2861(3) 0.44479(6)
H64 H 0.3652 0.2094 0.4601
H65 H 0.3602 0.2483 0.4274
H66 H 0.3139 0.2760 0.4430
C47 C 0.36480(8) 0.4780(3) 0.45091(6)
C48 C 0.38476(8) 0.5799(3) 0.43158(5)
H67 H 0.3859 0.5276 0.4139
C49 C 0.40339(8) 0.7544(3) 0.43622(6)
C50 C 0.42721(9) 0.8432(3) 0.41406(6)
H68 H 0.4352 0.9676 0.4194
H69 H 0.4046 0.8411 0.3963
H70 H 0.4574 0.7788 0.4120
C51 C 0.51783(9) 0.6966(3) 0.53191(6)
H71 H 0.5140 0.6183 0.5476
H72 H 0.5435 0.7854 0.5379
H73 H 0.5271 0.6246 0.5167
C52 C 0.46971(8) 0.7916(3) 0.52180(5)
C53 C 0.46590(9) 0.9742(3) 0.52724(6)
H74 H 0.4945 1.0342 0.5362
C54 C 0.42305(9) 1.0747(3) 0.52043(5)
C55 C 0.42202(9) 1.2659(3) 0.53038(6)
H75 H 0.4050 1.3411 0.5153
H76 H 0.4557 1.3092 0.5359
H77 H 0.4046 1.2717 0.5464
C56 C 0.27701(9) 0.6853(3) 0.55046(5)
H78 H 0.3039 0.6205 0.5619
H79 H 0.2479 0.6081 0.5469
H80 H 0.2692 0.7934 0.5603
C57 C 0.29238(8) 0.7371(3) 0.52330(5)
C58 C 0.25778(8) 0.8120(3) 0.50247(5)
H81 H 0.2252 0.8252 0.5062
C59 C 0.26727(8) 0.8689(3) 0.47665(5)
C60 C 0.22722(8) 0.9451(3) 0.45519(5)
H82 H 0.2382 1.0588 0.4482
H83 H 0.1978 0.9656 0.4637
H84 H 0.2195 0.8604 0.4397
Cr4 Cr 0.629090(13) 0.27617(5) 0.009978(8)
O19 O 0.64219(6) 0.0341(2) 0.02519(4)
O20 O 0.59674(6) 0.3453(2) 0.04165(4)
O21 O 0.56489(6) 0.1936(2) -0.00963(4)
O22 O 0.61692(6) 0.5165(2) -0.00644(4)
O23 O 0.66223(6) 0.2103(2) -0.02149(4)
O24 O 0.69047(5) 0.3607(2) 0.03148(4)
C46 C 0.65031(9) -0.2139(3) 0.05521(6)
H64 H 0.6348 -0.2906 0.0399
H65 H 0.6398 -0.2517 0.0726
H66 H 0.6861 -0.2240 0.0570
C47 C 0.63520(8) -0.0220(3) 0.04909(6)
C48 C 0.61524(8) 0.0799(3) 0.06842(5)
H67 H 0.6141 0.0276 0.0861
C49 C 0.59661(8) 0.2544(3) 0.06378(6)
C50 C 0.57279(9) 0.3432(3) 0.08594(6)
H68 H 0.5648 0.4676 0.0806
H69 H 0.5954 0.3411 0.1037
H70 H 0.5426 0.2788 0.0880
C51 C 0.48217(9) 0.1966(3) -0.03191(6)
H71 H 0.4860 0.1183 -0.0476
H72 H 0.4565 0.2854 -0.0379
H73 H 0.4729 0.1246 -0.0167
C52 C 0.53029(8) 0.2916(3) -0.02180(5)
C53 C 0.53410(9) 0.4742(3) -0.02724(6)
H74 H 0.5055 0.5342 -0.0362
C54 C 0.57695(9) 0.5747(3) -0.02043(5)
C55 C 0.57798(9) 0.7659(3) -0.03038(6)
H75 H 0.5950 0.8411 -0.0153
H76 H 0.5443 0.8092 -0.0359
H77 H 0.5954 0.7717 -0.0464
C56 C 0.72299(9) 0.1853(3) -0.05046(5)
H78 H 0.6961 0.1205 -0.0619
H79 H 0.7521 0.1081 -0.0469
H80 H 0.7308 0.2934 -0.0603
C57 C 0.70762(8) 0.2371(3) -0.02330(5)
C58 C 0.74222(8) 0.3120(3) -0.00247(5)
H81 H 0.7748 0.3252 -0.0062
C59 C 0.73273(8) 0.3689(3) 0.02335(5)
C60 C 0.77278(8) 0.4451(3) 0.04481(5)
H82 H 0.7618 0.5588 0.0518
H83 H 0.8022 0.4656 0.0363
H84 H 0.7805 0.3604 0.0603
Cr4 Cr 0.629090(13) 0.22383(5) 0.509978(8)
O19 O 0.64219(6) 0.4659(2) 0.52519(4)
O20 O 0.59674(6) 0.1547(2) 0.54165(4)
O21 O 0.56489(6) 0.3064(2) 0.49037(4)
O22 O 0.61692(6) -0.0165(2) 0.49356(4)
O23 O 0.66223(6) 0.2897(2) 0.47851(4)
O24 O 0.69047(5) 0.1393(2) 0.53148(4)
C46 C 0.65031(9) 0.7139(3) 0.55521(6)
H64 H 0.6348 0.7906 0.5399
H65 H 0.6398 0.7517 0.5726
H66 H 0.6861 0.7240 0.5570
C47 C 0.63520(8) 0.5220(3) 0.54909(6)
C48 C 0.61524(8) 0.4201(3) 0.56842(5)
H67 H 0.6141 0.4724 0.5861
C49 C 0.59661(8) 0.2456(3) 0.56378(6)
C50 C 0.57279(9) 0.1568(3) 0.58594(6)
H68 H 0.5648 0.0324 0.5806
H69 H 0.5954 0.1589 0.6037
H70 H 0.5426 0.2212 0.5880
C51 C 0.48217(9) 0.3034(3) 0.46809(6)
H71 H 0.4860 0.3817 0.4524
H72 H 0.4565 0.2146 0.4621
H73 H 0.4729 0.3754 0.4833
C52 C 0.53029(8) 0.2084(3) 0.47820(5)
C53 C 0.53410(9) 0.0258(3) 0.47276(6)
H74 H 0.5055 -0.0342 0.4638
C54 C 0.57695(9) -0.0747(3) 0.47957(5)
C55 C 0.57798(9) -0.2659(3) 0.46962(6)
H75 H 0.5950 -0.3411 0.4847
H76 H 0.5443 -0.3092 0.4641
H77 H 0.5954 -0.2717 0.4536
C56 C 0.72299(9) 0.3147(3) 0.44954(5)
H78 H 0.6961 0.3795 0.4381
H79 H 0.7521 0.3919 0.4531
H80 H 0.7308 0.2066 0.4397
C57 C 0.70762(8) 0.2629(3) 0.47670(5)
C58 C 0.74222(8) 0.1880(3) 0.49753(5)
H81 H 0.7748 0.1748 0.4938
C59 C 0.73273(8) 0.1311(3) 0.52335(5)
C60 C 0.77278(8) 0.0549(3) 0.54481(5)
H82 H 0.7618 -0.0588 0.5518
H83 H 0.8022 0.0344 0.5363
H84 H 0.7805 0.1396 0.5603
Cr4 Cr 0.370910(13) 0.72383(5) 0.990022(8)
O19 O 0.35781(6) 0.9659(2) 0.97481(4)
O20 O 0.40326(6) 0.6547(2) 0.95835(4)
O21 O 0.43511(6) 0.8064(2) 1.00963(4)
O22 O 0.38308(6) 0.4835(2) 1.00644(4)
O23 O 0.33777(6) 0.7897(2) 1.02149(4)
O24 O 0.30953(5) 0.6393(2) 0.96852(4)
C46 C 0.34969(9) 1.2139(3) 0.94479(6)
H64 H 0.3652 1.2906 0.9601
H65 H 0.3602 1.2517 0.9274
H66 H 0.3139 1.2240 0.9430
C47 C 0.36480(8) 1.0220(3) 0.95091(6)
C48 C 0.38476(8) 0.9201(3) 0.93158(5)
H67 H 0.3859 0.9724 0.9139
C49 C 0.40339(8) 0.7456(3) 0.93622(6)
C50 C 0.42721(9) 0.6568(3) 0.91406(6)
H68 H 0.4352 0.5324 0.9194
H69 H 0.4046 0.6589 0.8963
H70 H 0.4574 0.7212 0.9120
C51 C 0.51783(9) 0.8034(3) 1.03191(6)
H71 H 0.5140 0.8817 1.0476
H72 H 0.5435 0.7146 1.0379
H73 H 0.5271 0.8754 1.0167
C52 C 0.46971(8) 0.7084(3) 1.02180(5)
C53 C 0.46590(9) 0.5258(3) 1.02724(6)
H74 H 0.4945 0.4658 1.0362
C54 C 0.42305(9) 0.4253(3) 1.02043(5)
C55 C 0.42202(9) 0.2341(3) 1.03038(6)
H75 H 0.4050 0.1589 1.0153
H76 H 0.4557 0.1908 1.0359
H77 H 0.4046 0.2283 1.0464
C56 C 0.27701(9) 0.8147(3) 1.05046(5)
H78 H 0.3039 0.8795 1.0619
H79 H 0.2479 0.8919 1.0469
H80 H 0.2692 0.7066 1.0603
C57 C 0.29238(8) 0.7629(3) 1.02330(5)
C58 C 0.25778(8) 0.6880(3) 1.00247(5)
H81 H 0.2252 0.6748 1.0062
C59 C 0.26727(8) 0.6311(3) 0.97665(5)
C60 C 0.22722(8) 0.5549(3) 0.95519(5)
H82 H 0.2382 0.4412 0.9482
H83 H 0.1978 0.5344 0.9637
H84 H 0.2195 0.6396 0.9397
Cr5 Cr 0.365644(14) 0.73353(5) 0.322249(9)
O25 O 0.35664(6) 0.9728(2) 0.30562(4)
O26 O 0.39339(6) 0.6439(2) 0.29004(4)
O27 O 0.43277(6) 0.7994(2) 0.33945(4)
O28 O 0.37337(6) 0.4938(2) 0.33918(4)
O29 O 0.34020(6) 0.8239(2) 0.35491(4)
O30 O 0.29924(6) 0.6719(2) 0.30403(4)
C61 C 0.35825(9) 1.2189(3) 0.27550(6)
H85 H 0.3227 1.2372 0.2708
H86 H 0.3740 1.2520 0.2595
H87 H 0.3713 1.2938 0.2915
C62 C 0.36861(8) 1.0246(3) 0.28265(6)
C63 C 0.38947(9) 0.9154(3) 0.26436(6)
H88 H 0.3960 0.9676 0.2475
C64 C 0.40147(8) 0.7341(3) 0.26909(5)
C65 C 0.42647(9) 0.6368(3) 0.24816(5)
H89 H 0.4354 0.5159 0.2550
H90 H 0.4562 0.7022 0.2455
H91 H 0.4041 0.6291 0.2304
C66 C 0.51514(9) 0.7783(4) 0.36148(6)
H92 H 0.5249 0.8476 0.3461
H93 H 0.5394 0.6837 0.3671
H94 H 0.5135 0.8577 0.3774
C67 C 0.46531(9) 0.6950(3) 0.35206(6)
C68 C 0.45765(9) 0.5157(3) 0.35879(6)
H95 H 0.4850 0.4502 0.3681
C69 C 0.41247(9) 0.4264(3) 0.35278(6)
C70 C 0.40798(9) 0.2381(3) 0.36320(6)
H96 H 0.3889 0.2389 0.3785
H97 H 0.4408 0.1897 0.3698
H98 H 0.3913 0.1631 0.3480
C71 C 0.28743(9) 0.9463(3) 0.38335(5)
H99 H 0.2951 0.8609 0.3988
H100 H 0.2531 0.9847 0.3819
H101 H 0.3091 1.0507 0.3869
C72 C 0.29501(8) 0.8583(3) 0.35662(5)
C73 C 0.25540(8) 0.8169(3) 0.33609(6)
H102 H 0.2237 0.8547 0.3390
C74 C 0.25884(9) 0.7240(3) 0.31164(6)
C75 C 0.21234(9) 0.6805(4) 0.29182(6)
H103 H 0.2200 0.5992 0.2773
H104 H 0.1980 0.7911 0.2832
H105 H 0.1888 0.6228 0.3021
Cr5 Cr 0.634356(14) 0.23353(5) 0.177751(9)
O25 O 0.64336(6) 0.4728(2) 0.19438(4)
O26 O 0.60661(6) 0.1439(2) 0.20996(4)
O27 O 0.56723(6) 0.2994(2) 0.16055(4)
O28 O 0.62663(6) -0.0062(2) 0.16082(4)
O29 O 0.65980(6) 0.3239(2) 0.14509(4)
O30 O 0.70076(6) 0.1719(2) 0.19597(4)
C61 C 0.64175(9) 0.7189(3) 0.22450(6)
H85 H 0.6773 0.7372 0.2292
H86 H 0.6260 0.7520 0.2405
H87 H 0.6287 0.7938 0.2085
C62 C 0.63139(8) 0.5246(3) 0.21735(6)
C63 C 0.61053(9) 0.4154(3) 0.23564(6)
H88 H 0.6040 0.4676 0.2525
C64 C 0.59853(8) 0.2341(3) 0.23091(5)
C65 C 0.57353(9) 0.1368(3) 0.25184(5)
H89 H 0.5646 0.0159 0.2450
H90 H 0.5438 0.2022 0.2545
H91 H 0.5959 0.1291 0.2696
C66 C 0.48486(9) 0.2783(4) 0.13852(6)
H92 H 0.4751 0.3476 0.1539
H93 H 0.4606 0.1837 0.1329
H94 H 0.4865 0.3577 0.1226
C67 C 0.53469(9) 0.1950(3) 0.14794(6)
C68 C 0.54235(9) 0.0157(3) 0.14121(6)
H95 H 0.5150 -0.0498 0.1319
C69 C 0.58753(9) -0.0736(3) 0.14722(6)
C70 C 0.59202(9) -0.2619(3) 0.13680(6)
H96 H 0.6111 -0.2611 0.1215
H97 H 0.5592 -0.3103 0.1302
H98 H 0.6087 -0.3369 0.1520
C71 C 0.71257(9) 0.4463(3) 0.11665(5)
H99 H 0.7049 0.3609 0.1012
H100 H 0.7469 0.4847 0.1181
H101 H 0.6909 0.5507 0.1131
C72 C 0.70499(8) 0.3583(3) 0.14338(5)
C73 C 0.74460(8) 0.3169(3) 0.16391(6)
H102 H 0.7763 0.3547 0.1610
C74 C 0.74116(9) 0.2240(3) 0.18836(6)
C75 C 0.78766(9) 0.1805(4) 0.20818(6)
H103 H 0.7800 0.0992 0.2227
H104 H 0.8020 0.2911 0.2168
H105 H 0.8112 0.1228 0.1979
Cr5 Cr 0.634356(14) 0.26647(5) 0.677751(9)
O25 O 0.64336(6) 0.0272(2) 0.69438(4)
O26 O 0.60661(6) 0.3561(2) 0.70996(4)
O27 O 0.56723(6) 0.2006(2) 0.66055(4)
O28 O 0.62663(6) 0.5062(2) 0.66082(4)
O29 O 0.65980(6) 0.1761(2) 0.64509(4)
O30 O 0.70076(6) 0.3281(2) 0.69597(4)
C61 C 0.64175(9) -0.2189(3) 0.72450(6)
H85 H 0.6773 -0.2372 0.7292
H86 H 0.6260 -0.2520 0.7405
H87 H 0.6287 -0.2938 0.7085
C62 C 0.63139(8) -0.0246(3) 0.71735(6)
C63 C 0.61053(9) 0.0846(3) 0.73564(6)
H88 H 0.6040 0.0324 0.7525
C64 C 0.59853(8) 0.2659(3) 0.73091(5)
C65 C 0.57353(9) 0.3632(3) 0.75184(5)
H89 H 0.5646 0.4841 0.7450
H90 H 0.5438 0.2978 0.7545
H91 H 0.5959 0.3709 0.7696
C66 C 0.48486(9) 0.2217(4) 0.63852(6)
H92 H 0.4751 0.1524 0.6539
H93 H 0.4606 0.3163 0.6329
H94 H 0.4865 0.1423 0.6226
C67 C 0.53469(9) 0.3050(3) 0.64794(6)
C68 C 0.54235(9) 0.4843(3) 0.64121(6)
H95 H 0.5150 0.5498 0.6319
C69 C 0.58753(9) 0.5736(3) 0.64722(6)
C70 C 0.59202(9) 0.7619(3) 0.63680(6)
H96 H 0.6111 0.7611 0.6215
H97 H 0.5592 0.8103 0.6302
H98 H 0.6087 0.8369 0.6520
C71 C 0.71257(9) 0.0537(3) 0.61665(5)
H99 H 0.7049 0.1391 0.6012
H100 H 0.7469 0.0153 0.6181
H101 H 0.6909 -0.0507 0.6131
C72 C 0.70499(8) 0.1417(3) 0.64338(5)
C73 C 0.74460(8) 0.1831(3) 0.66391(6)
H102 H 0.7763 0.1453 0.6610
C74 C 0.74116(9) 0.2760(3) 0.68836(6)
C75 C 0.78766(9) 0.3195(4) 0.70818(6)
H103 H 0.7800 0.4008 0.7227
H104 H 0.8020 0.2089 0.7168
H105 H 0.8112 0.3772 0.6979
Cr5 Cr 0.365644(14) 0.76647(5) 0.822249(9)
O25 O 0.35664(6) 0.5272(2) 0.80562(4)
O26 O 0.39339(6) 0.8561(2) 0.79004(4)
O27 O 0.43277(6) 0.7006(2) 0.83945(4)
O28 O 0.37337(6) 1.0062(2) 0.83918(4)
O29 O 0.34020(6) 0.6761(2) 0.85491(4)
O30 O 0.29924(6) 0.8281(2) 0.80403(4)
C61 C 0.35825(9) 0.2811(3) 0.77550(6)
H85 H 0.3227 0.2628 0.7708
H86 H 0.3740 0.2480 0.7595
H87 H 0.3713 0.2062 0.7915
C62 C 0.36861(8) 0.4754(3) 0.78265(6)
C63 C 0.38947(9) 0.5846(3) 0.76436(6)
H88 H 0.3960 0.5324 0.7475
C64 C 0.40147(8) 0.7659(3) 0.76909(5)
C65 C 0.42647(9) 0.8632(3) 0.74816(5)
H89 H 0.4354 0.9841 0.7550
H90 H 0.4562 0.7978 0.7455
H91 H 0.4041 0.8709 0.7304
C66 C 0.51514(9) 0.7217(4) 0.86148(6)
H92 H 0.5249 0.6524 0.8461
H93 H 0.5394 0.8163 0.8671
H94 H 0.5135 0.6423 0.8774
C67 C 0.46531(9) 0.8050(3) 0.85206(6)
C68 C 0.45765(9) 0.9843(3) 0.85879(6)
H95 H 0.4850 1.0498 0.8681
C69 C 0.41247(9) 1.0736(3) 0.85278(6)
C70 C 0.40798(9) 1.2619(3) 0.86320(6)
H96 H 0.3889 1.2611 0.8785
H97 H 0.4408 1.3103 0.8698
H98 H 0.3913 1.3369 0.8480
C71 C 0.28743(9) 0.5537(3) 0.88335(5)
H99 H 0.2951 0.6391 0.8988
H100 H 0.2531 0.5153 0.8819
H101 H 0.3091 0.4493 0.8869
C72 C 0.29501(8) 0.6417(3) 0.85662(5)
C73 C 0.25540(8) 0.6831(3) 0.83609(6)
H102 H 0.2237 0.6453 0.8390
C74 C 0.25884(9) 0.7760(3) 0.81164(6)
C75 C 0.21234(9) 0.8195(4) 0.79182(6)
H103 H 0.2200 0.9008 0.7773
H104 H 0.1980 0.7089 0.7832
H105 H 0.1888 0.8772 0.8021
Cr6 Cr 0.364423(14) 0.74521(5) 0.155932(9)
O31 O 0.35545(6) 0.5052(2) 0.13973(4)
O32 O 0.39208(6) 0.8328(2) 0.12338(4)
O33 O 0.43145(6) 0.6779(2) 0.17319(4)
O34 O 0.37257(6) 0.9851(2) 0.17257(4)
O35 O 0.33905(5) 0.6579(2) 0.18865(4)
O36 O 0.29788(6) 0.8082(2) 0.13755(4)
C76 C 0.35738(9) 0.2568(3) 0.11000(6)
H106 H 0.3704 0.1839 0.1263
H107 H 0.3733 0.2218 0.0942
H108 H 0.3219 0.2378 0.1052
C77 C 0.36751(8) 0.4524(3) 0.11662(6)
C78 C 0.38861(9) 0.5589(3) 0.09840(6)
H109 H 0.3958 0.5049 0.0818
C79 C 0.40008(8) 0.7412(3) 0.10277(6)
C80 C 0.42425(10) 0.8385(3) 0.08126(6)
H110 H 0.4352 0.9570 0.0884
H111 H 0.4006 0.8523 0.0640
H112 H 0.4526 0.7694 0.0774
C81 C 0.51356(9) 0.6987(3) 0.19459(6)
H113 H 0.5117 0.6143 0.2098
H114 H 0.5377 0.7921 0.2010
H115 H 0.5235 0.6346 0.1788
C82 C 0.46433(9) 0.7827(3) 0.18565(6)
C83 C 0.45704(9) 0.9620(3) 0.19227(6)
H116 H 0.4845 1.0270 0.2015
C84 C 0.41234(9) 1.0517(3) 0.18626(5)
C85 C 0.40743(9) 1.2416(3) 0.19622(6)
H117 H 0.3951 1.3184 0.1803
H118 H 0.4396 1.2851 0.2053
H119 H 0.3844 1.2444 0.2096
C86 C 0.28597(9) 0.5466(3) 0.21805(5)
H120 H 0.3082 0.4445 0.2224
H121 H 0.2519 0.5057 0.2165
H122 H 0.2927 0.6361 0.2329
C87 C 0.29381(8) 0.6289(3) 0.19083(5)
C88 C 0.25406(8) 0.6713(3) 0.17037(6)
H123 H 0.2223 0.6368 0.1735
C89 C 0.25759(9) 0.7608(3) 0.14562(6)
C90 C 0.21109(9) 0.8048(4) 0.12602(6)
H124 H 0.2192 0.8736 0.1102
H125 H 0.1894 0.8760 0.1359
H126 H 0.1944 0.6936 0.1192
Cr6 Cr 0.635577(14) 0.24521(5) 0.344068(9)
O31 O 0.64455(6) 0.0052(2) 0.36027(4)
O32 O 0.60792(6) 0.3328(2) 0.37662(4)
O33 O 0.56855(6) 0.1779(2) 0.32681(4)
O34 O 0.62743(6) 0.4851(2) 0.32743(4)
O35 O 0.66095(5) 0.1579(2) 0.31135(4)
O36 O 0.70212(6) 0.3082(2) 0.36245(4)
C76 C 0.64262(9) -0.2432(3) 0.39000(6)
H106 H 0.6296 -0.3161 0.3737
H107 H 0.6267 -0.2782 0.4058
H108 H 0.6781 -0.2622 0.3948
C77 C 0.63249(8) -0.0476(3) 0.38338(6)
C78 C 0.61139(9) 0.0589(3) 0.40160(6)
H109 H 0.6042 0.0049 0.4182
C79 C 0.59992(8) 0.2412(3) 0.39723(6)
C80 C 0.57575(10) 0.3385(3) 0.41874(6)
H110 H 0.5648 0.4570 0.4116
H111 H 0.5994 0.3523 0.4360
H112 H 0.5474 0.2694 0.4226
C81 C 0.48644(9) 0.1987(3) 0.30541(6)
H113 H 0.4883 0.1143 0.2902
H114 H 0.4623 0.2921 0.2990
H115 H 0.4765 0.1346 0.3212
C82 C 0.53567(9) 0.2827(3) 0.31435(6)
C83 C 0.54296(9) 0.4620(3) 0.30773(6)
H116 H 0.5155 0.5270 0.2985
C84 C 0.58766(9) 0.5517(3) 0.31374(5)
C85 C 0.59257(9) 0.7416(3) 0.30378(6)
H117 H 0.6049 0.8184 0.3197
H118 H 0.5604 0.7851 0.2947
H119 H 0.6156 0.7444 0.2904
C86 C 0.71403(9) 0.0466(3) 0.28195(5)
H120 H 0.6918 -0.0555 0.2776
H121 H 0.7481 0.0057 0.2835
H122 H 0.7073 0.1361 0.2671
C87 C 0.70619(8) 0.1289(3) 0.30917(5)
C88 C 0.74594(8) 0.1713(3) 0.32963(6)
H123 H 0.7777 0.1368 0.3265
C89 C 0.74241(9) 0.2608(3) 0.35438(6)
C90 C 0.78891(9) 0.3048(4) 0.37398(6)
H124 H 0.7808 0.3736 0.3898
H125 H 0.8106 0.3760 0.3641
H126 H 0.8056 0.1936 0.3808
Cr6 Cr 0.635577(14) 0.25479(5) 0.844068(9)
O31 O 0.64455(6) 0.4948(2) 0.86027(4)
O32 O 0.60792(6) 0.1672(2) 0.87662(4)
O33 O 0.56855(6) 0.3221(2) 0.82681(4)
O34 O 0.62743(6) 0.0149(2) 0.82743(4)
O35 O 0.66095(5) 0.3421(2) 0.81135(4)
O36 O 0.70212(6) 0.1918(2) 0.86245(4)
C76 C 0.64262(9) 0.7432(3) 0.89000(6)
H106 H 0.6296 0.8161 0.8737
H107 H 0.6267 0.7782 0.9058
H108 H 0.6781 0.7622 0.8948
C77 C 0.63249(8) 0.5476(3) 0.88338(6)
C78 C 0.61139(9) 0.4411(3) 0.90160(6)
H109 H 0.6042 0.4951 0.9182
C79 C 0.59992(8) 0.2588(3) 0.89723(6)
C80 C 0.57575(10) 0.1615(3) 0.91874(6)
H110 H 0.5648 0.0430 0.9116
H111 H 0.5994 0.1477 0.9360
H112 H 0.5474 0.2306 0.9226
C81 C 0.48644(9) 0.3013(3) 0.80541(6)
H113 H 0.4883 0.3857 0.7902
H114 H 0.4623 0.2079 0.7990
H115 H 0.4765 0.3654 0.8212
C82 C 0.53567(9) 0.2173(3) 0.81435(6)
C83 C 0.54296(9) 0.0380(3) 0.80773(6)
H116 H 0.5155 -0.0270 0.7985
C84 C 0.58766(9) -0.0517(3) 0.81374(5)
C85 C 0.59257(9) -0.2416(3) 0.80378(6)
H117 H 0.6049 -0.3184 0.8197
H118 H 0.5604 -0.2851 0.7947
H119 H 0.6156 -0.2444 0.7904
C86 C 0.71403(9) 0.4534(3) 0.78195(5)
H120 H 0.6918 0.5555 0.7776
H121 H 0.7481 0.4943 0.7835
H122 H 0.7073 0.3639 0.7671
C87 C 0.70619(8) 0.3711(3) 0.80917(5)
C88 C 0.74594(8) 0.3287(3) 0.82963(6)
H123 H 0.7777 0.3632 0.8265
C89 C 0.74241(9) 0.2392(3) 0.85438(6)
C90 C 0.78891(9) 0.1952(4) 0.87398(6)
H124 H 0.7808 0.1264 0.8898
H125 H 0.8106 0.1240 0.8641
H126 H 0.8056 0.3064 0.8808
Cr6 Cr 0.364423(14) 0.75479(5) 0.655932(9)
O31 O 0.35545(6) 0.9948(2) 0.63973(4)
O32 O 0.39208(6) 0.6672(2) 0.62338(4)
O33 O 0.43145(6) 0.8221(2) 0.67319(4)
O34 O 0.37257(6) 0.5149(2) 0.67257(4)
O35 O 0.33905(5) 0.8421(2) 0.68865(4)
O36 O 0.29788(6) 0.6918(2) 0.63755(4)
C76 C 0.35738(9) 1.2432(3) 0.61000(6)
H106 H 0.3704 1.3161 0.6263
H107 H 0.3733 1.2782 0.5942
H108 H 0.3219 1.2622 0.6052
C77 C 0.36751(8) 1.0476(3) 0.61662(6)
C78 C 0.38861(9) 0.9411(3) 0.59840(6)
H109 H 0.3958 0.9951 0.5818
C79 C 0.40008(8) 0.7588(3) 0.60277(6)
C80 C 0.42425(10) 0.6615(3) 0.58126(6)
H110 H 0.4352 0.5430 0.5884
H111 H 0.4006 0.6477 0.5640
H112 H 0.4526 0.7306 0.5774
C81 C 0.51356(9) 0.8013(3) 0.69459(6)
H113 H 0.5117 0.8857 0.7098
H114 H 0.5377 0.7079 0.7010
H115 H 0.5235 0.8654 0.6788
C82 C 0.46433(9) 0.7173(3) 0.68565(6)
C83 C 0.45704(9) 0.5380(3) 0.69227(6)
H116 H 0.4845 0.4730 0.7015
C84 C 0.41234(9) 0.4483(3) 0.68626(5)
C85 C 0.40743(9) 0.2584(3) 0.69622(6)
H117 H 0.3951 0.1816 0.6803
H118 H 0.4396 0.2149 0.7053
H119 H 0.3844 0.2556 0.7096
C86 C 0.28597(9) 0.9534(3) 0.71805(5)
H120 H 0.3082 1.0555 0.7224
H121 H 0.2519 0.9943 0.7165
H122 H 0.2927 0.8639 0.7329
C87 C 0.29381(8) 0.8711(3) 0.69083(5)
C88 C 0.25406(8) 0.8287(3) 0.67037(6)
H123 H 0.2223 0.8632 0.6735
C89 C 0.25759(9) 0.7392(3) 0.64562(6)
C90 C 0.21109(9) 0.6952(4) 0.62602(6)
H124 H 0.2192 0.6264 0.6102
H125 H 0.1894 0.6240 0.6359
H126 H 0.1944 0.8064 0.6192

#END
