./ACAQGD01_from_POSCAR.cif_generated_by_CrystalShift
_symmetry_cell_setting triclinic
_symmetry_space_group_name_H-M 'P 1'
loop_
_symmetry_equiv_pos_site_id
_symmetry_equiv_pos_as_xyz
1 x,y,z
_cell_length_a 8.940000
_cell_length_b 9.315000
_cell_length_c 10.528000
_cell_angle_alpha 91.680000
_cell_angle_beta 114.040000
_cell_angle_gamma 118.030000
_cell_volume 679.748499
loop_
_atom_site_label
_atom_site_type_symbol
_atom_site_fract_x
_atom_site_fract_y
_atom_site_fract_z
H1 H 0.769300 1.404200 0.335200
H2 H 0.582000 0.442000 0.427000
H3 H 0.618000 0.700000 0.594000
H4 H 0.418000 0.558000 0.573000
H5 H 0.780000 0.739000 0.429000
H6 H 0.974200 0.478100 0.348000
H7 H 0.769300 0.404200 0.335200
H8 H 0.807500 0.468800 0.209300
H9 H 0.879000 0.717000 0.580000
H10 H 0.220000 0.261000 0.571000
H11 H 0.121000 0.283000 0.420000
H12 H 0.393000 1.301000 1.180000
H13 H 1.229300 -0.011400 0.498500
H14 H 1.280900 -0.045400 0.379900
H15 H 1.147800 -0.197400 0.419800
H16 H 0.389000 1.412000 1.079000
H17 H 0.305000 0.910000 1.128000
H18 H 0.146000 0.951000 1.106000
H19 H 0.856300 1.405100 0.830300
H20 H 0.299600 -0.409100 0.307700
H21 H 0.193000 -0.544500 0.160300
H22 H 0.143700 -0.405100 0.169700
H23 H 0.807000 1.544500 0.839700
H24 H 0.854000 0.049000 -0.106000
H25 H 0.695000 0.090000 -0.128000
H26 H 0.700400 1.409100 0.692300
H27 H 0.611000 -0.412000 -0.079000
H28 H 0.607000 -0.301000 -0.180000
H29 H -0.147800 1.197400 0.580200
H30 H -0.280900 1.045400 0.620100
H31 H -0.229300 1.011400 0.501500
H32 H 0.192500 0.531200 0.790700
H33 H 0.230700 0.595800 0.664800
H34 H 0.025800 -0.478100 -0.348000
H35 H 0.230700 -0.404200 -0.335200
H36 H 0.192500 -0.468800 -0.209300
H37 H 0.025800 0.521900 0.652000
H38 H 0.607000 0.699000 0.820000
H39 H 0.611000 0.588000 0.921000
H40 H 0.695000 1.090000 0.872000
H41 H -0.229300 0.011400 -0.498500
H42 H -0.280900 0.045400 -0.379900
H43 H -0.147800 0.197400 -0.419800
H44 H 0.854000 1.049000 0.894000
H45 H 0.143700 0.594900 1.169700
H46 H 0.193000 0.455500 1.160300
H47 H 0.299600 0.590900 1.307700
H48 H 0.700400 0.409100 -0.307700
H49 H 0.807000 0.544500 -0.160300
H50 H 0.856300 0.405100 -0.169700
H51 H 1.147800 0.802600 1.419800
H52 H 0.146000 -0.049000 0.106000
H53 H 0.305000 -0.090000 0.128000
H54 H 1.280900 0.954600 1.379900
H55 H 0.389000 0.412000 0.079000
H56 H 0.393000 0.301000 0.180000
H57 H 1.229300 0.988600 1.498500
H58 H 0.807500 1.468800 1.209300
H59 H 0.769300 1.404200 1.335200
H60 H 0.974200 1.478100 1.348000
H61 H 0.393000 1.301000 0.180000
H62 H 0.974200 0.478100 1.348000
H63 H 0.769300 0.404200 1.335200
H64 H 0.807500 0.468800 1.209300
H65 H 0.389000 1.412000 0.079000
H66 H 0.305000 0.910000 0.128000
H67 H 0.146000 0.951000 0.106000
H68 H 0.856300 1.405100 -0.169700
H69 H 1.229300 -0.011400 1.498500
H70 H 1.280900 -0.045400 1.379900
H71 H 1.147800 -0.197400 1.419800
H72 H 0.807000 1.544500 -0.160300
H73 H 0.700400 1.409100 -0.307700
H74 H -0.147800 1.197400 -0.419800
H75 H -0.280900 1.045400 -0.379900
H76 H 0.299600 -0.409100 1.307700
H77 H 0.193000 -0.544500 1.160300
H78 H 0.143700 -0.405100 1.169700
H79 H -0.229300 1.011400 -0.498500
H80 H 0.854000 0.049000 0.894000
H81 H 0.695000 0.090000 0.872000
H82 H 0.192500 0.531200 -0.209300
H83 H 0.611000 -0.412000 0.921000
H84 H 0.607000 -0.301000 0.820000
H85 H 0.230700 0.595800 -0.335200
H86 H 0.025800 0.521900 -0.348000
H87 H 0.607000 0.699000 -0.180000
H88 H 0.611000 0.588000 -0.079000
H89 H 0.695000 1.090000 -0.128000
H90 H 0.025800 -0.478100 0.652000
H91 H 0.230700 -0.404200 0.664800
H92 H 0.192500 -0.468800 0.790700
H93 H 0.854000 1.049000 -0.106000
H94 H 0.143700 0.594900 0.169700
H95 H 0.193000 0.455500 0.160300
H96 H 0.299600 0.590900 0.307700
H97 H -0.229300 0.011400 0.501500
H98 H -0.280900 0.045400 0.620100
H99 H -0.147800 0.197400 0.580200
H100 H 1.147800 0.802600 0.419800
H101 H 1.280900 0.954600 0.379900
H102 H 1.229300 0.988600 0.498500
H103 H 0.807500 1.468800 0.209300
H104 H 0.700400 0.409100 0.692300
H105 H 0.807000 0.544500 0.839700
H106 H 0.856300 0.405100 0.830300
H107 H 0.382000 0.300000 0.406000
H108 H 0.146000 -0.049000 1.106000
H109 H 0.305000 -0.090000 1.128000
H110 H 0.974200 1.478100 0.348000
H111 H 0.389000 0.412000 1.079000
H112 H 0.393000 0.301000 1.180000
C113 C 0.781000 0.241100 1.213800
C114 C 1.182200 -0.086100 0.408400
C115 C 0.398100 -0.315100 0.167600
C116 C 0.781000 1.241100 0.213800
C117 C 0.838100 1.413400 0.282700
C118 C 0.244800 -0.428700 0.204600
C119 C 0.755200 1.428700 0.795400
C120 C 0.755200 0.428700 0.795400
C121 C 0.601900 1.315100 0.832400
C122 C -0.182200 1.086100 0.591600
C123 C 1.009400 0.907500 0.295400
C124 C 1.182200 0.913900 0.408400
C125 C 0.601900 0.315100 0.832400
C126 C -0.009400 1.092500 0.704600
C127 C 0.219000 -0.241100 -0.213800
C128 C 0.161900 -0.413400 -0.282700
C129 C 0.161900 0.586600 0.717300
C130 C 0.398100 0.684900 0.167600
C131 C 0.244800 0.571300 0.204600
C132 C -0.182200 0.086100 0.591600
C133 C -0.009400 0.092500 0.704600
C134 C 0.219000 0.758900 0.786200
C135 C -0.009400 0.092500 -0.295400
C136 C -0.182200 0.086100 -0.408400
C137 C 0.161900 -0.413400 0.717300
C138 C 0.601900 0.315100 -0.167600
C139 C 0.219000 -0.241100 0.786200
C140 C 0.755200 0.428700 -0.204600
C141 C 0.244800 0.571300 1.204600
C142 C 0.398100 0.684900 1.167600
C143 C 0.838100 0.413400 0.282700
C144 C 0.219000 0.758900 -0.213800
C145 C 0.161900 0.586600 -0.282700
C146 C 1.182200 0.913900 1.408400
C147 C 1.009400 0.907500 1.295400
C148 C 0.838100 1.413400 1.282700
C149 C 0.781000 1.241100 1.213800
C150 C 1.009400 -0.092500 0.295400
C151 C -0.009400 1.092500 -0.295400
C152 C -0.182200 1.086100 -0.408400
C153 C 0.781000 0.241100 0.213800
C154 C 0.244800 -0.428700 1.204600
C155 C 0.398100 -0.315100 1.167600
C156 C 0.838100 0.413400 1.282700
C157 C 1.009400 -0.092500 1.295400
C158 C 0.601900 1.315100 -0.167600
C159 C 0.755200 1.428700 -0.204600
C160 C 1.182200 -0.086100 1.408400
O161 O 0.447900 -0.377000 1.095900
O162 O 0.477400 -0.157200 1.208500
O163 O 0.222300 0.943500 0.067500
O164 O 0.522600 1.157200 -0.208500
O165 O 0.857700 -0.149700 1.306700
O166 O 0.358800 1.297900 0.081900
O167 O 1.011000 -0.039200 1.186600
O168 O 0.552100 1.377000 -0.095900
O169 O 0.777700 0.056500 0.932500
O170 O 0.142300 1.149700 -0.306700
O171 O 0.379200 0.852000 0.900300
O172 O -0.011000 1.039200 -0.186600
O173 O 0.641200 -0.297900 0.918100
O174 O 0.379200 -0.148000 0.900300
O175 O 0.525400 0.669700 0.628300
O176 O 0.888100 0.184100 1.267600
O177 O 1.011000 0.960800 1.186600
O178 O 0.857700 0.850300 1.306700
O179 O 0.379200 -0.148000 -0.099700
O180 O 0.111900 -0.184100 0.732400
O181 O 0.620800 1.148000 0.099700
O182 O 0.358800 0.297900 0.081900
O183 O 0.222300 -0.056500 0.067500
O184 O 0.447900 0.623000 1.095900
O185 O 0.477400 0.842800 1.208500
O186 O 0.111900 0.815900 -0.267600
O187 O 0.474600 0.330300 0.371700
O188 O 0.620800 0.148000 1.099700
O189 O 0.641200 0.702100 -0.081900
O190 O 0.522600 0.157200 -0.208500
O191 O 0.777700 1.056500 0.932500
O192 O 0.552100 0.377000 -0.095900
O193 O -0.011000 0.039200 0.813400
O194 O 0.641200 0.702100 0.918100
O195 O 0.777700 1.056500 -0.067500
O196 O 0.142300 0.149700 -0.306700
O197 O 1.011000 -0.039200 0.186600
O198 O 0.111900 0.815900 0.732400
O199 O 0.620800 1.148000 1.099700
O200 O 0.142300 0.149700 0.693300
O201 O 0.477400 0.842800 0.208500
O202 O -0.011000 0.039200 -0.186600
O203 O 0.447900 0.623000 0.095900
O204 O 0.552100 0.377000 0.904100
O205 O -0.011000 1.039200 0.813400
O206 O 0.142300 1.149700 0.693300
O207 O 0.522600 0.157200 0.791500
O208 O 0.857700 0.850300 0.306700
O209 O 0.620800 0.148000 0.099700
O210 O 0.111900 -0.184100 -0.267600
O211 O 0.754400 0.677100 0.496200
O212 O 0.552100 1.377000 0.904100
O213 O 0.522600 1.157200 0.791500
O214 O 1.011000 0.960800 0.186600
O215 O 0.222300 -0.056500 1.067500
O216 O 0.641200 -0.297900 -0.081900
O217 O 0.777700 0.056500 -0.067500
O218 O 0.358800 0.297900 1.081900
O219 O 0.222300 0.943500 1.067500
O220 O 0.379200 0.852000 -0.099700
O221 O 0.477400 -0.157200 0.208500
O222 O 0.358800 1.297900 1.081900
O223 O 0.447900 -0.377000 0.095900
O224 O 0.888100 1.184100 0.267600
O225 O 0.245600 0.322900 0.503800
O226 O 0.888100 1.184100 1.267600
O227 O 0.857700 -0.149700 0.306700
O228 O 0.888100 0.184100 0.267600
Gd229 Gd 0.679020 -0.096180 1.089818
Gd230 Gd 0.679020 0.903820 0.089818
Gd231 Gd 0.679020 0.903820 1.089818
Gd232 Gd 0.320980 0.096180 0.910182
Gd233 Gd 0.320980 1.096180 -0.089818
Gd234 Gd 0.320980 1.096180 0.910182
Gd235 Gd 0.320980 0.096180 -0.089818
Gd236 Gd 0.679020 -0.096180 0.089818

#END
