./ACAQGD02_from_POSCAR.cif_generated_by_CrystalShift
_symmetry_cell_setting triclinic
_symmetry_space_group_name_H-M 'P 1'
loop_
_symmetry_equiv_pos_site_id
_symmetry_equiv_pos_as_xyz
1 x,y,z
_cell_length_a 8.896000
_cell_length_b 9.258000
_cell_length_c 10.405000
_cell_angle_alpha 92.020000
_cell_angle_beta 113.620000
_cell_angle_gamma 118.480000
_cell_volume 662.329300
loop_
_atom_site_label
_atom_site_type_symbol
_atom_site_fract_x
_atom_site_fract_y
_atom_site_fract_z
H1 H 1.052000 0.944000 0.906000
H2 H 0.633000 0.799000 -0.067000
H3 H 0.715000 0.769000 0.069000
H4 H 0.367000 0.201000 1.067000
H5 H 0.285000 0.231000 0.931000
H6 H 1.650200 0.301500 0.916300
H7 H 1.730800 0.489100 1.005900
H8 H 1.788800 0.466600 0.882900
H9 H -0.116000 0.903000 0.584000
H10 H -0.102000 0.794000 0.678000
H11 H 0.633400 0.089800 0.665800
H12 H -0.199000 0.410000 0.622000
H13 H -0.362000 0.430000 0.600000
H14 H 0.794200 0.095700 0.813200
H15 H 0.689500 -0.050700 0.665800
H16 H -0.291100 0.028600 0.289500
H17 H -0.285000 0.085600 0.147400
H18 H -0.482400 0.003900 0.158000
H19 H 1.482400 0.996100 0.842000
H20 H 1.285000 0.914400 0.852600
H21 H 0.310500 1.050700 0.334200
H22 H 0.205800 0.904300 0.186800
H23 H 0.366600 0.910200 0.334200
H24 H 1.291100 0.971400 0.710500
H25 H 1.362000 0.570000 0.400000
H26 H -0.788800 0.533400 0.117100
H27 H -0.730800 0.510900 -0.005900
H28 H -0.650200 0.698500 0.083700
H29 H 0.861000 0.794000 0.870000
H30 H 1.199000 0.590000 0.378000
H31 H 1.102000 0.206000 0.322000
H32 H 1.116000 0.097000 0.416000
H33 H -0.052000 0.056000 0.094000
H34 H 0.349800 0.698500 0.083700
H35 H 0.269200 0.510900 -0.005900
H36 H 0.211200 0.533400 0.117100
H37 H 0.116000 0.097000 0.416000
H38 H 0.102000 0.206000 0.322000
H39 H 1.366600 0.910200 0.334200
H40 H 0.199000 0.590000 0.378000
H41 H 0.362000 0.570000 0.400000
H42 H 1.205800 0.904300 0.186800
H43 H 1.310500 1.050700 0.334200
H44 H 0.291100 0.971400 0.710500
H45 H 0.285000 0.914400 0.852600
H46 H 0.482400 0.996100 0.842000
H47 H 0.517600 0.003900 0.158000
H48 H 0.715000 0.085600 0.147400
H49 H -0.310500 -0.050700 0.665800
H50 H -0.205800 0.095700 0.813200
H51 H -0.366600 0.089800 0.665800
H52 H 0.708900 0.028600 0.289500
H53 H 0.638000 0.430000 0.600000
H54 H 0.788800 0.466600 0.882900
H55 H 0.730800 0.489100 1.005900
H56 H 0.650200 0.301500 0.916300
H57 H 0.801000 0.410000 0.622000
H58 H 0.898000 0.794000 0.678000
H59 H 0.884000 0.903000 0.584000
H60 H 0.139000 0.206000 0.130000
C61 C 1.685200 0.417900 0.910500
C62 C -0.282600 0.254200 0.283700
C63 C -0.340300 0.077500 0.213500
C64 C 0.739500 0.069500 0.706600
C65 C 0.896200 0.183400 0.668200
C66 C 0.103800 0.816600 0.331800
C67 C 0.260500 0.930500 0.293400
C68 C -0.509700 0.587600 0.202500
C69 C 0.685200 0.417900 0.910500
C70 C 0.717400 0.254200 0.283700
C71 C 0.659700 0.077500 0.213500
C72 C 0.509700 0.412400 0.797500
C73 C -0.260500 0.069500 0.706600
C74 C -0.103800 0.183400 0.668200
C75 C 1.103800 0.816600 0.331800
C76 C 1.260500 0.930500 0.293400
C77 C 0.340300 0.922500 0.786500
C78 C 0.282600 0.745800 0.716300
C79 C 1.340300 0.922500 0.786500
C80 C 0.490300 0.587600 0.202500
C81 C 0.314800 0.582100 0.089500
C82 C 1.282600 0.745800 0.716300
C83 C -0.685200 0.582100 0.089500
C84 C 1.509700 0.412400 0.797500
O85 O 0.515700 0.468000 0.687600
O86 O 1.121300 0.650300 0.600800
O87 O 1.391700 0.690900 0.771800
O88 O 0.947000 0.122200 0.595600
O89 O 0.977400 0.344900 0.711100
O90 O 1.515700 0.468000 0.687600
O91 O 1.357800 0.353200 0.809000
O92 O 1.142500 0.204300 0.415600
O93 O -0.053000 0.122200 0.595600
O94 O 0.391700 0.690900 0.771800
O95 O 1.282500 0.563100 0.434800
O96 O 0.121300 0.650300 0.600800
O97 O 0.357800 0.353200 0.809000
O98 O 0.142500 0.204300 0.415600
O99 O 0.282500 0.563100 0.434800
O100 O 0.976100 0.830100 0.873800
O101 O 0.717500 0.436900 0.565200
O102 O 0.878700 0.349700 0.399200
O103 O 0.608300 0.309100 0.228200
O104 O 0.857500 0.795700 0.584400
O105 O 0.642200 0.646800 0.191000
O106 O 0.484300 0.532000 0.312400
O107 O -0.282500 0.436900 0.565200
O108 O -0.022600 0.344900 0.711100
O109 O 1.053000 0.877800 0.404400
O110 O -0.142500 0.795700 0.584400
O111 O -0.357800 0.646800 0.191000
O112 O -0.515700 0.532000 0.312400
O113 O 0.252400 0.178500 0.995600
O114 O 0.022600 0.655100 0.288900
O115 O 0.053000 0.877800 0.404400
O116 O 0.747600 0.821500 0.004400
O117 O -0.391700 0.309100 0.228200
O118 O -0.121300 0.349700 0.399200
O119 O 0.023900 0.169900 0.126200
O120 O 1.022600 0.655100 0.288900
Gd121 Gd 0.820200 0.593840 0.409657
Gd122 Gd 0.179800 0.406160 0.590343
Gd123 Gd -0.179800 0.593840 0.409657
Gd124 Gd 1.179800 0.406160 0.590343

#END
