
#######################################################################
#
#                 Cambridge Crystallographic Data Centre
#                                CCDC 
#
#######################################################################
#
# If this CIF has been generated from an entry in the Cambridge 
# Structural Database, then it will include bibliographic, chemical, 
# crystal, experimental, refinement or atomic coordinate data resulting 
# from the CCDC's data processing and validation procedures.
#
#######################################################################

data_ACARBM01
_symmetry_cell_setting           orthorhombic
_symmetry_space_group_name_H-M   'P b c a'
_symmetry_Int_Tables_number      61
_space_group_name_Hall           '-P 2ac 2ab'
loop_
_symmetry_equiv_pos_site_id
_symmetry_equiv_pos_as_xyz
1 x,y,z
2 1/2-x,-y,1/2+z
3 -x,1/2+y,1/2-z
4 1/2+x,1/2-y,-z
5 -x,-y,-z
6 1/2+x,y,1/2-z
7 x,1/2-y,1/2+z
8 1/2-x,1/2+y,z
_cell_length_a                   6.5356(13)
_cell_length_b                   6.7544(14)
_cell_length_c                   17.120(3)
_cell_angle_alpha                90
_cell_angle_beta                 90
_cell_angle_gamma                90
_cell_volume                     755.746
loop_
_atom_site_label
_atom_site_type_symbol
_atom_site_fract_x
_atom_site_fract_y
_atom_site_fract_z
O1 O 1.0538(2) 0.51517(16) 0.39539(6)
C1 C 0.9240(3) 0.6549(2) 0.39343(8)
O2 O 0.8873(2) 0.75837(17) 0.33336(6)
N1 N 0.8168(3) 0.6928(3) 0.45843(9)
H1 H 0.845(3) 0.635(3) 0.5004(12)
H2 H 0.748(5) 0.793(4) 0.4585(14)
O1 O 0.4462(2) 0.48483(16) 0.89539(6)
C1 C 0.5760(3) 0.3451(2) 0.89343(8)
O2 O 0.6127(2) 0.24163(17) 0.83336(6)
N1 N 0.6832(3) 0.3072(3) 0.95843(9)
H1 H 0.655(3) 0.365(3) 1.0004(12)
H2 H 0.752(5) 0.207(4) 0.9585(14)
O1 O -0.0538(2) 0.01517(16) 0.10461(6)
C1 C 0.0760(3) 0.1549(2) 0.10657(8)
O2 O 0.1127(2) 0.25837(17) 0.16664(6)
N1 N 0.1832(3) 0.1928(3) 0.04157(9)
H1 H 0.155(3) 0.135(3) -0.0004(12)
H2 H 0.252(5) 0.293(4) 0.0415(14)
O1 O 0.5538(2) 0.98483(16) 0.60461(6)
C1 C 0.4240(3) 0.8451(2) 0.60657(8)
O2 O 0.3873(2) 0.74163(17) 0.66664(6)
N1 N 0.3168(3) 0.8072(3) 0.54157(9)
H1 H 0.345(3) 0.865(3) 0.4996(12)
H2 H 0.248(5) 0.707(4) 0.5415(14)
O1 O -0.0538(2) 0.48483(16) 0.60461(6)
C1 C 0.0760(3) 0.3451(2) 0.60657(8)
O2 O 0.1127(2) 0.24163(17) 0.66664(6)
N1 N 0.1832(3) 0.3072(3) 0.54157(9)
H1 H 0.155(3) 0.365(3) 0.4996(12)
H2 H 0.252(5) 0.207(4) 0.5415(14)
O1 O 0.5538(2) 0.51517(16) 0.10461(6)
C1 C 0.4240(3) 0.6549(2) 0.10657(8)
O2 O 0.3873(2) 0.75837(17) 0.16664(6)
N1 N 0.3168(3) 0.6928(3) 0.04157(9)
H1 H 0.345(3) 0.635(3) -0.0004(12)
H2 H 0.248(5) 0.793(4) 0.0415(14)
O1 O 1.0538(2) 0.98483(16) 0.89539(6)
C1 C 0.9240(3) 0.8451(2) 0.89343(8)
O2 O 0.8873(2) 0.74163(17) 0.83336(6)
N1 N 0.8168(3) 0.8072(3) 0.95843(9)
H1 H 0.845(3) 0.865(3) 1.0004(12)
H2 H 0.748(5) 0.707(4) 0.9585(14)
O1 O 0.4462(2) 0.01517(16) 0.39539(6)
C1 C 0.5760(3) 0.1549(2) 0.39343(8)
O2 O 0.6127(2) 0.25837(17) 0.33336(6)
N1 N 0.6832(3) 0.1928(3) 0.45843(9)
H1 H 0.655(3) 0.135(3) 0.5004(12)
H2 H 0.752(5) 0.293(4) 0.4585(14)
N2 N 0.0788(3) 0.1328(2) 0.31909(9)
H3 H 0.095(4) 0.163(3) 0.2659(13)
H4 H 0.208(4) 0.107(3) 0.3399(13)
H5 H 0.031(4) 0.244(3) 0.3455(12)
H6 H -0.005(4) 0.024(4) 0.3294(13)
N2 N 0.4212(3) 0.8672(2) 0.81909(9)
H3 H 0.405(4) 0.837(3) 0.7659(13)
H4 H 0.292(4) 0.893(3) 0.8399(13)
H5 H 0.469(4) 0.756(3) 0.8455(12)
H6 H 0.505(4) 0.976(4) 0.8294(13)
N2 N 0.9212(3) 0.6328(2) 0.18091(9)
H3 H 0.905(4) 0.663(3) 0.2341(13)
H4 H 0.792(4) 0.607(3) 0.1601(13)
H5 H 0.969(4) 0.744(3) 0.1545(12)
H6 H 1.005(4) 0.524(4) 0.1706(13)
N2 N 0.5788(3) 0.3672(2) 0.68091(9)
H3 H 0.595(4) 0.337(3) 0.7341(13)
H4 H 0.708(4) 0.393(3) 0.6601(13)
H5 H 0.531(4) 0.256(3) 0.6545(12)
H6 H 0.495(4) 0.476(4) 0.6706(13)
N2 N 0.9212(3) 0.8672(2) 0.68091(9)
H3 H 0.905(4) 0.837(3) 0.7341(13)
H4 H 0.792(4) 0.893(3) 0.6601(13)
H5 H 0.969(4) 0.756(3) 0.6545(12)
H6 H 1.005(4) 0.976(4) 0.6706(13)
N2 N 0.5788(3) 0.1328(2) 0.18091(9)
H3 H 0.595(4) 0.163(3) 0.2341(13)
H4 H 0.708(4) 0.107(3) 0.1601(13)
H5 H 0.531(4) 0.244(3) 0.1545(12)
H6 H 0.495(4) 0.024(4) 0.1706(13)
N2 N 0.0788(3) 0.3672(2) 0.81909(9)
H3 H 0.095(4) 0.337(3) 0.7659(13)
H4 H 0.208(4) 0.393(3) 0.8399(13)
H5 H 0.031(4) 0.256(3) 0.8455(12)
H6 H -0.005(4) 0.476(4) 0.8294(13)
N2 N 0.4212(3) 0.6328(2) 0.31909(9)
H3 H 0.405(4) 0.663(3) 0.2659(13)
H4 H 0.292(4) 0.607(3) 0.3399(13)
H5 H 0.469(4) 0.744(3) 0.3455(12)
H6 H 0.505(4) 0.524(4) 0.3294(13)

#END
