./ACARBM_from_POSCAR.cif_generated_by_CrystalShift
_symmetry_cell_setting triclinic
_symmetry_space_group_name_H-M 'P 1'
loop_
_symmetry_equiv_pos_site_id
_symmetry_equiv_pos_as_xyz
1 x,y,z
_cell_length_a 17.121000
_cell_length_b 6.531000
_cell_length_c 6.742000
_cell_angle_alpha 90.000000
_cell_angle_beta 90.000000
_cell_angle_gamma 90.000000
_cell_volume 753.871906
loop_
_atom_site_label
_atom_site_type_symbol
_atom_site_fract_x
_atom_site_fract_y
_atom_site_fract_z
H1 H 0.042640 0.218000 0.228580
H2 H -0.000530 0.140120 0.861500
H3 H 0.042640 0.282000 0.728580
H4 H 0.341110 0.042790 0.779020
H5 H 0.339350 0.202140 0.905980
H6 H 0.328070 -0.027260 0.936210
H7 H 0.171930 0.472740 0.936210
H8 H 0.500530 0.859880 0.361500
H9 H 0.457360 0.718000 0.228580
H10 H 0.264500 0.068760 0.817790
H11 H 0.158890 0.957210 0.279020
H12 H 0.160650 0.797860 0.405980
H13 H 0.235500 0.568760 0.817790
H14 H 0.499470 0.359880 0.138500
H15 H 0.542640 0.218000 0.271420
H16 H 0.171930 1.027260 0.436210
H17 H 0.235500 0.931240 0.317790
H18 H 0.841110 0.457210 0.220980
H19 H 0.158890 0.542790 0.779020
H20 H 1.000530 0.640120 0.638500
H21 H 0.957360 0.782000 0.771420
H22 H 0.839350 0.297860 0.094020
H23 H 0.828070 0.527260 0.063790
H24 H 0.764500 0.431240 0.182210
H25 H 0.341110 0.457210 0.279020
H26 H 1.000530 0.859880 0.138500
H27 H 0.957360 0.718000 0.271420
H28 H 0.658890 0.542790 0.720980
H29 H 0.660650 0.702140 0.594020
H30 H 0.671930 0.472740 0.563790
H31 H 0.339350 0.297860 0.405980
H32 H 0.499470 0.140120 0.638500
H33 H 0.542640 0.282000 0.771420
H34 H 0.735500 0.568760 0.682210
H35 H 0.658890 0.957210 0.220980
H36 H 0.660650 0.797860 0.094020
H37 H 0.328070 0.527260 0.436210
H38 H 0.500530 0.640120 0.861500
H39 H 0.457360 0.782000 0.728580
H40 H 0.671930 1.027260 0.063790
H41 H 0.735500 0.931240 0.182210
H42 H 0.841110 0.042790 0.720980
H43 H 0.264500 0.431240 0.317790
H44 H -0.000530 0.359880 0.361500
H45 H 0.764500 0.068760 0.682210
H46 H 0.839350 0.202140 0.594020
H47 H 0.828070 -0.027260 0.563790
H48 H 0.160650 0.702140 0.905980
C49 C 0.106330 0.423500 0.346310
C50 C 0.393670 0.576500 0.846310
C51 C 0.606330 0.076500 0.653690
C52 C 0.893670 0.923500 0.153690
C53 C 0.893670 0.576500 0.653690
C54 C 0.606330 0.423500 0.153690
C55 C 0.393670 0.923500 0.346310
C56 C 0.106330 0.076500 0.846310
N57 N 0.318950 0.420470 0.368360
N58 N 0.181050 0.579530 0.868360
N59 N 0.041150 0.185120 0.807490
N60 N 0.458850 0.814880 0.307490
N61 N 0.041150 0.314880 0.307490
N62 N 0.181050 0.920470 0.368360
N63 N 0.818950 0.079530 0.631640
N64 N 0.541150 0.314880 0.192510
N65 N 0.458850 0.685120 0.807490
N66 N 0.818950 0.420470 0.131640
N67 N 0.958850 0.685120 0.692510
N68 N 0.681050 0.920470 0.131640
N69 N 0.541150 0.185120 0.692510
N70 N 0.681050 0.579530 0.631640
N71 N 0.958850 0.814880 0.192510
N72 N 0.318950 0.079530 0.868360
O73 O 0.833120 0.886870 0.259010
O74 O 0.833120 0.613130 0.759010
O75 O 0.895410 0.445670 0.514470
O76 O 0.604590 -0.054330 0.514470
O77 O 0.666880 0.386870 0.259010
O78 O 0.666880 0.113130 0.759010
O79 O 0.604590 0.554330 0.014470
O80 O 0.395410 0.445670 0.985530
O81 O 0.333120 0.886870 0.240990
O82 O 0.395410 1.054330 0.485530
O83 O 0.333120 0.613130 0.740990
O84 O 0.104590 0.554330 0.485530
O85 O 0.166880 0.113130 0.740990
O86 O 0.104590 -0.054330 0.985530
O87 O 0.166880 0.386870 0.240990
O88 O 0.895410 1.054330 0.014470

#END
