./ACARBM02_from_POSCAR.cif_generated_by_CrystalShift
_symmetry_cell_setting triclinic
_symmetry_space_group_name_H-M 'P 1'
loop_
_symmetry_equiv_pos_site_id
_symmetry_equiv_pos_as_xyz
1 x,y,z
_cell_length_a 10.142800
_cell_length_b 9.157900
_cell_length_c 7.448500
_cell_angle_alpha 90.000000
_cell_angle_beta 90.000000
_cell_angle_gamma 90.000000
_cell_volume 691.866943
loop_
_atom_site_label
_atom_site_type_symbol
_atom_site_fract_x
_atom_site_fract_y
_atom_site_fract_z
H1 H 0.173000 0.669000 1.000000
H2 H 0.054000 0.126000 0.318000
H3 H 0.056000 0.275000 0.162000
H4 H -0.054000 0.126000 0.182000
H5 H -0.056000 0.275000 0.338000
H6 H 0.409000 0.020000 1.000000
H7 H 1.054000 0.126000 0.318000
H8 H 1.056000 0.275000 0.162000
H9 H 0.946000 0.126000 0.182000
H10 H 0.944000 0.275000 0.338000
H11 H 0.327000 0.169000 0.000000
H12 H 0.554000 0.626000 0.818000
H13 H 0.556000 0.775000 0.662000
H14 H 0.446000 0.626000 0.682000
H15 H 0.444000 0.775000 0.838000
H16 H 0.409000 0.020000 0.000000
H17 H 0.554000 0.374000 0.682000
H18 H 0.556000 0.225000 0.838000
H19 H 0.446000 0.374000 0.818000
H20 H 0.444000 0.225000 0.662000
H21 H 0.591000 0.980000 0.000000
H22 H -0.054000 0.874000 0.318000
H23 H -0.056000 0.725000 0.162000
H24 H 0.054000 0.874000 0.182000
H25 H 0.056000 0.725000 0.338000
H26 H 0.673000 0.831000 0.000000
H27 H 0.946000 0.874000 0.318000
H28 H 0.944000 0.725000 0.162000
H29 H 1.054000 0.874000 0.182000
H30 H 1.056000 0.725000 0.338000
H31 H 0.673000 0.169000 0.500000
H32 H -0.054000 0.874000 0.682000
H33 H -0.056000 0.725000 0.838000
H34 H 0.054000 0.874000 0.818000
H35 H 0.056000 0.725000 0.662000
H36 H 0.591000 0.020000 0.500000
H37 H 0.946000 0.874000 0.682000
H38 H 0.944000 0.725000 0.838000
H39 H 1.054000 0.874000 0.818000
H40 H 1.056000 0.725000 0.662000
H41 H 0.173000 0.331000 0.500000
H42 H 0.446000 0.374000 0.182000
H43 H 0.444000 0.225000 0.338000
H44 H 0.554000 0.374000 0.318000
H45 H 0.556000 0.225000 0.162000
H46 H 0.091000 0.480000 0.500000
H47 H 0.446000 0.626000 0.318000
H48 H 0.444000 0.775000 0.162000
H49 H 0.554000 0.626000 0.182000
H50 H 0.556000 0.775000 0.338000
H51 H 0.591000 0.980000 1.000000
H52 H 0.054000 0.126000 0.682000
H53 H 0.056000 0.275000 0.838000
H54 H -0.054000 0.126000 0.818000
H55 H -0.056000 0.275000 0.662000
H56 H 0.673000 0.831000 1.000000
H57 H 1.054000 0.126000 0.682000
H58 H 1.056000 0.275000 0.838000
H59 H 0.946000 0.126000 0.818000
H60 H 0.944000 0.275000 0.662000
H61 H 0.091000 0.520000 1.000000
H62 H 0.827000 0.669000 0.500000
H63 H 0.909000 0.520000 0.500000
H64 H 0.827000 0.331000 1.000000
H65 H 0.409000 0.980000 0.500000
H66 H 0.327000 0.831000 0.500000
H67 H 0.909000 0.480000 1.000000
H68 H 0.091000 0.520000 0.000000
H69 H 0.173000 0.669000 0.000000
H70 H 0.827000 0.331000 0.000000
H71 H 0.909000 0.480000 0.000000
H72 H 0.327000 0.169000 1.000000
C73 C 0.270700 -0.038800 1.000000
C74 C 0.729300 1.038800 0.000000
C75 C 0.270700 -0.038800 0.000000
C76 C 0.770700 0.538800 1.000000
C77 C 0.729300 -0.038800 0.500000
C78 C 0.270700 1.038800 0.500000
C79 C 0.229300 0.461200 0.000000
C80 C 0.729300 1.038800 1.000000
C81 C 0.770700 0.538800 0.000000
C82 C 0.770700 0.461200 0.500000
C83 C 0.229300 0.538800 0.500000
C84 C 0.229300 0.461200 1.000000
N85 N 1.000000 0.197600 0.750000
N86 N 0.000000 0.197600 0.750000
N87 N 0.159700 0.420400 0.500000
N88 N 0.340300 0.920400 0.500000
N89 N 0.500000 0.697600 0.250000
N90 N 0.840300 0.579600 0.500000
N91 N 0.159700 0.579600 0.000000
N92 N 0.659700 0.920400 1.000000
N93 N 0.659700 0.079600 0.500000
N94 N 0.000000 0.197600 0.250000
N95 N 1.000000 0.802400 0.750000
N96 N 0.000000 0.802400 0.750000
N97 N 1.000000 0.802400 0.250000
N98 N 0.000000 0.802400 0.250000
N99 N 0.340300 0.079600 0.000000
N100 N 0.840300 0.420400 1.000000
N101 N 0.500000 0.302400 0.750000
N102 N 0.500000 0.697600 0.750000
N103 N 0.159700 0.579600 1.000000
N104 N 0.659700 0.920400 0.000000
N105 N 0.340300 0.079600 1.000000
N106 N 0.840300 0.420400 0.000000
N107 N 1.000000 0.197600 0.250000
N108 N 0.500000 0.302400 0.250000
O109 O 0.855800 1.027500 0.000000
O110 O 0.673800 1.169200 0.000000
O111 O 0.326200 -0.169200 1.000000
O112 O 0.144200 -0.027500 1.000000
O113 O 0.326200 -0.169200 0.000000
O114 O 0.144200 -0.027500 0.000000
O115 O 0.855800 1.027500 1.000000
O116 O 0.673800 1.169200 1.000000
O117 O 0.673800 -0.169200 0.500000
O118 O 0.855800 -0.027500 0.500000
O119 O 0.173800 0.669200 0.500000
O120 O 0.355800 0.527500 0.500000
O121 O 0.355800 0.472500 0.000000
O122 O 0.173800 0.330800 0.000000
O123 O 0.826200 0.330800 0.500000
O124 O 0.644200 0.472500 0.500000
O125 O 0.826200 0.669200 1.000000
O126 O 0.644200 0.527500 1.000000
O127 O 0.355800 0.472500 1.000000
O128 O 0.173800 0.330800 1.000000
O129 O 0.826200 0.669200 0.000000
O130 O 0.326200 1.169200 0.500000
O131 O 0.144200 1.027500 0.500000
O132 O 0.644200 0.527500 0.000000

#END
