./ACATED_from_POSCAR.cif_generated_by_CrystalShift
_symmetry_cell_setting triclinic
_symmetry_space_group_name_H-M 'P 1'
loop_
_symmetry_equiv_pos_site_id
_symmetry_equiv_pos_as_xyz
1 x,y,z
_cell_length_a 18.596000
_cell_length_b 9.074000
_cell_length_c 20.027000
_cell_angle_alpha 90.000000
_cell_angle_beta 105.710000
_cell_angle_gamma 90.000000
_cell_volume 3253.120463
loop_
_atom_site_label
_atom_site_type_symbol
_atom_site_fract_x
_atom_site_fract_y
_atom_site_fract_z
H1 H 1.041300 0.578500 0.078900
H2 H 0.711600 0.275400 0.786600
H3 H 0.699800 0.159600 0.682700
H4 H 0.615400 0.132700 0.674300
H5 H 0.532900 0.329300 0.649700
H6 H 0.563400 0.487100 0.645900
H7 H 0.613700 0.493300 0.759800
H8 H 0.530800 0.445800 0.746300
H9 H 0.714300 0.190800 1.064200
H10 H 0.746000 0.128800 1.004800
H11 H 0.733700 0.298800 1.010500
H12 H 0.634000 -0.039100 0.966200
H13 H 0.602200 0.023000 1.025600
H14 H 0.553400 0.028400 0.948400
H15 H 0.575800 0.299400 1.025600
H16 H 0.612500 0.404100 0.982900
H17 H 0.443000 0.347400 0.985100
H18 H 0.332400 0.342200 0.893000
H19 H 0.339500 0.304600 0.780000
H20 H 0.454600 0.275700 0.756500
H21 H 0.674000 0.175900 0.892200
H22 H 0.321900 0.619100 0.710900
H23 H 0.865300 0.696100 0.586100
H24 H 0.288400 0.775400 0.713400
H25 H 0.300200 0.659600 0.817300
H26 H 0.384600 0.632700 0.825700
H27 H 0.467100 0.829300 0.850300
H28 H 1.113100 0.572700 0.641300
H29 H 0.436600 0.987100 0.854100
H30 H 1.199600 0.488200 0.741800
H31 H 0.386300 0.993300 0.740200
H32 H 1.167900 0.487200 0.846300
H33 H 0.469200 0.945800 0.753700
H34 H 1.045900 0.540300 0.850500
H35 H 0.285700 0.690800 0.435800
H36 H 0.254000 0.628800 0.495200
H37 H 0.919200 0.725700 0.750300
H38 H 0.915200 0.571400 0.782900
H39 H 0.266300 0.798800 0.489500
H40 H 0.366000 0.460900 0.533800
H41 H 0.763900 0.577900 0.625400
H42 H 0.778000 0.571700 0.706200
H43 H 0.791400 0.718800 0.670300
H44 H 0.397800 0.523000 0.474400
H45 H 0.847200 0.373100 0.624600
H46 H 0.930700 0.376300 0.669200
H47 H 0.866500 0.353600 0.705300
H48 H 0.446600 0.528400 0.551600
H49 H 1.092700 0.800100 0.621900
H50 H 1.041300 0.921500 0.578900
H51 H 0.424200 0.799400 0.474400
H52 H 1.132900 0.862000 0.524300
H53 H 1.110100 0.696900 0.521500
H54 H 0.387500 0.904100 0.517100
H55 H 0.996400 0.622900 0.448600
H56 H 0.943900 0.737500 0.402200
H57 H 0.557000 0.847400 0.514900
H58 H 0.917400 0.840000 0.498400
H59 H 0.898700 0.672500 0.495300
H60 H 0.667600 0.842200 0.607000
H61 H 0.660500 0.804600 0.720000
H62 H 0.134700 0.196100 0.913900
H63 H 0.545400 0.775700 0.743500
H64 H 0.326000 0.675900 0.607800
H65 H 0.321900 0.880900 0.210900
H66 H 0.288400 0.724600 0.213400
H67 H -0.113100 0.072700 0.858700
H68 H 0.300200 0.840400 0.317300
H69 H -0.199600 -0.011800 0.758200
H70 H 0.384600 0.867300 0.325700
H71 H -0.167900 -0.012800 0.653700
H72 H 0.467100 0.670700 0.350300
H73 H -0.045900 0.040300 0.649500
H74 H 0.436600 0.512900 0.354100
H75 H 0.386300 0.506700 0.240200
H76 H 0.080800 0.225700 0.749700
H77 H 0.084800 0.071400 0.717100
H78 H 0.469200 0.554200 0.253700
H79 H 0.285700 0.809200 -0.064200
H80 H 0.236100 0.077900 0.874600
H81 H 0.222000 0.071700 0.793800
H82 H 0.208600 0.218800 0.829700
H83 H 0.254000 0.871200 -0.004800
H84 H 0.152800 -0.126900 0.875400
H85 H 0.069300 -0.123700 0.830800
H86 H 0.133500 -0.146400 0.794700
H87 H 0.266300 0.701200 -0.010500
H88 H -0.092700 0.300100 0.878100
H89 H -0.041300 0.421500 0.921100
H90 H 0.366000 1.039100 0.033800
H91 H -0.132900 0.362000 0.975700
H92 H -0.110100 0.196900 0.978500
H93 H 0.397800 0.977000 -0.025600
H94 H 0.003600 0.122900 1.051400
H95 H 0.056100 0.237500 1.097800
H96 H 0.446600 0.971600 0.051600
H97 H 0.082600 0.340000 1.001600
H98 H 0.101300 0.172500 1.004700
H99 H 0.424200 0.700600 -0.025600
H100 H 0.387500 0.595900 0.017100
H101 H 0.134700 0.303900 0.413900
H102 H 0.557000 0.652600 0.014900
H103 H 0.667600 0.657800 0.107000
H104 H 0.660500 0.695400 0.220000
H105 H 0.545400 0.724300 0.243500
H106 H -0.113100 0.427300 0.358700
H107 H 0.326000 0.824100 0.107800
H108 H -0.199600 0.511800 0.258200
H109 H 0.678100 0.380900 0.289100
H110 H -0.167900 0.512800 0.153700
H111 H 0.711600 0.224600 0.286600
H112 H -0.045900 0.459700 0.149500
H113 H 0.699800 0.340400 0.182700
H114 H 0.615400 0.367300 0.174300
H115 H 0.080800 0.274300 0.249700
H116 H 0.084800 0.428600 0.217100
H117 H 0.532900 0.170700 0.149700
H118 H 0.563400 0.012900 0.145900
H119 H 0.236100 0.422100 0.374600
H120 H 0.222000 0.428300 0.293800
H121 H 0.208600 0.281200 0.329700
H122 H 0.613700 0.006700 0.259800
H123 H 0.152800 0.626900 0.375400
H124 H 0.069300 0.623700 0.330800
H125 H 0.133500 0.646400 0.294700
H126 H 0.530800 0.054200 0.246300
H127 H -0.092700 0.199900 0.378100
H128 H -0.041300 0.078500 0.421100
H129 H 0.714300 0.309200 0.564200
H130 H -0.132900 0.138000 0.475700
H131 H -0.110100 0.303100 0.478500
H132 H 0.746000 0.371200 0.504800
H133 H 0.003600 0.377100 0.551400
H134 H 0.056100 0.262500 0.597800
H135 H 0.733700 0.201200 0.510500
H136 H 0.082600 0.160000 0.501600
H137 H 0.101300 0.327500 0.504700
H138 H 0.634000 0.539100 0.466200
H139 H 0.602200 0.477000 0.525600
H140 H 0.865300 0.803900 0.086100
H141 H 0.553400 0.471600 0.448400
H142 H 0.575800 0.200600 0.525600
H143 H 0.612500 0.095900 0.482900
H144 H 0.443000 0.152600 0.485100
H145 H 1.113100 0.927300 0.141300
H146 H 0.332400 0.157800 0.393000
H147 H 1.199600 1.011800 0.241800
H148 H 0.339500 0.195400 0.280000
H149 H 1.167900 1.012800 0.346300
H150 H 0.454600 0.224300 0.256500
H151 H 1.045900 0.959700 0.350500
H152 H 0.674000 0.324100 0.392200
H153 H 0.898700 0.827500 -0.004700
H154 H 0.919200 0.774300 0.250300
H155 H 0.915200 0.928600 0.282900
H156 H 0.917400 0.660000 -0.001600
H157 H 0.943900 0.762500 -0.097800
H158 H 0.763900 0.922100 0.125400
H159 H 0.778000 0.928300 0.206200
H160 H 0.791400 0.781200 0.170300
H161 H 0.996400 0.877100 -0.051400
H162 H 0.847200 1.126900 0.124600
H163 H 0.930700 1.123700 0.169200
H164 H 0.866500 1.146400 0.205300
H165 H 1.110100 0.803100 0.021500
H166 H 1.092700 0.699900 0.121900
H167 H 0.678100 0.119100 0.789100
H168 H 1.132900 0.638000 0.024300
C169 C 1.091500 0.704100 0.019500
C170 C 1.056800 0.679300 0.078500
C171 C 0.978500 0.777500 -0.053100
C172 C 0.880400 1.097400 0.168100
C173 C 0.794700 0.886700 0.168900
C174 C 0.938500 0.757100 0.001600
C175 C 0.875300 0.931600 0.176700
C176 C 0.926900 0.877800 0.245100
C177 C 0.668700 0.214500 0.767800
C178 C 0.655800 0.200300 0.692000
C179 C 1.006800 0.904700 0.247300
C180 C 0.574000 0.394100 0.669400
C181 C 0.589800 0.234400 0.344700
C182 C 0.517700 0.202100 0.357400
C183 C 0.452300 0.208500 0.303300
C184 C 1.059200 0.951400 0.307500
C185 C 0.384500 0.191800 0.317300
C186 C 1.131000 0.985400 0.304500
C187 C 0.380200 0.170200 0.383900
C188 C 1.150600 0.981100 0.243400
C189 C 0.445700 0.166400 0.438400
C190 C 1.099400 0.932300 0.184200
C191 C 0.514200 0.182300 0.424900
C192 C 0.586400 0.187600 0.481700
C193 C 1.028100 0.890200 0.185900
C194 C 0.971300 0.837600 0.123900
C195 C 0.635200 0.312400 0.469700
C196 C 0.603300 0.464100 0.478300
C197 C 0.578700 0.415700 0.741700
C198 C 0.714700 0.202900 1.016600
C199 C 0.603300 0.035900 0.978300
C200 C 0.714700 0.297100 0.516600
C201 C 0.061500 0.257100 0.498400
C202 C 0.021500 0.277500 0.553100
C203 C -0.091500 0.204100 0.480500
C204 C 0.578700 0.084300 0.241700
C205 C -0.056800 0.179300 0.421500
C206 C 0.119600 0.597400 0.331900
C207 C 0.574000 0.105900 0.169400
C208 C 0.205300 0.386700 0.331100
C209 C 0.124700 0.431600 0.323300
C210 C 0.655800 0.299700 0.192000
C211 C 0.073100 0.377800 0.254900
C212 C -0.006800 0.404700 0.252700
C213 C 0.668700 0.285500 0.267800
C214 C -0.059200 0.451400 0.192500
C215 C -0.131000 0.485400 0.195500
C216 C 0.635200 0.187600 0.969700
C217 C 0.586400 0.312400 0.981700
C218 C -0.150600 0.481100 0.256600
C219 C 0.514200 0.317700 0.924900
C220 C 0.410200 0.734400 0.155300
C221 C 0.482300 0.702100 0.142600
C222 C 0.547700 0.708500 0.196700
C223 C -0.099400 0.432300 0.315800
C224 C 0.615500 0.691800 0.182700
C225 C -0.028100 0.390200 0.314100
C226 C 0.619800 0.670200 0.116100
C227 C 0.028700 0.337600 0.376100
C228 C 0.554300 0.666400 0.061600
C229 C 0.445700 0.333600 0.938400
C230 C 0.485800 0.682300 0.075100
C231 C 0.413600 0.687600 0.018300
C232 C 0.380200 0.329800 0.883900
C233 C 0.384500 0.308200 0.817300
C234 C 0.364800 0.812400 0.030300
C235 C 0.396700 0.964100 0.021700
C236 C 0.061500 0.242900 0.998400
C237 C 0.021500 0.222500 1.053100
C238 C -0.091500 0.295900 0.980500
C239 C 0.285300 0.797100 -0.016600
C240 C -0.056800 0.320700 0.921500
C241 C 0.119600 -0.097400 0.831900
C242 C 0.205300 0.113300 0.831100
C243 C 0.421300 0.584300 0.258300
C244 C 0.124700 0.068400 0.823300
C245 C 0.073100 0.122200 0.754900
C246 C 0.426000 0.605900 0.330600
C247 C -0.006800 0.095300 0.752700
C248 C -0.059200 0.048600 0.692500
C249 C 0.344200 0.799700 0.308000
C250 C -0.131000 0.014600 0.695500
C251 C -0.150600 0.018900 0.756600
C252 C 0.331300 0.785500 0.232200
C253 C -0.099400 0.067700 0.815800
C254 C -0.028100 0.109800 0.814100
C255 C 0.452300 0.291500 0.803300
C256 C 0.517700 0.297900 0.857400
C257 C 0.028700 0.162400 0.876100
C258 C 0.589800 0.265600 0.844700
C259 C 0.410200 0.765600 0.655300
C260 C 0.482300 0.797900 0.642600
C261 C 0.547700 0.791500 0.696700
C262 C 0.331300 0.714500 0.732200
C263 C 0.615500 0.808200 0.682700
C264 C 0.971300 0.662400 0.623900
C265 C 0.619800 0.829800 0.616100
C266 C 1.028100 0.609800 0.685900
C267 C 0.554300 0.833600 0.561600
C268 C 0.938500 0.742900 0.501600
C269 C 0.485800 0.817700 0.575100
C270 C 0.413600 0.812400 0.518300
C271 C 0.978500 0.722500 0.446900
C272 C 1.091500 0.795900 0.519500
C273 C 0.364800 0.687600 0.530300
C274 C 0.396700 0.535900 0.521700
C275 C 1.056800 0.820700 0.578500
C276 C 0.880400 0.402600 0.668100
C277 C 0.794700 0.613300 0.668900
C278 C 0.285300 0.702900 0.483400
C279 C 0.875300 0.568400 0.676700
C280 C 0.926900 0.622200 0.745100
C281 C 1.006800 0.595300 0.747300
C282 C 0.421300 0.915700 0.758300
C283 C 1.059200 0.548600 0.807500
C284 C 1.131000 0.514600 0.804500
C285 C 0.426000 0.894100 0.830600
C286 C 1.150600 0.518900 0.743400
C287 C 1.099400 0.567700 0.684200
C288 C 0.344200 0.700300 0.808000
N289 N 0.397600 0.719800 0.217100
N290 N 0.100000 0.143200 0.879200
N291 N 0.008300 0.222100 0.930500
N292 N 0.991700 0.722100 0.569500
N293 N 0.900000 0.643200 0.620800
N294 N 0.602400 0.219800 0.282900
N295 N 0.640400 0.206000 0.897000
N296 N 0.991700 0.777900 0.069500
N297 N 0.602400 0.280200 0.782900
N298 N 0.397600 0.780200 0.717100
N299 N 0.359600 0.706000 0.603000
N300 N 0.900000 0.856800 0.120800
N301 N 0.359600 0.794000 0.103000
N302 N 0.640400 0.294000 0.397000
N303 N 0.008300 0.277900 0.430500
N304 N 0.100000 0.356800 0.379200
O305 O -0.039100 0.319700 1.045600
O306 O 1.039100 0.819700 0.454400
O307 O 0.639000 0.165200 0.156800
O308 O -0.039100 0.180300 0.545600
O309 O 0.361000 0.834800 0.843200
O310 O 0.639000 0.334800 0.656800
O311 O 1.039100 0.680300 -0.045600
O312 O 0.361000 0.665200 0.343200
Cl313 Cl 0.211060 0.041400 0.646940
Cl314 Cl 0.233990 0.429100 0.603490
Cl315 Cl 0.605550 0.837300 0.380150
Cl316 Cl 0.394450 0.162700 0.619850
Cl317 Cl 0.788940 0.541400 0.853060
Cl318 Cl 0.605550 0.662700 0.880150
Cl319 Cl 0.211060 0.458600 0.146940
Cl320 Cl 0.233990 0.070900 0.103490
Cl321 Cl 0.766010 0.929100 0.896510
Cl322 Cl 0.227850 0.365000 -0.026420
Cl323 Cl 0.394450 0.337300 0.119850
Cl324 Cl 0.227850 0.135000 0.473580
Cl325 Cl 0.772150 0.865000 0.526420
Cl326 Cl 0.788940 0.958600 0.353060
Cl327 Cl 0.772150 0.635000 1.026420
Cl328 Cl 0.766010 0.570900 0.396510
Co329 Co 0.269450 0.192600 0.588410
Co330 Co 0.730550 0.692600 0.911590
Co331 Co 0.730550 0.807400 0.411590
Co332 Co 0.269450 0.307400 0.088410

#END
