
#######################################################################
#
#                 Cambridge Crystallographic Data Centre
#                                CCDC 
#
#######################################################################
#
# If this CIF has been generated from an entry in the Cambridge 
# Structural Database, then it will include bibliographic, chemical, 
# crystal, experimental, refinement or atomic coordinate data resulting 
# from the CCDC's data processing and validation procedures.
#
#######################################################################

data_ACBNZA01
_symmetry_cell_setting           monoclinic
_symmetry_space_group_name_H-M   'P 21/c'
_symmetry_Int_Tables_number      14
_space_group_name_Hall           '-P 2ybc'
loop_
_symmetry_equiv_pos_site_id
_symmetry_equiv_pos_as_xyz
1 x,y,z
2 -x,1/2+y,1/2-z
3 -x,-y,-z
4 x,1/2-y,1/2+z
_cell_length_a                   7.807(2)
_cell_length_b                   9.039(3)
_cell_length_c                   12.706(3)
_cell_angle_alpha                90
_cell_angle_beta                 101.12(2)
_cell_angle_gamma                90
_cell_volume                     879.796
loop_
_atom_site_label
_atom_site_type_symbol
_atom_site_fract_x
_atom_site_fract_y
_atom_site_fract_z
O1 O 0.30640 0.45440 0.06550
O2 O 0.45420 0.44520 0.32870
N1 N 0.49220 0.64630 0.09710
N2 N 0.46900 0.69330 0.32790
C1 C 0.29190 0.71430 0.27310
C2 C 0.23330 0.65510 0.17210
C3 C 0.06020 0.67370 0.12480
C4 C -0.05150 0.75310 0.17440
C5 C 0.00970 0.81400 0.27300
C6 C 0.18060 0.79450 0.32350
C7 C 0.34790 0.57580 0.10840
C8 C 0.53900 0.55890 0.35360
C9 C 0.72320 0.55700 0.41330
H1 H 0.57200 0.60500 0.05200
H2 H 0.51800 0.73400 0.12000
H3 H 0.02400 0.63900 0.05800
H4 H -0.17200 0.76600 0.14200
H5 H -0.05800 0.85900 0.30500
H6 H 0.22600 0.83400 0.39200
H7 H 0.52200 0.77100 0.35000
H8 H 0.77600 0.64700 0.42600
H9 H 0.79000 0.50900 0.36500
H10 H 0.74100 0.48200 0.46500
O1 O 0.69360 -0.04560 0.43450
O2 O 0.54580 -0.05480 0.17130
N1 N 0.50780 0.14630 0.40290
N2 N 0.53100 0.19330 0.17210
C1 C 0.70810 0.21430 0.22690
C2 C 0.76670 0.15510 0.32790
C3 C 0.93980 0.17370 0.37520
C4 C 1.05150 0.25310 0.32560
C5 C 0.99030 0.31400 0.22700
C6 C 0.81940 0.29450 0.17650
C7 C 0.65210 0.07580 0.39160
C8 C 0.46100 0.05890 0.14640
C9 C 0.27680 0.05700 0.08670
H1 H 0.42800 0.10500 0.44800
H2 H 0.48200 0.23400 0.38000
H3 H 0.97600 0.13900 0.44200
H4 H 1.17200 0.26600 0.35800
H5 H 1.05800 0.35900 0.19500
H6 H 0.77400 0.33400 0.10800
H7 H 0.47800 0.27100 0.15000
H8 H 0.22400 0.14700 0.07400
H9 H 0.21000 0.00900 0.13500
H10 H 0.25900 -0.01800 0.03500
O1 O 0.69360 0.54560 0.93450
O2 O 0.54580 0.55480 0.67130
N1 N 0.50780 0.35370 0.90290
N2 N 0.53100 0.30670 0.67210
C1 C 0.70810 0.28570 0.72690
C2 C 0.76670 0.34490 0.82790
C3 C 0.93980 0.32630 0.87520
C4 C 1.05150 0.24690 0.82560
C5 C 0.99030 0.18600 0.72700
C6 C 0.81940 0.20550 0.67650
C7 C 0.65210 0.42420 0.89160
C8 C 0.46100 0.44110 0.64640
C9 C 0.27680 0.44300 0.58670
H1 H 0.42800 0.39500 0.94800
H2 H 0.48200 0.26600 0.88000
H3 H 0.97600 0.36100 0.94200
H4 H 1.17200 0.23400 0.85800
H5 H 1.05800 0.14100 0.69500
H6 H 0.77400 0.16600 0.60800
H7 H 0.47800 0.22900 0.65000
H8 H 0.22400 0.35300 0.57400
H9 H 0.21000 0.49100 0.63500
H10 H 0.25900 0.51800 0.53500
O1 O 0.30640 1.04560 0.56550
O2 O 0.45420 1.05480 0.82870
N1 N 0.49220 0.85370 0.59710
N2 N 0.46900 0.80670 0.82790
C1 C 0.29190 0.78570 0.77310
C2 C 0.23330 0.84490 0.67210
C3 C 0.06020 0.82630 0.62480
C4 C -0.05150 0.74690 0.67440
C5 C 0.00970 0.68600 0.77300
C6 C 0.18060 0.70550 0.82350
C7 C 0.34790 0.92420 0.60840
C8 C 0.53900 0.94110 0.85360
C9 C 0.72320 0.94300 0.91330
H1 H 0.57200 0.89500 0.55200
H2 H 0.51800 0.76600 0.62000
H3 H 0.02400 0.86100 0.55800
H4 H -0.17200 0.73400 0.64200
H5 H -0.05800 0.64100 0.80500
H6 H 0.22600 0.66600 0.89200
H7 H 0.52200 0.72900 0.85000
H8 H 0.77600 0.85300 0.92600
H9 H 0.79000 0.99100 0.86500
H10 H 0.74100 1.01800 0.96500

#END
