
#######################################################################
#
#                 Cambridge Crystallographic Data Centre
#                                CCDC 
#
#######################################################################
#
# If this CIF has been generated from an entry in the Cambridge 
# Structural Database, then it will include bibliographic, chemical, 
# crystal, experimental, refinement or atomic coordinate data resulting 
# from the CCDC's data processing and validation procedures.
#
#######################################################################

data_ACEMAW
_symmetry_cell_setting           monoclinic
_symmetry_space_group_name_H-M   'P 21/n'
_symmetry_Int_Tables_number      14
_space_group_name_Hall           '-P 2yn'
loop_
_symmetry_equiv_pos_site_id
_symmetry_equiv_pos_as_xyz
1 x,y,z
2 1/2-x,1/2+y,1/2-z
3 -x,-y,-z
4 1/2+x,1/2-y,1/2+z
_cell_length_a                   10.7689(5)
_cell_length_b                   9.8235(4)
_cell_length_c                   18.4390(7)
_cell_angle_alpha                90
_cell_angle_beta                 100.456(4)
_cell_angle_gamma                90
_cell_volume                     1918.24
loop_
_atom_site_label
_atom_site_type_symbol
_atom_site_fract_x
_atom_site_fract_y
_atom_site_fract_z
C1 C 0.0095(1) 0.4522(1) 0.55660(6)
C2 C -0.0036(1) 0.3970(1) 0.47297(6)
C3 C 0.1442(1) 0.3946(1) 0.56766(7)
C4 C 0.1325(1) 0.3488(1) 0.49591(7)
C5 C 0.2309(1) 0.2877(1) 0.46852(7)
C6 C 0.3444(1) 0.2718(1) 0.52004(9)
C7 C 0.3552(1) 0.3153(2) 0.59386(8)
C8 C 0.2545(1) 0.3809(1) 0.61958(7)
C9 C -0.0758(1) 0.4206(1) 0.61201(7)
C10 C -0.0581(2) 0.2858(2) 0.6528(1)
C11 C -0.1380(3) 0.2719(3) 0.7105(1)
C12 C -0.1025(1) 0.2996(1) 0.43345(8)
C13 C -0.1036(2) 0.1572(2) 0.4646(1)
C14 C -0.1886(3) 0.0595(2) 0.4169(1)
C15 C 0.2144(2) 0.2411(2) 0.38900(9)
C16 C 0.1906(3) 0.0889(2) 0.3770(2)
C17 C 0.4580(2) 0.2115(2) 0.4930(1)
C18 C 0.5389(3) 0.3219(4) 0.4660(3)
C19 C 0.4766(2) 0.2863(2) 0.6486(1)
C20 C 0.4787(2) 0.1451(3) 0.6826(2)
C21 C 0.2638(2) 0.4316(2) 0.69809(8)
C22 C 0.3406(2) 0.5618(2) 0.7166(1)
H1 H -0.169(2) 0.437(2) 0.585(1)
H2 H -0.057(2) 0.494(2) 0.655(1)
H3 H -0.067(3) 0.209(3) 0.623(2)
H4 H 0.040(3) 0.274(3) 0.677(1)
H5 H -0.131(3) 0.185(3) 0.736(2)
H6 H -0.208(3) 0.320(3) 0.706(2)
H7 H -0.100(4) 0.362(5) 0.750(2)
H8 H -0.091(2) 0.293(2) 0.382(1)
H9 H -0.187(2) 0.340(2) 0.430(1)
H10 H -0.140(3) 0.168(3) 0.510(2)
H11 H -0.025(3) 0.126(3) 0.489(2)
H12 H -0.194(3) -0.026(3) 0.438(2)
H13 H -0.270(3) 0.101(3) 0.389(2)
H14 H -0.143(3) 0.038(4) 0.373(2)
H15 H 0.290(2) 0.266(2) 0.368(1)
H16 H 0.140(2) 0.295(2) 0.358(1)
H17 H 0.256(3) 0.024(4) 0.402(2)
H18 H 0.118(4) 0.062(3) 0.394(2)
H19 H 0.184(3) 0.068(3) 0.322(2)
H20 H 0.510(2) 0.151(3) 0.531(1)
H21 H 0.427(2) 0.140(2) 0.448(1)
H22 H 0.576(3) 0.388(4) 0.509(2)
H23 H 0.610(3) 0.280(3) 0.452(2)
H24 H 0.480(4) 0.380(4) 0.427(2)
H25 H 0.549(2) 0.301(2) 0.623(1)
H26 H 0.491(2) 0.360(2) 0.693(1)
H27 H 0.562(3) 0.136(3) 0.724(2)
H28 H 0.470(3) 0.067(3) 0.642(2)
H29 H 0.412(3) 0.139(3) 0.711(2)
H30 H 0.297(2) 0.360(2) 0.738(1)
H31 H 0.176(2) 0.446(2) 0.711(1)
H32 H 0.301(3) 0.646(3) 0.692(2)
H33 H 0.430(3) 0.551(3) 0.711(2)
H34 H 0.345(3) 0.587(3) 0.767(2)
C1B C -0.0095(1) 0.5478(1) 0.44340(6)
C2B C 0.0036(1) 0.6030(1) 0.52703(6)
C4B C -0.1325(1) 0.6512(1) 0.50409(7)
C3B C -0.1442(1) 0.6054(1) 0.43234(7)
C9B C 0.0758(1) 0.5794(1) 0.38799(7)
C10B C 0.0581(2) 0.7142(2) 0.3472(1)
C11B C 0.1380(3) 0.7281(3) 0.2895(1)
H5B H 0.131(3) 0.815(3) 0.264(2)
H6B H 0.208(3) 0.680(3) 0.294(2)
H7B H 0.100(4) 0.638(5) 0.250(2)
H3B H 0.067(3) 0.791(3) 0.377(2)
H4B H -0.040(3) 0.726(3) 0.323(1)
H1B H 0.169(2) 0.563(2) 0.415(1)
H2B H 0.057(2) 0.506(2) 0.345(1)
C8B C -0.2545(1) 0.6191(1) 0.38042(7)
C7B C -0.3552(1) 0.6847(2) 0.40614(8)
C6B C -0.3444(1) 0.7282(1) 0.47996(9)
C5B C -0.2309(1) 0.7123(1) 0.53148(7)
C15B C -0.2144(2) 0.7589(2) 0.61100(9)
C16B C -0.1906(3) 0.9111(2) 0.6230(2)
H17B H -0.256(3) 0.976(4) 0.598(2)
H18B H -0.118(4) 0.938(3) 0.606(2)
H19B H -0.184(3) 0.932(3) 0.678(2)
H15B H -0.290(2) 0.734(2) 0.632(1)
H16B H -0.140(2) 0.705(2) 0.642(1)
C17B C -0.4580(2) 0.7885(2) 0.5070(1)
C18B C -0.5389(3) 0.6781(4) 0.5340(3)
H22B H -0.576(3) 0.612(4) 0.491(2)
H23B H -0.610(3) 0.720(3) 0.548(2)
H24B H -0.480(4) 0.620(4) 0.573(2)
H20B H -0.510(2) 0.849(3) 0.469(1)
H21B H -0.427(2) 0.860(2) 0.552(1)
C19B C -0.4766(2) 0.7137(2) 0.3514(1)
C20B C -0.4787(2) 0.8549(3) 0.3174(2)
H27B H -0.562(3) 0.864(3) 0.276(2)
H28B H -0.470(3) 0.933(3) 0.358(2)
H29B H -0.412(3) 0.861(3) 0.289(2)
H25B H -0.549(2) 0.699(2) 0.377(1)
H26B H -0.491(2) 0.640(2) 0.307(1)
C21B C -0.2638(2) 0.5684(2) 0.30191(8)
C22B C -0.3406(2) 0.4382(2) 0.2834(1)
H32B H -0.301(3) 0.354(3) 0.308(2)
H33B H -0.430(3) 0.449(3) 0.289(2)
H34B H -0.345(3) 0.413(3) 0.233(2)
H30B H -0.297(2) 0.640(2) 0.262(1)
H31B H -0.176(2) 0.554(2) 0.289(1)
C12B C 0.1025(1) 0.7004(1) 0.56655(8)
C13B C 0.1036(2) 0.8428(2) 0.5354(1)
C14B C 0.1886(3) 0.9405(2) 0.5831(1)
H12B H 0.194(3) 1.026(3) 0.562(2)
H13B H 0.270(3) 0.899(3) 0.611(2)
H14B H 0.143(3) 0.962(4) 0.627(2)
H10B H 0.140(3) 0.832(3) 0.490(2)
H11B H 0.025(3) 0.874(3) 0.511(2)
H8B H 0.091(2) 0.707(2) 0.618(1)
H9B H 0.187(2) 0.660(2) 0.570(1)
C1 C 1.0095(1) 0.4522(1) 0.55660(6)
C2 C 0.9964(1) 0.3970(1) 0.47297(6)
C3 C 1.1442(1) 0.3946(1) 0.56766(7)
C4 C 1.1325(1) 0.3488(1) 0.49591(7)
C5 C 1.2309(1) 0.2877(1) 0.46852(7)
C6 C 1.3444(1) 0.2718(1) 0.52004(9)
C7 C 1.3552(1) 0.3153(2) 0.59386(8)
C8 C 1.2545(1) 0.3809(1) 0.61958(7)
C9 C 0.9242(1) 0.4206(1) 0.61201(7)
C10 C 0.9419(2) 0.2858(2) 0.6528(1)
C11 C 0.8620(3) 0.2719(3) 0.7105(1)
C12 C 0.8975(1) 0.2996(1) 0.43345(8)
C13 C 0.8964(2) 0.1572(2) 0.4646(1)
C14 C 0.8114(3) 0.0595(2) 0.4169(1)
C15 C 1.2144(2) 0.2411(2) 0.38900(9)
C16 C 1.1906(3) 0.0889(2) 0.3770(2)
C17 C 1.4580(2) 0.2115(2) 0.4930(1)
C18 C 1.5389(3) 0.3219(4) 0.4660(3)
C19 C 1.4766(2) 0.2863(2) 0.6486(1)
C20 C 1.4787(2) 0.1451(3) 0.6826(2)
C21 C 1.2638(2) 0.4316(2) 0.69809(8)
C22 C 1.3406(2) 0.5618(2) 0.7166(1)
H1 H 0.831(2) 0.437(2) 0.585(1)
H2 H 0.943(2) 0.494(2) 0.655(1)
H3 H 0.933(3) 0.209(3) 0.623(2)
H4 H 1.040(3) 0.274(3) 0.677(1)
H5 H 0.869(3) 0.185(3) 0.736(2)
H6 H 0.792(3) 0.320(3) 0.706(2)
H7 H 0.900(4) 0.362(5) 0.750(2)
H8 H 0.909(2) 0.293(2) 0.382(1)
H9 H 0.813(2) 0.340(2) 0.430(1)
H10 H 0.860(3) 0.168(3) 0.510(2)
H11 H 0.975(3) 0.126(3) 0.489(2)
H12 H 0.806(3) -0.026(3) 0.438(2)
H13 H 0.730(3) 0.101(3) 0.389(2)
H14 H 0.857(3) 0.038(4) 0.373(2)
H15 H 1.290(2) 0.266(2) 0.368(1)
H16 H 1.140(2) 0.295(2) 0.358(1)
H17 H 1.256(3) 0.024(4) 0.402(2)
H18 H 1.118(4) 0.062(3) 0.394(2)
H19 H 1.184(3) 0.068(3) 0.322(2)
H20 H 1.510(2) 0.151(3) 0.531(1)
H21 H 1.427(2) 0.140(2) 0.448(1)
H22 H 1.576(3) 0.388(4) 0.509(2)
H23 H 1.610(3) 0.280(3) 0.452(2)
H24 H 1.480(4) 0.380(4) 0.427(2)
H25 H 1.549(2) 0.301(2) 0.623(1)
H26 H 1.491(2) 0.360(2) 0.693(1)
H27 H 1.562(3) 0.136(3) 0.724(2)
H28 H 1.470(3) 0.067(3) 0.642(2)
H29 H 1.412(3) 0.139(3) 0.711(2)
H30 H 1.297(2) 0.360(2) 0.738(1)
H31 H 1.176(2) 0.446(2) 0.711(1)
H32 H 1.301(3) 0.646(3) 0.692(2)
H33 H 1.430(3) 0.551(3) 0.711(2)
H34 H 1.345(3) 0.587(3) 0.767(2)
C1B C 0.9905(1) 0.5478(1) 0.44340(6)
C2B C 1.0036(1) 0.6030(1) 0.52703(6)
C4B C 0.8675(1) 0.6512(1) 0.50409(7)
C3B C 0.8558(1) 0.6054(1) 0.43234(7)
C9B C 1.0758(1) 0.5794(1) 0.38799(7)
C10B C 1.0581(2) 0.7142(2) 0.3472(1)
C11B C 1.1380(3) 0.7281(3) 0.2895(1)
H5B H 1.131(3) 0.815(3) 0.264(2)
H6B H 1.208(3) 0.680(3) 0.294(2)
H7B H 1.100(4) 0.638(5) 0.250(2)
H3B H 1.067(3) 0.791(3) 0.377(2)
H4B H 0.960(3) 0.726(3) 0.323(1)
H1B H 1.169(2) 0.563(2) 0.415(1)
H2B H 1.057(2) 0.506(2) 0.345(1)
C8B C 0.7455(1) 0.6191(1) 0.38042(7)
C7B C 0.6448(1) 0.6847(2) 0.40614(8)
C6B C 0.6556(1) 0.7282(1) 0.47996(9)
C5B C 0.7691(1) 0.7123(1) 0.53148(7)
C15B C 0.7856(2) 0.7589(2) 0.61100(9)
C16B C 0.8094(3) 0.9111(2) 0.6230(2)
H17B H 0.744(3) 0.976(4) 0.598(2)
H18B H 0.882(4) 0.938(3) 0.606(2)
H19B H 0.816(3) 0.932(3) 0.678(2)
H15B H 0.710(2) 0.734(2) 0.632(1)
H16B H 0.860(2) 0.705(2) 0.642(1)
C17B C 0.5420(2) 0.7885(2) 0.5070(1)
C18B C 0.4611(3) 0.6781(4) 0.5340(3)
H22B H 0.424(3) 0.612(4) 0.491(2)
H23B H 0.390(3) 0.720(3) 0.548(2)
H24B H 0.520(4) 0.620(4) 0.573(2)
H20B H 0.490(2) 0.849(3) 0.469(1)
H21B H 0.573(2) 0.860(2) 0.552(1)
C19B C 0.5234(2) 0.7137(2) 0.3514(1)
C20B C 0.5213(2) 0.8549(3) 0.3174(2)
H27B H 0.438(3) 0.864(3) 0.276(2)
H28B H 0.530(3) 0.933(3) 0.358(2)
H29B H 0.588(3) 0.861(3) 0.289(2)
H25B H 0.451(2) 0.699(2) 0.377(1)
H26B H 0.509(2) 0.640(2) 0.307(1)
C21B C 0.7362(2) 0.5684(2) 0.30191(8)
C22B C 0.6594(2) 0.4382(2) 0.2834(1)
H32B H 0.699(3) 0.354(3) 0.308(2)
H33B H 0.570(3) 0.449(3) 0.289(2)
H34B H 0.655(3) 0.413(3) 0.233(2)
H30B H 0.703(2) 0.640(2) 0.262(1)
H31B H 0.824(2) 0.554(2) 0.289(1)
C12B C 1.1025(1) 0.7004(1) 0.56655(8)
C13B C 1.1036(2) 0.8428(2) 0.5354(1)
C14B C 1.1886(3) 0.9405(2) 0.5831(1)
H12B H 1.194(3) 1.026(3) 0.562(2)
H13B H 1.270(3) 0.899(3) 0.611(2)
H14B H 1.143(3) 0.962(4) 0.627(2)
H10B H 1.140(3) 0.832(3) 0.490(2)
H11B H 1.025(3) 0.874(3) 0.511(2)
H8B H 1.091(2) 0.707(2) 0.618(1)
H9B H 1.187(2) 0.660(2) 0.570(1)
C1 C 0.4905(1) -0.0478(1) -0.05660(6)
C2 C 0.5036(1) -0.1030(1) 0.02703(6)
C3 C 0.3558(1) -0.1054(1) -0.06766(7)
C4 C 0.3675(1) -0.1512(1) 0.00409(7)
C5 C 0.2691(1) -0.2123(1) 0.03148(7)
C6 C 0.1556(1) -0.2282(1) -0.02004(9)
C7 C 0.1448(1) -0.1847(2) -0.09386(8)
C8 C 0.2455(1) -0.1191(1) -0.11958(7)
C9 C 0.5758(1) -0.0794(1) -0.11201(7)
C10 C 0.5581(2) -0.2142(2) -0.1528(1)
C11 C 0.6380(3) -0.2281(3) -0.2105(1)
C12 C 0.6025(1) -0.2004(1) 0.06655(8)
C13 C 0.6036(2) -0.3428(2) 0.0354(1)
C14 C 0.6886(3) -0.4405(2) 0.0831(1)
C15 C 0.2856(2) -0.2589(2) 0.11100(9)
C16 C 0.3094(3) -0.4111(2) 0.1230(2)
C17 C 0.0420(2) -0.2885(2) 0.0070(1)
C18 C -0.0389(3) -0.1781(4) 0.0340(3)
C19 C 0.0234(2) -0.2137(2) -0.1486(1)
C20 C 0.0213(2) -0.3549(3) -0.1826(2)
C21 C 0.2362(2) -0.0684(2) -0.19809(8)
C22 C 0.1594(2) 0.0618(2) -0.2166(1)
H1 H 0.669(2) -0.063(2) -0.085(1)
H2 H 0.557(2) -0.006(2) -0.155(1)
H3 H 0.567(3) -0.291(3) -0.123(2)
H4 H 0.460(3) -0.226(3) -0.177(1)
H5 H 0.631(3) -0.315(3) -0.236(2)
H6 H 0.708(3) -0.180(3) -0.206(2)
H7 H 0.600(4) -0.138(5) -0.250(2)
H8 H 0.591(2) -0.207(2) 0.118(1)
H9 H 0.687(2) -0.160(2) 0.070(1)
H10 H 0.640(3) -0.332(3) -0.010(2)
H11 H 0.525(3) -0.374(3) 0.011(2)
H12 H 0.694(3) -0.526(3) 0.062(2)
H13 H 0.770(3) -0.399(3) 0.111(2)
H14 H 0.643(3) -0.462(4) 0.127(2)
H15 H 0.210(2) -0.234(2) 0.132(1)
H16 H 0.360(2) -0.205(2) 0.142(1)
H17 H 0.244(3) -0.476(4) 0.098(2)
H18 H 0.382(4) -0.438(3) 0.106(2)
H19 H 0.316(3) -0.432(3) 0.178(2)
H20 H -0.010(2) -0.349(3) -0.031(1)
H21 H 0.073(2) -0.360(2) 0.052(1)
H22 H -0.076(3) -0.112(4) -0.009(2)
H23 H -0.110(3) -0.220(3) 0.048(2)
H24 H 0.020(4) -0.120(4) 0.073(2)
H25 H -0.049(2) -0.199(2) -0.123(1)
H26 H 0.009(2) -0.140(2) -0.193(1)
H27 H -0.062(3) -0.364(3) -0.224(2)
H28 H 0.030(3) -0.433(3) -0.142(2)
H29 H 0.088(3) -0.361(3) -0.211(2)
H30 H 0.203(2) -0.140(2) -0.238(1)
H31 H 0.324(2) -0.054(2) -0.211(1)
H32 H 0.199(3) 0.146(3) -0.192(2)
H33 H 0.070(3) 0.051(3) -0.211(2)
H34 H 0.155(3) 0.087(3) -0.267(2)
C1B C 0.5095(1) 0.0478(1) 0.05660(6)
C2B C 0.4964(1) 0.1030(1) -0.02703(6)
C4B C 0.6325(1) 0.1512(1) -0.00409(7)
C3B C 0.6442(1) 0.1054(1) 0.06766(7)
C9B C 0.4242(1) 0.0794(1) 0.11201(7)
C10B C 0.4419(2) 0.2142(2) 0.1528(1)
C11B C 0.3620(3) 0.2281(3) 0.2105(1)
H5B H 0.369(3) 0.315(3) 0.236(2)
H6B H 0.292(3) 0.180(3) 0.206(2)
H7B H 0.400(4) 0.138(5) 0.250(2)
H3B H 0.433(3) 0.291(3) 0.123(2)
H4B H 0.540(3) 0.226(3) 0.177(1)
H1B H 0.331(2) 0.063(2) 0.085(1)
H2B H 0.443(2) 0.006(2) 0.155(1)
C8B C 0.7545(1) 0.1191(1) 0.11958(7)
C7B C 0.8552(1) 0.1847(2) 0.09386(8)
C6B C 0.8444(1) 0.2282(1) 0.02004(9)
C5B C 0.7309(1) 0.2123(1) -0.03148(7)
C15B C 0.7144(2) 0.2589(2) -0.11100(9)
C16B C 0.6906(3) 0.4111(2) -0.1230(2)
H17B H 0.756(3) 0.476(4) -0.098(2)
H18B H 0.618(4) 0.438(3) -0.106(2)
H19B H 0.684(3) 0.432(3) -0.178(2)
H15B H 0.790(2) 0.234(2) -0.132(1)
H16B H 0.640(2) 0.205(2) -0.142(1)
C17B C 0.9580(2) 0.2885(2) -0.0070(1)
C18B C 1.0389(3) 0.1781(4) -0.0340(3)
H22B H 1.076(3) 0.112(4) 0.009(2)
H23B H 1.110(3) 0.220(3) -0.048(2)
H24B H 0.980(4) 0.120(4) -0.073(2)
H20B H 1.010(2) 0.349(3) 0.031(1)
H21B H 0.927(2) 0.360(2) -0.052(1)
C19B C 0.9766(2) 0.2137(2) 0.1486(1)
C20B C 0.9787(2) 0.3549(3) 0.1826(2)
H27B H 1.062(3) 0.364(3) 0.224(2)
H28B H 0.970(3) 0.433(3) 0.142(2)
H29B H 0.912(3) 0.361(3) 0.211(2)
H25B H 1.049(2) 0.199(2) 0.123(1)
H26B H 0.991(2) 0.140(2) 0.193(1)
C21B C 0.7638(2) 0.0684(2) 0.19809(8)
C22B C 0.8406(2) -0.0618(2) 0.2166(1)
H32B H 0.801(3) -0.146(3) 0.192(2)
H33B H 0.930(3) -0.051(3) 0.211(2)
H34B H 0.845(3) -0.087(3) 0.267(2)
H30B H 0.797(2) 0.140(2) 0.238(1)
H31B H 0.676(2) 0.054(2) 0.211(1)
C12B C 0.3975(1) 0.2004(1) -0.06655(8)
C13B C 0.3964(2) 0.3428(2) -0.0354(1)
C14B C 0.3114(3) 0.4405(2) -0.0831(1)
H12B H 0.306(3) 0.526(3) -0.062(2)
H13B H 0.230(3) 0.399(3) -0.111(2)
H14B H 0.357(3) 0.462(4) -0.127(2)
H10B H 0.360(3) 0.332(3) 0.010(2)
H11B H 0.475(3) 0.374(3) -0.011(2)
H8B H 0.409(2) 0.207(2) -0.118(1)
H9B H 0.313(2) 0.160(2) -0.070(1)
C1 C 0.4905(1) -0.0478(1) 0.94340(6)
C2 C 0.5036(1) -0.1030(1) 1.02703(6)
C3 C 0.3558(1) -0.1054(1) 0.93234(7)
C4 C 0.3675(1) -0.1512(1) 1.00409(7)
C5 C 0.2691(1) -0.2123(1) 1.03148(7)
C6 C 0.1556(1) -0.2282(1) 0.97996(9)
C7 C 0.1448(1) -0.1847(2) 0.90614(8)
C8 C 0.2455(1) -0.1191(1) 0.88042(7)
C9 C 0.5758(1) -0.0794(1) 0.88799(7)
C10 C 0.5581(2) -0.2142(2) 0.8472(1)
C11 C 0.6380(3) -0.2281(3) 0.7895(1)
C12 C 0.6025(1) -0.2004(1) 1.06655(8)
C13 C 0.6036(2) -0.3428(2) 1.0354(1)
C14 C 0.6886(3) -0.4405(2) 1.0831(1)
C15 C 0.2856(2) -0.2589(2) 1.11100(9)
C16 C 0.3094(3) -0.4111(2) 1.1230(2)
C17 C 0.0420(2) -0.2885(2) 1.0070(1)
C18 C -0.0389(3) -0.1781(4) 1.0340(3)
C19 C 0.0234(2) -0.2137(2) 0.8514(1)
C20 C 0.0213(2) -0.3549(3) 0.8174(2)
C21 C 0.2362(2) -0.0684(2) 0.80191(8)
C22 C 0.1594(2) 0.0618(2) 0.7834(1)
H1 H 0.669(2) -0.063(2) 0.915(1)
H2 H 0.557(2) -0.006(2) 0.845(1)
H3 H 0.567(3) -0.291(3) 0.877(2)
H4 H 0.460(3) -0.226(3) 0.823(1)
H5 H 0.631(3) -0.315(3) 0.764(2)
H6 H 0.708(3) -0.180(3) 0.794(2)
H7 H 0.600(4) -0.138(5) 0.750(2)
H8 H 0.591(2) -0.207(2) 1.118(1)
H9 H 0.687(2) -0.160(2) 1.070(1)
H10 H 0.640(3) -0.332(3) 0.990(2)
H11 H 0.525(3) -0.374(3) 1.011(2)
H12 H 0.694(3) -0.526(3) 1.062(2)
H13 H 0.770(3) -0.399(3) 1.111(2)
H14 H 0.643(3) -0.462(4) 1.127(2)
H15 H 0.210(2) -0.234(2) 1.132(1)
H16 H 0.360(2) -0.205(2) 1.142(1)
H17 H 0.244(3) -0.476(4) 1.098(2)
H18 H 0.382(4) -0.438(3) 1.106(2)
H19 H 0.316(3) -0.432(3) 1.178(2)
H20 H -0.010(2) -0.349(3) 0.969(1)
H21 H 0.073(2) -0.360(2) 1.052(1)
H22 H -0.076(3) -0.112(4) 0.991(2)
H23 H -0.110(3) -0.220(3) 1.048(2)
H24 H 0.020(4) -0.120(4) 1.073(2)
H25 H -0.049(2) -0.199(2) 0.877(1)
H26 H 0.009(2) -0.140(2) 0.807(1)
H27 H -0.062(3) -0.364(3) 0.776(2)
H28 H 0.030(3) -0.433(3) 0.858(2)
H29 H 0.088(3) -0.361(3) 0.789(2)
H30 H 0.203(2) -0.140(2) 0.762(1)
H31 H 0.324(2) -0.054(2) 0.789(1)
H32 H 0.199(3) 0.146(3) 0.808(2)
H33 H 0.070(3) 0.051(3) 0.789(2)
H34 H 0.155(3) 0.087(3) 0.733(2)
C1B C 0.5095(1) 0.0478(1) 1.05660(6)
C2B C 0.4964(1) 0.1030(1) 0.97297(6)
C4B C 0.6325(1) 0.1512(1) 0.99591(7)
C3B C 0.6442(1) 0.1054(1) 1.06766(7)
C9B C 0.4242(1) 0.0794(1) 1.11201(7)
C10B C 0.4419(2) 0.2142(2) 1.1528(1)
C11B C 0.3620(3) 0.2281(3) 1.2105(1)
H5B H 0.369(3) 0.315(3) 1.236(2)
H6B H 0.292(3) 0.180(3) 1.206(2)
H7B H 0.400(4) 0.138(5) 1.250(2)
H3B H 0.433(3) 0.291(3) 1.123(2)
H4B H 0.540(3) 0.226(3) 1.177(1)
H1B H 0.331(2) 0.063(2) 1.085(1)
H2B H 0.443(2) 0.006(2) 1.155(1)
C8B C 0.7545(1) 0.1191(1) 1.11958(7)
C7B C 0.8552(1) 0.1847(2) 1.09386(8)
C6B C 0.8444(1) 0.2282(1) 1.02004(9)
C5B C 0.7309(1) 0.2123(1) 0.96852(7)
C15B C 0.7144(2) 0.2589(2) 0.88900(9)
C16B C 0.6906(3) 0.4111(2) 0.8770(2)
H17B H 0.756(3) 0.476(4) 0.902(2)
H18B H 0.618(4) 0.438(3) 0.894(2)
H19B H 0.684(3) 0.432(3) 0.822(2)
H15B H 0.790(2) 0.234(2) 0.868(1)
H16B H 0.640(2) 0.205(2) 0.858(1)
C17B C 0.9580(2) 0.2885(2) 0.9930(1)
C18B C 1.0389(3) 0.1781(4) 0.9660(3)
H22B H 1.076(3) 0.112(4) 1.009(2)
H23B H 1.110(3) 0.220(3) 0.952(2)
H24B H 0.980(4) 0.120(4) 0.927(2)
H20B H 1.010(2) 0.349(3) 1.031(1)
H21B H 0.927(2) 0.360(2) 0.948(1)
C19B C 0.9766(2) 0.2137(2) 1.1486(1)
C20B C 0.9787(2) 0.3549(3) 1.1826(2)
H27B H 1.062(3) 0.364(3) 1.224(2)
H28B H 0.970(3) 0.433(3) 1.142(2)
H29B H 0.912(3) 0.361(3) 1.211(2)
H25B H 1.049(2) 0.199(2) 1.123(1)
H26B H 0.991(2) 0.140(2) 1.193(1)
C21B C 0.7638(2) 0.0684(2) 1.19809(8)
C22B C 0.8406(2) -0.0618(2) 1.2166(1)
H32B H 0.801(3) -0.146(3) 1.192(2)
H33B H 0.930(3) -0.051(3) 1.211(2)
H34B H 0.845(3) -0.087(3) 1.267(2)
H30B H 0.797(2) 0.140(2) 1.238(1)
H31B H 0.676(2) 0.054(2) 1.211(1)
C12B C 0.3975(1) 0.2004(1) 0.93345(8)
C13B C 0.3964(2) 0.3428(2) 0.9646(1)
C14B C 0.3114(3) 0.4405(2) 0.9169(1)
H12B H 0.306(3) 0.526(3) 0.938(2)
H13B H 0.230(3) 0.399(3) 0.889(2)
H14B H 0.357(3) 0.462(4) 0.873(2)
H10B H 0.360(3) 0.332(3) 1.010(2)
H11B H 0.475(3) 0.374(3) 0.989(2)
H8B H 0.409(2) 0.207(2) 0.882(1)
H9B H 0.313(2) 0.160(2) 0.930(1)
C1 C 0.4905(1) 0.9522(1) -0.05660(6)
C2 C 0.5036(1) 0.8970(1) 0.02703(6)
C3 C 0.3558(1) 0.8946(1) -0.06766(7)
C4 C 0.3675(1) 0.8488(1) 0.00409(7)
C5 C 0.2691(1) 0.7877(1) 0.03148(7)
C6 C 0.1556(1) 0.7718(1) -0.02004(9)
C7 C 0.1448(1) 0.8153(2) -0.09386(8)
C8 C 0.2455(1) 0.8809(1) -0.11958(7)
C9 C 0.5758(1) 0.9206(1) -0.11201(7)
C10 C 0.5581(2) 0.7858(2) -0.1528(1)
C11 C 0.6380(3) 0.7719(3) -0.2105(1)
C12 C 0.6025(1) 0.7996(1) 0.06655(8)
C13 C 0.6036(2) 0.6572(2) 0.0354(1)
C14 C 0.6886(3) 0.5595(2) 0.0831(1)
C15 C 0.2856(2) 0.7411(2) 0.11100(9)
C16 C 0.3094(3) 0.5889(2) 0.1230(2)
C17 C 0.0420(2) 0.7115(2) 0.0070(1)
C18 C -0.0389(3) 0.8219(4) 0.0340(3)
C19 C 0.0234(2) 0.7863(2) -0.1486(1)
C20 C 0.0213(2) 0.6451(3) -0.1826(2)
C21 C 0.2362(2) 0.9316(2) -0.19809(8)
C22 C 0.1594(2) 1.0618(2) -0.2166(1)
H1 H 0.669(2) 0.937(2) -0.085(1)
H2 H 0.557(2) 0.994(2) -0.155(1)
H3 H 0.567(3) 0.709(3) -0.123(2)
H4 H 0.460(3) 0.774(3) -0.177(1)
H5 H 0.631(3) 0.685(3) -0.236(2)
H6 H 0.708(3) 0.820(3) -0.206(2)
H7 H 0.600(4) 0.862(5) -0.250(2)
H8 H 0.591(2) 0.793(2) 0.118(1)
H9 H 0.687(2) 0.840(2) 0.070(1)
H10 H 0.640(3) 0.668(3) -0.010(2)
H11 H 0.525(3) 0.626(3) 0.011(2)
H12 H 0.694(3) 0.474(3) 0.062(2)
H13 H 0.770(3) 0.601(3) 0.111(2)
H14 H 0.643(3) 0.538(4) 0.127(2)
H15 H 0.210(2) 0.766(2) 0.132(1)
H16 H 0.360(2) 0.795(2) 0.142(1)
H17 H 0.244(3) 0.524(4) 0.098(2)
H18 H 0.382(4) 0.562(3) 0.106(2)
H19 H 0.316(3) 0.568(3) 0.178(2)
H20 H -0.010(2) 0.651(3) -0.031(1)
H21 H 0.073(2) 0.640(2) 0.052(1)
H22 H -0.076(3) 0.888(4) -0.009(2)
H23 H -0.110(3) 0.780(3) 0.048(2)
H24 H 0.020(4) 0.880(4) 0.073(2)
H25 H -0.049(2) 0.801(2) -0.123(1)
H26 H 0.009(2) 0.860(2) -0.193(1)
H27 H -0.062(3) 0.636(3) -0.224(2)
H28 H 0.030(3) 0.567(3) -0.142(2)
H29 H 0.088(3) 0.639(3) -0.211(2)
H30 H 0.203(2) 0.860(2) -0.238(1)
H31 H 0.324(2) 0.946(2) -0.211(1)
H32 H 0.199(3) 1.146(3) -0.192(2)
H33 H 0.070(3) 1.051(3) -0.211(2)
H34 H 0.155(3) 1.087(3) -0.267(2)
C1B C 0.5095(1) 1.0478(1) 0.05660(6)
C2B C 0.4964(1) 1.1030(1) -0.02703(6)
C4B C 0.6325(1) 1.1512(1) -0.00409(7)
C3B C 0.6442(1) 1.1054(1) 0.06766(7)
C9B C 0.4242(1) 1.0794(1) 0.11201(7)
C10B C 0.4419(2) 1.2142(2) 0.1528(1)
C11B C 0.3620(3) 1.2281(3) 0.2105(1)
H5B H 0.369(3) 1.315(3) 0.236(2)
H6B H 0.292(3) 1.180(3) 0.206(2)
H7B H 0.400(4) 1.138(5) 0.250(2)
H3B H 0.433(3) 1.291(3) 0.123(2)
H4B H 0.540(3) 1.226(3) 0.177(1)
H1B H 0.331(2) 1.063(2) 0.085(1)
H2B H 0.443(2) 1.006(2) 0.155(1)
C8B C 0.7545(1) 1.1191(1) 0.11958(7)
C7B C 0.8552(1) 1.1847(2) 0.09386(8)
C6B C 0.8444(1) 1.2282(1) 0.02004(9)
C5B C 0.7309(1) 1.2123(1) -0.03148(7)
C15B C 0.7144(2) 1.2589(2) -0.11100(9)
C16B C 0.6906(3) 1.4111(2) -0.1230(2)
H17B H 0.756(3) 1.476(4) -0.098(2)
H18B H 0.618(4) 1.438(3) -0.106(2)
H19B H 0.684(3) 1.432(3) -0.178(2)
H15B H 0.790(2) 1.234(2) -0.132(1)
H16B H 0.640(2) 1.205(2) -0.142(1)
C17B C 0.9580(2) 1.2885(2) -0.0070(1)
C18B C 1.0389(3) 1.1781(4) -0.0340(3)
H22B H 1.076(3) 1.112(4) 0.009(2)
H23B H 1.110(3) 1.220(3) -0.048(2)
H24B H 0.980(4) 1.120(4) -0.073(2)
H20B H 1.010(2) 1.349(3) 0.031(1)
H21B H 0.927(2) 1.360(2) -0.052(1)
C19B C 0.9766(2) 1.2137(2) 0.1486(1)
C20B C 0.9787(2) 1.3549(3) 0.1826(2)
H27B H 1.062(3) 1.364(3) 0.224(2)
H28B H 0.970(3) 1.433(3) 0.142(2)
H29B H 0.912(3) 1.361(3) 0.211(2)
H25B H 1.049(2) 1.199(2) 0.123(1)
H26B H 0.991(2) 1.140(2) 0.193(1)
C21B C 0.7638(2) 1.0684(2) 0.19809(8)
C22B C 0.8406(2) 0.9382(2) 0.2166(1)
H32B H 0.801(3) 0.854(3) 0.192(2)
H33B H 0.930(3) 0.949(3) 0.211(2)
H34B H 0.845(3) 0.913(3) 0.267(2)
H30B H 0.797(2) 1.140(2) 0.238(1)
H31B H 0.676(2) 1.054(2) 0.211(1)
C12B C 0.3975(1) 1.2004(1) -0.06655(8)
C13B C 0.3964(2) 1.3428(2) -0.0354(1)
C14B C 0.3114(3) 1.4405(2) -0.0831(1)
H12B H 0.306(3) 1.526(3) -0.062(2)
H13B H 0.230(3) 1.399(3) -0.111(2)
H14B H 0.357(3) 1.462(4) -0.127(2)
H10B H 0.360(3) 1.332(3) 0.010(2)
H11B H 0.475(3) 1.374(3) -0.011(2)
H8B H 0.409(2) 1.207(2) -0.118(1)
H9B H 0.313(2) 1.160(2) -0.070(1)
C1 C 0.4905(1) 0.9522(1) 0.94340(6)
C2 C 0.5036(1) 0.8970(1) 1.02703(6)
C3 C 0.3558(1) 0.8946(1) 0.93234(7)
C4 C 0.3675(1) 0.8488(1) 1.00409(7)
C5 C 0.2691(1) 0.7877(1) 1.03148(7)
C6 C 0.1556(1) 0.7718(1) 0.97996(9)
C7 C 0.1448(1) 0.8153(2) 0.90614(8)
C8 C 0.2455(1) 0.8809(1) 0.88042(7)
C9 C 0.5758(1) 0.9206(1) 0.88799(7)
C10 C 0.5581(2) 0.7858(2) 0.8472(1)
C11 C 0.6380(3) 0.7719(3) 0.7895(1)
C12 C 0.6025(1) 0.7996(1) 1.06655(8)
C13 C 0.6036(2) 0.6572(2) 1.0354(1)
C14 C 0.6886(3) 0.5595(2) 1.0831(1)
C15 C 0.2856(2) 0.7411(2) 1.11100(9)
C16 C 0.3094(3) 0.5889(2) 1.1230(2)
C17 C 0.0420(2) 0.7115(2) 1.0070(1)
C18 C -0.0389(3) 0.8219(4) 1.0340(3)
C19 C 0.0234(2) 0.7863(2) 0.8514(1)
C20 C 0.0213(2) 0.6451(3) 0.8174(2)
C21 C 0.2362(2) 0.9316(2) 0.80191(8)
C22 C 0.1594(2) 1.0618(2) 0.7834(1)
H1 H 0.669(2) 0.937(2) 0.915(1)
H2 H 0.557(2) 0.994(2) 0.845(1)
H3 H 0.567(3) 0.709(3) 0.877(2)
H4 H 0.460(3) 0.774(3) 0.823(1)
H5 H 0.631(3) 0.685(3) 0.764(2)
H6 H 0.708(3) 0.820(3) 0.794(2)
H7 H 0.600(4) 0.862(5) 0.750(2)
H8 H 0.591(2) 0.793(2) 1.118(1)
H9 H 0.687(2) 0.840(2) 1.070(1)
H10 H 0.640(3) 0.668(3) 0.990(2)
H11 H 0.525(3) 0.626(3) 1.011(2)
H12 H 0.694(3) 0.474(3) 1.062(2)
H13 H 0.770(3) 0.601(3) 1.111(2)
H14 H 0.643(3) 0.538(4) 1.127(2)
H15 H 0.210(2) 0.766(2) 1.132(1)
H16 H 0.360(2) 0.795(2) 1.142(1)
H17 H 0.244(3) 0.524(4) 1.098(2)
H18 H 0.382(4) 0.562(3) 1.106(2)
H19 H 0.316(3) 0.568(3) 1.178(2)
H20 H -0.010(2) 0.651(3) 0.969(1)
H21 H 0.073(2) 0.640(2) 1.052(1)
H22 H -0.076(3) 0.888(4) 0.991(2)
H23 H -0.110(3) 0.780(3) 1.048(2)
H24 H 0.020(4) 0.880(4) 1.073(2)
H25 H -0.049(2) 0.801(2) 0.877(1)
H26 H 0.009(2) 0.860(2) 0.807(1)
H27 H -0.062(3) 0.636(3) 0.776(2)
H28 H 0.030(3) 0.567(3) 0.858(2)
H29 H 0.088(3) 0.639(3) 0.789(2)
H30 H 0.203(2) 0.860(2) 0.762(1)
H31 H 0.324(2) 0.946(2) 0.789(1)
H32 H 0.199(3) 1.146(3) 0.808(2)
H33 H 0.070(3) 1.051(3) 0.789(2)
H34 H 0.155(3) 1.087(3) 0.733(2)
C1B C 0.5095(1) 1.0478(1) 1.05660(6)
C2B C 0.4964(1) 1.1030(1) 0.97297(6)
C4B C 0.6325(1) 1.1512(1) 0.99591(7)
C3B C 0.6442(1) 1.1054(1) 1.06766(7)
C9B C 0.4242(1) 1.0794(1) 1.11201(7)
C10B C 0.4419(2) 1.2142(2) 1.1528(1)
C11B C 0.3620(3) 1.2281(3) 1.2105(1)
H5B H 0.369(3) 1.315(3) 1.236(2)
H6B H 0.292(3) 1.180(3) 1.206(2)
H7B H 0.400(4) 1.138(5) 1.250(2)
H3B H 0.433(3) 1.291(3) 1.123(2)
H4B H 0.540(3) 1.226(3) 1.177(1)
H1B H 0.331(2) 1.063(2) 1.085(1)
H2B H 0.443(2) 1.006(2) 1.155(1)
C8B C 0.7545(1) 1.1191(1) 1.11958(7)
C7B C 0.8552(1) 1.1847(2) 1.09386(8)
C6B C 0.8444(1) 1.2282(1) 1.02004(9)
C5B C 0.7309(1) 1.2123(1) 0.96852(7)
C15B C 0.7144(2) 1.2589(2) 0.88900(9)
C16B C 0.6906(3) 1.4111(2) 0.8770(2)
H17B H 0.756(3) 1.476(4) 0.902(2)
H18B H 0.618(4) 1.438(3) 0.894(2)
H19B H 0.684(3) 1.432(3) 0.822(2)
H15B H 0.790(2) 1.234(2) 0.868(1)
H16B H 0.640(2) 1.205(2) 0.858(1)
C17B C 0.9580(2) 1.2885(2) 0.9930(1)
C18B C 1.0389(3) 1.1781(4) 0.9660(3)
H22B H 1.076(3) 1.112(4) 1.009(2)
H23B H 1.110(3) 1.220(3) 0.952(2)
H24B H 0.980(4) 1.120(4) 0.927(2)
H20B H 1.010(2) 1.349(3) 1.031(1)
H21B H 0.927(2) 1.360(2) 0.948(1)
C19B C 0.9766(2) 1.2137(2) 1.1486(1)
C20B C 0.9787(2) 1.3549(3) 1.1826(2)
H27B H 1.062(3) 1.364(3) 1.224(2)
H28B H 0.970(3) 1.433(3) 1.142(2)
H29B H 0.912(3) 1.361(3) 1.211(2)
H25B H 1.049(2) 1.199(2) 1.123(1)
H26B H 0.991(2) 1.140(2) 1.193(1)
C21B C 0.7638(2) 1.0684(2) 1.19809(8)
C22B C 0.8406(2) 0.9382(2) 1.2166(1)
H32B H 0.801(3) 0.854(3) 1.192(2)
H33B H 0.930(3) 0.949(3) 1.211(2)
H34B H 0.845(3) 0.913(3) 1.267(2)
H30B H 0.797(2) 1.140(2) 1.238(1)
H31B H 0.676(2) 1.054(2) 1.211(1)
C12B C 0.3975(1) 1.2004(1) 0.93345(8)
C13B C 0.3964(2) 1.3428(2) 0.9646(1)
C14B C 0.3114(3) 1.4405(2) 0.9169(1)
H12B H 0.306(3) 1.526(3) 0.938(2)
H13B H 0.230(3) 1.399(3) 0.889(2)
H14B H 0.357(3) 1.462(4) 0.873(2)
H10B H 0.360(3) 1.332(3) 1.010(2)
H11B H 0.475(3) 1.374(3) 0.989(2)
H8B H 0.409(2) 1.207(2) 0.882(1)
H9B H 0.313(2) 1.160(2) 0.930(1)

#END
