./ACEMAW_from_POSCAR.cif_generated_by_CrystalShift
_symmetry_cell_setting triclinic
_symmetry_space_group_name_H-M 'P 1'
loop_
_symmetry_equiv_pos_site_id
_symmetry_equiv_pos_as_xyz
1 x,y,z
_cell_length_a 10.768900
_cell_length_b 9.823500
_cell_length_c 18.439000
_cell_angle_alpha 90.000000
_cell_angle_beta 100.456000
_cell_angle_gamma 90.000000
_cell_volume 1918.239199
loop_
_atom_site_label
_atom_site_type_symbol
_atom_site_fract_x
_atom_site_fract_y
_atom_site_fract_z
H1 H 0.313000 1.160000 0.930000
H2 H 0.475000 1.374000 0.989000
H3 H 0.360000 1.332000 1.010000
H4 H 0.357000 1.462000 0.873000
H5 H 0.230000 1.399000 0.889000
H6 H 0.306000 1.526000 0.938000
H7 H 0.676000 1.054000 1.211000
H8 H 0.797000 1.140000 1.238000
H9 H 0.845000 0.913000 1.267000
H10 H 0.930000 0.949000 1.211000
H11 H 0.801000 0.854000 1.192000
H12 H 0.991000 1.140000 1.193000
H13 H 1.049000 1.199000 1.123000
H14 H 0.912000 1.361000 1.211000
H15 H 0.970000 1.433000 1.142000
H16 H 1.062000 1.364000 1.224000
H17 H 0.927000 1.360000 0.948000
H18 H 1.010000 1.349000 1.031000
H19 H 0.980000 1.120000 0.927000
H20 H 1.110000 1.220000 0.952000
H21 H 1.076000 1.112000 1.009000
H22 H 0.640000 1.205000 0.858000
H23 H -0.169000 0.437000 0.585000
H24 H -0.057000 0.494000 0.655000
H25 H -0.067000 0.209000 0.623000
H26 H 0.040000 0.274000 0.677000
H27 H -0.131000 0.185000 0.736000
H28 H -0.208000 0.320000 0.706000
H29 H -0.100000 0.362000 0.750000
H30 H -0.091000 0.293000 0.382000
H31 H -0.187000 0.340000 0.430000
H32 H -0.140000 0.168000 0.510000
H33 H -0.025000 0.126000 0.489000
H34 H -0.194000 -0.026000 0.438000
H35 H -0.270000 0.101000 0.389000
H36 H -0.143000 0.038000 0.373000
H37 H 0.290000 0.266000 0.368000
H38 H 0.140000 0.295000 0.358000
H39 H 0.256000 0.024000 0.402000
H40 H 0.118000 0.062000 0.394000
H41 H 0.184000 0.068000 0.322000
H42 H 0.510000 0.151000 0.531000
H43 H 0.427000 0.140000 0.448000
H44 H 0.576000 0.388000 0.509000
H45 H 0.610000 0.280000 0.452000
H46 H 0.480000 0.380000 0.427000
H47 H 0.549000 0.301000 0.623000
H48 H 0.491000 0.360000 0.693000
H49 H 0.562000 0.136000 0.724000
H50 H 0.470000 0.067000 0.642000
H51 H 0.412000 0.139000 0.711000
H52 H 0.297000 0.360000 0.738000
H53 H 0.176000 0.446000 0.711000
H54 H 0.301000 0.646000 0.692000
H55 H 0.430000 0.551000 0.711000
H56 H 0.345000 0.587000 0.767000
H57 H 0.790000 1.234000 0.868000
H58 H 0.684000 1.432000 0.822000
H59 H 0.618000 1.438000 0.894000
H60 H 0.756000 1.476000 0.902000
H61 H 0.443000 1.006000 1.155000
H62 H 0.331000 1.063000 1.085000
H63 H 0.540000 1.226000 1.177000
H64 H 0.131000 0.815000 0.264000
H65 H 0.208000 0.680000 0.294000
H66 H 0.100000 0.638000 0.250000
H67 H 0.067000 0.791000 0.377000
H68 H -0.040000 0.726000 0.323000
H69 H 0.169000 0.563000 0.415000
H70 H 0.057000 0.506000 0.345000
H71 H 0.433000 1.291000 1.123000
H72 H 0.400000 1.138000 1.250000
H73 H 0.292000 1.180000 1.206000
H74 H 0.369000 1.315000 1.236000
H75 H 0.155000 1.087000 0.733000
H76 H 0.070000 1.051000 0.789000
H77 H -0.256000 0.976000 0.598000
H78 H -0.118000 0.938000 0.606000
H79 H -0.184000 0.932000 0.678000
H80 H -0.290000 0.734000 0.632000
H81 H -0.140000 0.705000 0.642000
H82 H 0.199000 1.146000 0.808000
H83 H 0.324000 0.946000 0.789000
H84 H -0.576000 0.612000 0.491000
H85 H -0.610000 0.720000 0.548000
H86 H -0.480000 0.620000 0.573000
H87 H -0.510000 0.849000 0.469000
H88 H -0.427000 0.860000 0.552000
H89 H 0.203000 0.860000 0.762000
H90 H 0.088000 0.639000 0.789000
H91 H -0.562000 0.864000 0.276000
H92 H -0.470000 0.933000 0.358000
H93 H -0.412000 0.861000 0.289000
H94 H -0.549000 0.699000 0.377000
H95 H -0.491000 0.640000 0.307000
H96 H 0.030000 0.567000 0.858000
H97 H -0.062000 0.636000 0.776000
H98 H -0.301000 0.354000 0.308000
H99 H -0.430000 0.449000 0.289000
H100 H -0.345000 0.413000 0.233000
H101 H -0.297000 0.640000 0.262000
H102 H -0.176000 0.554000 0.289000
H103 H 0.009000 0.860000 0.807000
H104 H -0.049000 0.801000 0.877000
H105 H 0.020000 0.880000 1.073000
H106 H 0.194000 1.026000 0.562000
H107 H 0.270000 0.899000 0.611000
H108 H 0.143000 0.962000 0.627000
H109 H 0.140000 0.832000 0.490000
H110 H 0.025000 0.874000 0.511000
H111 H 0.091000 0.707000 0.618000
H112 H 0.187000 0.660000 0.570000
H113 H -0.110000 0.780000 1.048000
H114 H -0.076000 0.888000 0.991000
H115 H 0.073000 0.640000 1.052000
H116 H -0.010000 0.651000 0.969000
H117 H 0.316000 0.568000 1.178000
H118 H 0.382000 0.562000 1.106000
H119 H 0.244000 0.524000 1.098000
H120 H 0.360000 0.795000 1.142000
H121 H 0.210000 0.766000 1.132000
H122 H 0.643000 0.538000 1.127000
H123 H 0.770000 0.601000 1.111000
H124 H 0.694000 0.474000 1.062000
H125 H 0.525000 0.626000 1.011000
H126 H 0.640000 0.668000 0.990000
H127 H 0.687000 0.840000 1.070000
H128 H 0.591000 0.793000 1.118000
H129 H 0.600000 0.862000 0.750000
H130 H 0.708000 0.820000 0.794000
H131 H 0.631000 0.685000 0.764000
H132 H 0.460000 0.774000 0.823000
H133 H 0.567000 0.709000 0.877000
H134 H 0.557000 0.994000 0.845000
H135 H 0.831000 0.437000 0.585000
H136 H 0.943000 0.494000 0.655000
H137 H 0.933000 0.209000 0.623000
H138 H 1.040000 0.274000 0.677000
H139 H 0.869000 0.185000 0.736000
H140 H 0.792000 0.320000 0.706000
H141 H 0.900000 0.362000 0.750000
H142 H 0.909000 0.293000 0.382000
H143 H 0.813000 0.340000 0.430000
H144 H 0.860000 0.168000 0.510000
H145 H 0.975000 0.126000 0.489000
H146 H 0.806000 -0.026000 0.438000
H147 H 0.730000 0.101000 0.389000
H148 H 0.857000 0.038000 0.373000
H149 H 1.290000 0.266000 0.368000
H150 H 1.140000 0.295000 0.358000
H151 H 1.256000 0.024000 0.402000
H152 H 1.118000 0.062000 0.394000
H153 H 1.184000 0.068000 0.322000
H154 H 1.510000 0.151000 0.531000
H155 H 1.427000 0.140000 0.448000
H156 H 1.576000 0.388000 0.509000
H157 H 1.610000 0.280000 0.452000
H158 H 1.480000 0.380000 0.427000
H159 H 1.549000 0.301000 0.623000
H160 H 1.491000 0.360000 0.693000
H161 H 1.562000 0.136000 0.724000
H162 H 1.470000 0.067000 0.642000
H163 H 1.412000 0.139000 0.711000
H164 H 1.297000 0.360000 0.738000
H165 H 1.176000 0.446000 0.711000
H166 H 1.301000 0.646000 0.692000
H167 H 1.430000 0.551000 0.711000
H168 H 1.345000 0.587000 0.767000
H169 H 0.669000 0.937000 0.915000
H170 H 0.313000 1.160000 -0.070000
H171 H 0.409000 1.207000 -0.118000
H172 H 0.475000 1.374000 -0.011000
H173 H 0.360000 1.332000 0.010000
H174 H 0.357000 1.462000 -0.127000
H175 H 0.230000 1.399000 -0.111000
H176 H 1.131000 0.815000 0.264000
H177 H 1.208000 0.680000 0.294000
H178 H 1.100000 0.638000 0.250000
H179 H 1.067000 0.791000 0.377000
H180 H 0.960000 0.726000 0.323000
H181 H 1.169000 0.563000 0.415000
H182 H 1.057000 0.506000 0.345000
H183 H 0.306000 1.526000 -0.062000
H184 H 0.676000 1.054000 0.211000
H185 H 0.797000 1.140000 0.238000
H186 H 0.845000 0.913000 0.267000
H187 H 0.930000 0.949000 0.211000
H188 H 0.801000 0.854000 0.192000
H189 H 0.744000 0.976000 0.598000
H190 H 0.882000 0.938000 0.606000
H191 H 0.816000 0.932000 0.678000
H192 H 0.710000 0.734000 0.632000
H193 H 0.860000 0.705000 0.642000
H194 H 0.991000 1.140000 0.193000
H195 H 1.049000 1.199000 0.123000
H196 H 0.424000 0.612000 0.491000
H197 H 0.390000 0.720000 0.548000
H198 H 0.520000 0.620000 0.573000
H199 H 0.490000 0.849000 0.469000
H200 H 0.573000 0.860000 0.552000
H201 H 0.912000 1.361000 0.211000
H202 H 0.970000 1.433000 0.142000
H203 H 0.438000 0.864000 0.276000
H204 H 0.530000 0.933000 0.358000
H205 H 0.588000 0.861000 0.289000
H206 H 0.451000 0.699000 0.377000
H207 H 0.509000 0.640000 0.307000
H208 H 1.062000 1.364000 0.224000
H209 H 0.927000 1.360000 -0.052000
H210 H 0.699000 0.354000 0.308000
H211 H 0.570000 0.449000 0.289000
H212 H 0.655000 0.413000 0.233000
H213 H 0.703000 0.640000 0.262000
H214 H 0.824000 0.554000 0.289000
H215 H 1.010000 1.349000 0.031000
H216 H 0.980000 1.120000 -0.073000
H217 H 1.110000 1.220000 -0.048000
H218 H 1.194000 1.026000 0.562000
H219 H 1.270000 0.899000 0.611000
H220 H 1.143000 0.962000 0.627000
H221 H 1.140000 0.832000 0.490000
H222 H 1.025000 0.874000 0.511000
H223 H 1.091000 0.707000 0.618000
H224 H 1.187000 0.660000 0.570000
H225 H 1.076000 1.112000 0.009000
H226 H 0.640000 1.205000 -0.142000
H227 H 0.790000 1.234000 -0.132000
H228 H 0.684000 1.432000 -0.178000
H229 H 0.618000 1.438000 -0.106000
H230 H 0.756000 1.476000 -0.098000
H231 H 0.443000 1.006000 0.155000
H232 H 0.331000 1.063000 0.085000
H233 H 0.540000 1.226000 0.177000
H234 H 0.433000 1.291000 0.123000
H235 H 0.400000 1.138000 0.250000
H236 H 0.292000 1.180000 0.206000
H237 H 0.369000 1.315000 0.236000
H238 H 0.155000 1.087000 -0.267000
H239 H 0.070000 1.051000 -0.211000
H240 H 0.199000 1.146000 -0.192000
H241 H 0.324000 0.946000 -0.211000
H242 H 0.203000 0.860000 -0.238000
H243 H 0.088000 0.639000 -0.211000
H244 H 0.030000 0.567000 -0.142000
H245 H -0.062000 0.636000 -0.224000
H246 H 0.009000 0.860000 -0.193000
H247 H 0.669000 -0.063000 -0.085000
H248 H 0.557000 -0.006000 -0.155000
H249 H 0.567000 -0.291000 -0.123000
H250 H 0.460000 -0.226000 -0.177000
H251 H 0.631000 -0.315000 -0.236000
H252 H 0.708000 -0.180000 -0.206000
H253 H 0.600000 -0.138000 -0.250000
H254 H 0.591000 -0.207000 0.118000
H255 H 0.687000 -0.160000 0.070000
H256 H 0.640000 -0.332000 -0.010000
H257 H 0.525000 -0.374000 0.011000
H258 H 0.694000 -0.526000 0.062000
H259 H 0.770000 -0.399000 0.111000
H260 H 0.643000 -0.462000 0.127000
H261 H 0.210000 -0.234000 0.132000
H262 H 0.360000 -0.205000 0.142000
H263 H 0.244000 -0.476000 0.098000
H264 H 0.382000 -0.438000 0.106000
H265 H 0.316000 -0.432000 0.178000
H266 H -0.010000 -0.349000 -0.031000
H267 H 0.073000 -0.360000 0.052000
H268 H -0.076000 -0.112000 -0.009000
H269 H -0.110000 -0.220000 0.048000
H270 H 0.020000 -0.120000 0.073000
H271 H -0.049000 -0.199000 -0.123000
H272 H 0.009000 -0.140000 -0.193000
H273 H -0.062000 -0.364000 -0.224000
H274 H 0.030000 -0.433000 -0.142000
H275 H 0.088000 -0.361000 -0.211000
H276 H 0.203000 -0.140000 -0.238000
H277 H 0.324000 -0.054000 -0.211000
H278 H 0.199000 0.146000 -0.192000
H279 H 0.070000 0.051000 -0.211000
H280 H 0.155000 0.087000 -0.267000
H281 H -0.049000 0.801000 -0.123000
H282 H 0.020000 0.880000 0.073000
H283 H -0.110000 0.780000 0.048000
H284 H -0.076000 0.888000 -0.009000
H285 H 0.073000 0.640000 0.052000
H286 H -0.010000 0.651000 -0.031000
H287 H 0.316000 0.568000 0.178000
H288 H 0.369000 0.315000 0.236000
H289 H 0.292000 0.180000 0.206000
H290 H 0.400000 0.138000 0.250000
H291 H 0.433000 0.291000 0.123000
H292 H 0.540000 0.226000 0.177000
H293 H 0.331000 0.063000 0.085000
H294 H 0.443000 0.006000 0.155000
H295 H 0.382000 0.562000 0.106000
H296 H 0.244000 0.524000 0.098000
H297 H 0.360000 0.795000 0.142000
H298 H 0.210000 0.766000 0.132000
H299 H 0.643000 0.538000 0.127000
H300 H 0.770000 0.601000 0.111000
H301 H 0.756000 0.476000 -0.098000
H302 H 0.618000 0.438000 -0.106000
H303 H 0.684000 0.432000 -0.178000
H304 H 0.790000 0.234000 -0.132000
H305 H 0.640000 0.205000 -0.142000
H306 H 0.694000 0.474000 0.062000
H307 H 0.525000 0.626000 0.011000
H308 H 1.076000 0.112000 0.009000
H309 H 1.110000 0.220000 -0.048000
H310 H 0.980000 0.120000 -0.073000
H311 H 1.010000 0.349000 0.031000
H312 H 0.927000 0.360000 -0.052000
H313 H 0.640000 0.668000 -0.010000
H314 H 0.687000 0.840000 0.070000
H315 H 1.062000 0.364000 0.224000
H316 H 0.970000 0.433000 0.142000
H317 H 0.912000 0.361000 0.211000
H318 H 1.049000 0.199000 0.123000
H319 H 0.991000 0.140000 0.193000
H320 H 0.591000 0.793000 0.118000
H321 H 0.600000 0.862000 -0.250000
H322 H 0.801000 -0.146000 0.192000
H323 H 0.930000 -0.051000 0.211000
H324 H 0.845000 -0.087000 0.267000
H325 H 0.797000 0.140000 0.238000
H326 H 0.676000 0.054000 0.211000
H327 H 0.708000 0.820000 -0.206000
H328 H 0.631000 0.685000 -0.236000
H329 H 0.460000 0.774000 -0.177000
H330 H 0.306000 0.526000 -0.062000
H331 H 0.230000 0.399000 -0.111000
H332 H 0.357000 0.462000 -0.127000
H333 H 0.360000 0.332000 0.010000
H334 H 0.475000 0.374000 -0.011000
H335 H 0.409000 0.207000 -0.118000
H336 H 0.313000 0.160000 -0.070000
H337 H 0.567000 0.709000 -0.123000
H338 H 0.557000 0.994000 -0.155000
H339 H 0.669000 0.937000 -0.085000
H340 H 0.313000 0.160000 0.930000
H341 H 0.409000 0.207000 0.882000
H342 H 0.475000 0.374000 0.989000
H343 H 0.360000 0.332000 1.010000
H344 H 0.357000 0.462000 0.873000
H345 H 0.230000 0.399000 0.889000
H346 H 0.306000 0.526000 0.938000
H347 H 0.676000 0.054000 1.211000
H348 H 0.797000 0.140000 1.238000
H349 H 0.845000 -0.087000 1.267000
H350 H 0.930000 -0.051000 1.211000
H351 H 0.801000 -0.146000 1.192000
H352 H 0.991000 0.140000 1.193000
H353 H 1.049000 0.199000 1.123000
H354 H 0.912000 0.361000 1.211000
H355 H 0.970000 0.433000 1.142000
H356 H 1.062000 0.364000 1.224000
H357 H 0.927000 0.360000 0.948000
H358 H 1.010000 0.349000 1.031000
H359 H 0.669000 -0.063000 0.915000
H360 H 0.557000 -0.006000 0.845000
H361 H 0.567000 -0.291000 0.877000
H362 H 0.460000 -0.226000 0.823000
H363 H 0.631000 -0.315000 0.764000
H364 H 0.708000 -0.180000 0.794000
H365 H 0.600000 -0.138000 0.750000
H366 H 0.591000 -0.207000 1.118000
H367 H 0.687000 -0.160000 1.070000
H368 H 0.640000 -0.332000 0.990000
H369 H 0.525000 -0.374000 1.011000
H370 H 0.694000 -0.526000 1.062000
H371 H 0.770000 -0.399000 1.111000
H372 H 0.643000 -0.462000 1.127000
H373 H 0.210000 -0.234000 1.132000
H374 H 0.360000 -0.205000 1.142000
H375 H 0.244000 -0.476000 1.098000
H376 H 0.382000 -0.438000 1.106000
H377 H 0.316000 -0.432000 1.178000
H378 H -0.010000 -0.349000 0.969000
H379 H 0.073000 -0.360000 1.052000
H380 H -0.076000 -0.112000 0.991000
H381 H -0.110000 -0.220000 1.048000
H382 H 0.020000 -0.120000 1.073000
H383 H -0.049000 -0.199000 0.877000
H384 H 0.009000 -0.140000 0.807000
H385 H -0.062000 -0.364000 0.776000
H386 H 0.030000 -0.433000 0.858000
H387 H 0.088000 -0.361000 0.789000
H388 H 0.203000 -0.140000 0.762000
H389 H 0.324000 -0.054000 0.789000
H390 H 0.199000 0.146000 0.808000
H391 H 0.070000 0.051000 0.789000
H392 H 0.155000 0.087000 0.733000
H393 H 0.980000 0.120000 0.927000
H394 H 1.110000 0.220000 0.952000
H395 H 1.076000 0.112000 1.009000
H396 H 0.640000 0.205000 0.858000
H397 H 0.790000 0.234000 0.868000
H398 H 0.684000 0.432000 0.822000
H399 H 0.618000 0.438000 0.894000
H400 H 0.369000 0.315000 1.236000
H401 H 0.292000 0.180000 1.206000
H402 H 0.400000 0.138000 1.250000
H403 H 0.433000 0.291000 1.123000
H404 H 0.540000 0.226000 1.177000
H405 H 0.331000 0.063000 1.085000
H406 H 0.443000 0.006000 1.155000
H407 H 0.756000 0.476000 0.902000
H408 H 0.409000 1.207000 0.882000
C409 C 0.844400 0.228200 1.020040
C410 C 0.730900 0.212300 0.968520
C411 C 0.714400 0.258900 0.889000
C412 C 0.690600 0.411100 0.877000
C413 C 0.754500 0.119100 1.119580
C414 C 0.362000 0.228100 1.210500
C415 C 0.441900 0.214200 1.152800
C416 C 0.424200 0.079400 1.112010
C417 C 0.644200 0.105400 1.067660
C418 C 0.958000 0.288500 0.993000
C419 C 1.038900 0.178100 0.966000
C420 C 0.632500 0.151200 0.995910
C421 C 0.496400 0.103000 0.972970
C422 C 0.509500 0.047800 1.056600
C423 C 0.159400 0.061800 0.783400
C424 C 0.236200 -0.068400 0.801910
C425 C 0.976600 0.213700 1.148600
C426 C 0.978700 0.354900 1.182600
C427 C 0.021300 -0.354900 0.817400
C428 C 0.023400 -0.213700 0.851400
C429 C -0.038900 -0.178100 1.034000
C430 C 0.042000 -0.288500 1.007000
C431 C 0.309400 -0.411100 1.123000
C432 C 0.763800 0.068400 1.198090
C433 C 0.840600 -0.061800 1.216600
C434 C 0.285600 -0.258900 1.111000
C435 C 0.688600 -0.440500 1.083100
C436 C 0.603600 -0.342800 1.035400
C437 C 0.602500 -0.200400 1.066550
C438 C 0.638000 -0.228100 0.789500
C439 C 0.397500 0.200400 0.933450
C440 C 0.396400 0.342800 0.964600
C441 C 0.311400 0.440500 0.916900
C442 C 0.558100 -0.214200 0.847200
C443 C 0.575800 -0.079400 0.887990
C444 C 0.245500 -0.119100 0.880420
C445 C 0.144800 -0.184700 0.906140
C446 C 0.155600 -0.228200 0.979960
C447 C 0.269100 -0.212300 1.031480
C448 C 0.367500 -0.151200 1.004090
C449 C 0.490500 0.952200 -0.056600
C450 C 0.503600 0.897000 0.027030
C451 C 0.355800 0.894600 -0.067660
C452 C 0.367500 0.848800 0.004090
C453 C 0.269100 0.787700 0.031480
C454 C 0.155600 0.771800 -0.020040
C455 C 0.144800 0.815300 -0.093860
C456 C 0.245500 0.880900 -0.119580
C457 C 0.575800 0.920600 -0.112010
C458 C 0.558100 0.785800 -0.152800
C459 C 0.638000 0.771900 -0.210500
C460 C 0.602500 0.799600 0.066550
C461 C 0.603600 0.657200 0.035400
C462 C 0.688600 0.559500 0.083100
C463 C 0.285600 0.741100 0.111000
C464 C 0.309400 0.588900 0.123000
C465 C 0.042000 0.711500 0.007000
C466 C -0.038900 0.821900 0.034000
C467 C 0.023400 0.786300 -0.148600
C468 C 0.021300 0.645100 -0.182600
C469 C 0.236200 0.931600 -0.198090
C470 C 0.159400 1.061800 -0.216600
C471 C 0.355800 -0.105400 0.932340
C472 C 0.503600 -0.103000 1.027030
C473 C 0.490500 -0.047800 0.943400
C474 C 0.311400 0.440500 -0.083100
C475 C 0.396400 0.342800 -0.035400
C476 C 0.397500 0.200400 -0.066550
C477 C 0.840600 -0.061800 0.216600
C478 C 0.763800 0.068400 0.198090
C479 C 0.978700 0.354900 0.182600
C480 C 0.976600 0.213700 0.148600
C481 C 1.038900 0.178100 -0.034000
C482 C 0.958000 0.288500 -0.007000
C483 C 0.690600 0.411100 -0.123000
C484 C 0.714400 0.258900 -0.111000
C485 C 0.730900 0.212300 -0.031480
C486 C 0.844400 0.228200 0.020040
C487 C 0.855200 0.184700 0.093860
C488 C 0.754500 0.119100 0.119580
C489 C 0.362000 0.228100 0.210500
C490 C 0.441900 0.214200 0.152800
C491 C 0.424200 0.079400 0.112010
C492 C 0.644200 0.105400 0.067660
C493 C 0.632500 0.151200 -0.004090
C494 C 0.496400 0.103000 -0.027030
C495 C 0.509500 0.047800 0.056600
C496 C 0.159400 0.061800 -0.216600
C497 C 0.236200 -0.068400 -0.198090
C498 C 0.021300 -0.354900 -0.182600
C499 C 0.023400 -0.213700 -0.148600
C500 C -0.038900 -0.178100 0.034000
C501 C 0.042000 -0.288500 0.007000
C502 C 0.309400 -0.411100 0.123000
C503 C 0.285600 -0.258900 0.111000
C504 C 0.688600 -0.440500 0.083100
C505 C 0.509500 1.047800 0.056600
C506 C 0.496400 1.103000 -0.027030
C507 C 0.632500 1.151200 -0.004090
C508 C 0.644200 1.105400 0.067660
C509 C 0.424200 1.079400 0.112010
C510 C 0.441900 1.214200 0.152800
C511 C 0.362000 1.228100 0.210500
C512 C 0.603600 -0.342800 0.035400
C513 C 0.602500 -0.200400 0.066550
C514 C 0.638000 -0.228100 -0.210500
C515 C 0.558100 -0.214200 -0.152800
C516 C 0.575800 -0.079400 -0.112010
C517 C 0.245500 -0.119100 -0.119580
C518 C 0.144800 -0.184700 -0.093860
C519 C 0.754500 1.119100 0.119580
C520 C 0.855200 1.184700 0.093860
C521 C 0.844400 1.228200 0.020040
C522 C 0.730900 1.212300 -0.031480
C523 C 0.714400 1.258900 -0.111000
C524 C 0.690600 1.411100 -0.123000
C525 C 0.155600 -0.228200 -0.020040
C526 C 0.269100 -0.212300 0.031480
C527 C 0.367500 -0.151200 0.004090
C528 C 0.355800 -0.105400 -0.067660
C529 C 0.503600 -0.103000 0.027030
C530 C 0.958000 1.288500 -0.007000
C531 C 1.038900 1.178100 -0.034000
C532 C 0.490500 -0.047800 -0.056600
C533 C 1.188600 0.940500 0.583100
C534 C 1.103600 0.842800 0.535400
C535 C 1.102500 0.700400 0.566550
C536 C 0.659400 0.438200 0.283400
C537 C 0.976600 1.213700 0.148600
C538 C 0.978700 1.354900 0.182600
C539 C 0.736200 0.568400 0.301910
C540 C 0.521300 0.854900 0.317400
C541 C 0.523400 0.713700 0.351400
C542 C 0.461100 0.678100 0.534000
C543 C 0.542000 0.788500 0.507000
C544 C 0.763800 1.068400 0.198090
C545 C 0.840600 0.938200 0.216600
C546 C 0.809400 0.911100 0.623000
C547 C 0.785600 0.758900 0.611000
C548 C 0.769100 0.712300 0.531480
C549 C 0.655600 0.728200 0.479960
C550 C 0.644800 0.684700 0.406140
C551 C 0.397500 1.200400 -0.066550
C552 C 0.396400 1.342800 -0.035400
C553 C 0.311400 1.440500 -0.083100
C554 C 0.745500 0.619100 0.380420
C555 C 1.138000 0.728100 0.289500
C556 C 1.058100 0.714200 0.347200
C557 C 1.075800 0.579400 0.387990
C558 C 0.855800 0.605400 0.432340
C559 C 0.867500 0.651200 0.504090
C560 C 1.003600 0.603000 0.527030
C561 C 0.490500 0.952200 0.943400
C562 C 0.503600 0.897000 1.027030
C563 C 0.355800 0.894600 0.932340
C564 C 0.367500 0.848800 1.004090
C565 C 0.269100 0.787700 1.031480
C566 C 0.155600 0.771800 0.979960
C567 C 0.144800 0.815300 0.906140
C568 C 0.245500 0.880900 0.880420
C569 C 0.575800 0.920600 0.887990
C570 C 0.558100 0.785800 0.847200
C571 C 0.638000 0.771900 0.789500
C572 C 0.602500 0.799600 1.066550
C573 C 0.603600 0.657200 1.035400
C574 C 0.688600 0.559500 1.083100
C575 C 0.285600 0.741100 1.111000
C576 C 0.309400 0.588900 1.123000
C577 C 0.042000 0.711500 1.007000
C578 C -0.038900 0.821900 1.034000
C579 C 0.023400 0.786300 0.851400
C580 C 0.021300 0.645100 0.817400
C581 C 0.236200 0.931600 0.801910
C582 C 0.159400 1.061800 0.783400
C583 C 0.990500 0.547800 0.443400
C584 C 1.340600 0.561800 0.716600
C585 C 1.263800 0.431600 0.698090
C586 C 1.478700 0.145100 0.682600
C587 C 1.476600 0.286300 0.648600
C588 C 1.538900 0.321900 0.466000
C589 C 1.458000 0.211500 0.493000
C590 C 1.190600 0.088900 0.377000
C591 C 1.214400 0.241100 0.389000
C592 C 0.811400 0.059500 0.416900
C593 C 0.896400 0.157200 0.464600
C594 C 0.897500 0.299600 0.433450
C595 C 0.862000 0.271900 0.710500
C596 C 0.941900 0.285800 0.652800
C597 C 0.924200 0.420600 0.612010
C598 C 1.254500 0.380900 0.619580
C599 C 1.355200 0.315300 0.593860
C600 C 1.344400 0.271800 0.520040
C601 C 1.230900 0.287700 0.468520
C602 C 1.132500 0.348800 0.495910
C603 C 1.144200 0.394600 0.567660
C604 C 0.996400 0.397000 0.472970
C605 C 1.009500 0.452200 0.556600
C606 C 0.188600 0.940500 0.583100
C607 C 0.103600 0.842800 0.535400
C608 C 0.102500 0.700400 0.566550
C609 C -0.340600 0.438200 0.283400
C610 C -0.263800 0.568400 0.301910
C611 C -0.478700 0.854900 0.317400
C612 C -0.476600 0.713700 0.351400
C613 C -0.538900 0.678100 0.534000
C614 C -0.458000 0.788500 0.507000
C615 C -0.190600 0.911100 0.623000
C616 C -0.214400 0.758900 0.611000
C617 C 0.509500 1.047800 1.056600
C618 C 0.496400 1.103000 0.972970
C619 C 0.632500 1.151200 0.995910
C620 C 0.644200 1.105400 1.067660
C621 C 0.424200 1.079400 1.112010
C622 C 0.441900 1.214200 1.152800
C623 C 0.362000 1.228100 1.210500
C624 C -0.230900 0.712300 0.531480
C625 C -0.344400 0.728200 0.479960
C626 C -0.355200 0.684700 0.406140
C627 C -0.254500 0.619100 0.380420
C628 C 0.138000 0.728100 0.289500
C629 C 0.058100 0.714200 0.347200
C630 C 0.075800 0.579400 0.387990
C631 C 0.754500 1.119100 1.119580
C632 C 0.855200 1.184700 1.093860
C633 C 0.844400 1.228200 1.020040
C634 C 0.730900 1.212300 0.968520
C635 C 0.714400 1.258900 0.889000
C636 C 0.690600 1.411100 0.877000
C637 C -0.144200 0.605400 0.432340
C638 C -0.132500 0.651200 0.504090
C639 C 0.003600 0.603000 0.527030
C640 C -0.009500 0.547800 0.443400
C641 C 0.340600 0.561800 0.716600
C642 C 0.958000 1.288500 0.993000
C643 C 1.038900 1.178100 0.966000
C644 C 0.263800 0.431600 0.698090
C645 C 0.478700 0.145100 0.682600
C646 C 0.476600 0.286300 0.648600
C647 C 0.538900 0.321900 0.466000
C648 C 0.458000 0.211500 0.493000
C649 C 0.976600 1.213700 1.148600
C650 C 0.978700 1.354900 1.182600
C651 C 0.190600 0.088900 0.377000
C652 C 0.214400 0.241100 0.389000
C653 C -0.188600 0.059500 0.416900
C654 C -0.103600 0.157200 0.464600
C655 C -0.102500 0.299600 0.433450
C656 C 0.763800 1.068400 1.198090
C657 C 0.840600 0.938200 1.216600
C658 C -0.138000 0.271900 0.710500
C659 C -0.058100 0.285800 0.652800
C660 C -0.075800 0.420600 0.612010
C661 C 0.254500 0.380900 0.619580
C662 C 0.355200 0.315300 0.593860
C663 C 0.397500 1.200400 0.933450
C664 C 0.396400 1.342800 0.964600
C665 C 0.311400 1.440500 0.916900
C666 C 0.344400 0.271800 0.520040
C667 C 0.230900 0.287700 0.468520
C668 C 0.132500 0.348800 0.495910
C669 C 0.144200 0.394600 0.567660
C670 C -0.003600 0.397000 0.472970
C671 C 0.855200 0.184700 1.093860
C672 C 0.009500 0.452200 0.556600

#END
