./ACENEC_from_POSCAR.cif_generated_by_CrystalShift
_symmetry_cell_setting triclinic
_symmetry_space_group_name_H-M 'P 1'
loop_
_symmetry_equiv_pos_site_id
_symmetry_equiv_pos_as_xyz
1 x,y,z
_cell_length_a 28.774000
_cell_length_b 8.907000
_cell_length_c 6.089000
_cell_angle_alpha 90.000000
_cell_angle_beta 90.000000
_cell_angle_gamma 90.000000
_cell_volume 1560.549920
loop_
_atom_site_label
_atom_site_type_symbol
_atom_site_fract_x
_atom_site_fract_y
_atom_site_fract_z
H1 H 0.732200 1.105600 0.196200
H2 H 0.729600 0.785800 -0.233500
H3 H 0.003170 -0.391500 -0.012300
H4 H 0.027130 -0.244300 -0.037600
H5 H 0.721200 1.277300 0.218300
H6 H 0.711700 1.194100 -0.004200
H7 H 0.660390 0.865000 -0.077300
H8 H 0.557980 0.769200 -0.186800
H9 H 0.038470 -0.057900 0.371100
H10 H 0.561030 0.645600 -0.004700
H11 H 0.089600 -0.259800 0.440700
H12 H 0.624660 0.758300 0.317500
H13 H 0.137230 -0.357400 0.175100
H14 H 0.119460 -0.240200 0.002000
H15 H 0.573090 0.765200 0.406500
H16 H 0.600860 0.978800 0.569500
H17 H 0.177780 0.028700 0.399600
H18 H 0.677780 0.971300 0.399600
H19 H 0.100860 0.021200 0.569500
H20 H 0.619460 1.240200 0.002000
H21 H 0.073090 0.234800 0.406500
H22 H 0.124660 0.241700 0.317500
H23 H 0.637230 1.357400 0.175100
H24 H 0.061030 0.354400 -0.004700
H25 H 0.057980 0.230800 -0.186800
H26 H 0.589600 1.259800 0.440700
H27 H 0.538470 1.057900 0.371100
H28 H 0.160390 0.135000 -0.077300
H29 H 0.669600 0.405000 -0.416400
H30 H 0.229600 0.214200 -0.233500
H31 H 0.527130 1.244300 -0.037600
H32 H 0.234300 0.448600 -0.391600
H33 H 0.503170 1.391500 -0.012300
H34 H 0.169600 0.595000 -0.416400
H35 H 0.267800 -0.105600 0.696200
H36 H 0.100300 0.518200 -0.266300
H37 H 0.278800 -0.277300 0.718300
H38 H 0.288300 -0.194100 0.495800
H39 H 0.211700 -0.194100 -0.004200
H40 H 0.221200 -0.277300 0.218300
H41 H 0.232200 -0.105600 0.196200
H42 H 0.399700 0.518200 0.233700
H43 H 0.330400 0.595000 0.083600
H44 H 0.996830 1.391500 0.487700
H45 H 0.972870 1.244300 0.462400
H46 H 0.265700 0.448600 0.108400
H47 H 0.270400 0.214200 0.266500
H48 H 0.339610 0.135000 0.422700
H49 H 0.442020 0.230800 0.313200
H50 H 0.961530 1.057900 0.871100
H51 H 0.438970 0.354400 0.495300
H52 H 0.910400 1.259800 0.940700
H53 H 0.375340 0.241700 0.817500
H54 H 0.862770 1.357400 0.675100
H55 H 0.880540 1.240200 0.502000
H56 H 0.426910 0.234800 0.906500
H57 H 0.399140 0.021200 1.069500
H58 H 0.822220 0.971300 0.899600
H59 H 0.322220 0.028700 0.899600
H60 H 0.899140 0.978800 1.069500
H61 H 0.380540 -0.240200 0.502000
H62 H 0.926910 0.765200 0.906500
H63 H 0.875340 0.758300 0.817500
H64 H 0.362770 -0.357400 0.675100
H65 H 0.938970 0.645600 0.495300
H66 H 0.942020 0.769200 0.313200
H67 H 0.410400 -0.259800 0.940700
H68 H 0.461530 -0.057900 0.871100
H69 H 0.839610 0.865000 0.422700
H70 H 0.600300 0.481800 -0.266300
H71 H 0.770400 0.785800 0.266500
H72 H 0.472870 -0.244300 0.462400
H73 H 0.765700 0.551400 0.108400
H74 H 0.496830 -0.391500 0.487700
H75 H 0.830400 0.405000 0.083600
H76 H 0.767800 1.105600 0.696200
H77 H 0.899700 0.481800 0.233700
H78 H 0.734300 0.551400 -0.391600
H79 H 0.778800 1.277300 0.718300
H80 H 0.788300 1.194100 0.495800
C81 C 0.788580 1.184400 0.652900
C82 C 0.873700 0.543900 0.242000
C83 C 0.706200 0.585300 -0.334500
C84 C 0.703600 0.723900 -0.237700
C85 C 0.832200 0.497800 0.153200
C86 C 0.793800 0.585300 0.165500
C87 C 0.796400 0.723900 0.262300
C88 C 0.626300 0.543900 -0.258000
C89 C 0.436270 0.012200 0.574500
C90 C 0.432130 -0.068500 0.791300
C91 C 0.837990 0.771900 0.353900
C92 C 0.418490 -0.234800 0.788700
C93 C 0.877030 0.681600 0.343000
C94 C 0.373980 -0.255500 0.656700
C95 C 0.923160 0.732000 0.433500
C96 C 0.903660 0.817300 0.819900
C97 C 0.337030 -0.147400 0.728600
C98 C 0.347120 -0.028000 0.848600
C99 C 0.894690 0.975600 0.910000
C100 C 0.394690 0.024400 0.910000
C101 C 0.847120 1.028000 0.848600
C102 C 0.403660 0.182700 0.819900
C103 C 0.837030 1.147400 0.728600
C104 C 0.873980 1.255500 0.656700
C105 C 0.423160 0.268000 0.433500
C106 C 0.918490 1.234800 0.788700
C107 C 0.932130 1.068500 0.791300
C108 C 0.377030 0.318400 0.343000
C109 C 0.337990 0.228100 0.353900
C110 C 0.936270 0.987800 0.574500
C111 C 0.296400 0.276100 0.262300
C112 C 0.545170 1.349200 0.220000
C113 C 0.293800 0.414700 0.165500
C114 C 0.711420 1.184400 0.152900
C115 C 0.332200 0.502200 0.153200
C116 C 0.063730 0.012200 0.074500
C117 C 0.373700 0.456100 0.242000
C118 C 0.954830 1.349200 0.720000
C119 C 0.454830 -0.349200 0.720000
C120 C 0.288580 -0.184400 0.652900
C121 C 0.211420 -0.184400 0.152900
C122 C 0.045170 -0.349200 0.220000
C123 C 0.126300 0.456100 -0.258000
C124 C 0.662010 0.771900 -0.146100
C125 C 0.622970 0.681600 -0.157000
C126 C 0.167800 0.502200 -0.346800
C127 C 0.206200 0.414700 -0.334500
C128 C 0.203600 0.276100 -0.237700
C129 C 0.667800 0.497800 -0.346800
C130 C 0.563730 0.987800 0.074500
C131 C 0.567870 1.068500 0.291300
C132 C 0.162010 0.228100 -0.146100
C133 C 0.581510 1.234800 0.288700
C134 C 0.122970 0.318400 -0.157000
C135 C 0.626020 1.255500 0.156700
C136 C 0.076840 0.268000 -0.066500
C137 C 0.096340 0.182700 0.319900
C138 C 0.662970 1.147400 0.228600
C139 C 0.652880 1.028000 0.348600
C140 C 0.105310 0.024400 0.410000
C141 C 0.605310 0.975600 0.410000
C142 C 0.152880 -0.028000 0.348600
C143 C 0.596340 0.817300 0.319900
C144 C 0.162970 -0.147400 0.228600
C145 C 0.126020 -0.255500 0.156700
C146 C 0.576840 0.732000 -0.066500
C147 C 0.081510 -0.234800 0.288700
C148 C 0.067870 -0.068500 0.291300
N149 N 0.579670 0.846900 0.099300
N150 N 0.977460 1.325600 0.535400
N151 N 0.477460 -0.325600 0.535400
N152 N 0.022540 -0.325600 0.035400
N153 N 0.420330 0.153100 0.599300
N154 N 0.920330 0.846900 0.599300
N155 N 0.522540 1.325600 0.035400
N156 N 0.079670 0.153100 0.099300
O157 O 0.547350 1.036600 -0.098900
O158 O 0.460170 -0.462800 0.829300
O159 O 0.452650 -0.036600 0.401100
O160 O 0.960170 1.462800 0.829300
O161 O 0.952650 1.036600 0.401100
O162 O 0.039830 -0.462800 0.329300
O163 O 0.047350 -0.036600 -0.098900
O164 O 0.539830 1.462800 0.329300

#END
