./ACEPUT_from_POSCAR.cif_generated_by_CrystalShift
_symmetry_cell_setting triclinic
_symmetry_space_group_name_H-M 'P 1'
loop_
_symmetry_equiv_pos_site_id
_symmetry_equiv_pos_as_xyz
1 x,y,z
_cell_length_a 10.076100
_cell_length_b 10.523200
_cell_length_c 10.843500
_cell_angle_alpha 62.939000
_cell_angle_beta 86.764000
_cell_angle_gamma 67.871000
_cell_volume 939.222255
loop_
_atom_site_label
_atom_site_type_symbol
_atom_site_fract_x
_atom_site_fract_y
_atom_site_fract_z
H1 H 0.849600 0.440300 0.906300
H2 H 0.498000 -0.411900 0.783300
H3 H 0.288500 0.027900 0.027900
H4 H 0.229500 0.325700 0.555300
H5 H 0.431900 -0.362200 0.559900
H6 H 0.568100 1.362200 0.440100
H7 H 0.253600 0.272400 -0.146200
H8 H 0.153400 0.502500 0.320100
H9 H 0.150400 0.559700 0.093700
H10 H 0.711500 0.972100 0.972100
H11 H 0.746400 0.727600 1.146200
H12 H 0.502000 1.411900 0.216700
H13 H 0.324700 0.087800 0.736600
H14 H 0.846600 0.497500 0.679900
H15 H 0.770500 0.674300 0.444700
H16 H 0.675300 0.912200 0.263400
C17 C 0.691100 0.900200 0.352400
C18 C 0.686500 1.010700 0.507300
C19 C 0.747400 0.759200 0.460900
C20 C 0.655100 1.032900 0.372800
C21 C 0.774100 0.730600 0.598400
C22 C 0.744300 0.855700 0.627300
C23 C 0.819300 0.577300 0.703900
C24 C 0.209400 0.337500 0.120800
C25 C 0.824200 0.543000 0.838100
C26 C 0.597300 1.183500 0.259900
C27 C 0.790600 0.662500 0.879200
C28 C 0.757100 0.818500 0.771600
C29 C 0.787100 0.632400 1.017200
C30 C 0.754100 0.746700 1.054000
C31 C 0.553700 1.311100 0.286100
C32 C 0.732600 0.893000 0.947900
C33 C 0.242900 0.181500 0.228400
C34 C 0.887900 1.146200 0.819300
C35 C 0.835800 1.298700 0.558100
C36 C 0.967200 0.993900 0.666600
C37 C 0.212900 0.367600 -0.017200
C38 C 0.175800 0.457000 0.161900
C39 C 0.245900 0.253300 -0.054000
C40 C 0.180700 0.422700 0.296100
C41 C 0.408000 -0.278300 0.577700
C42 C 0.592000 1.278300 0.422300
C43 C 0.255700 0.144300 0.372700
C44 C 0.225900 0.269400 0.401600
C45 C 0.267400 0.107000 0.052100
C46 C 0.252600 0.240800 0.539100
C47 C 0.446300 -0.311100 0.713900
C48 C 0.112100 -0.146200 0.180700
C49 C 0.402700 -0.183500 0.740100
C50 C 0.032800 0.006100 0.333400
C51 C 0.344900 -0.032900 0.627200
C52 C 0.313500 -0.010700 0.492700
C53 C 0.308900 0.099800 0.647600
C54 C 0.164200 -0.298700 0.441900
N55 N 0.341000 -0.138700 0.472600
N56 N 0.739800 0.929600 0.813700
N57 N 0.260200 0.070400 0.186300
N58 N 0.659000 1.138700 0.527400
O59 O 0.948200 1.162300 0.899100
O60 O 0.051800 -0.162300 0.100900
O61 O 0.130200 -0.398300 0.524300
O62 O 0.869800 1.398300 0.475700
O63 O 1.071300 0.909100 0.657900
O64 O -0.071300 0.090900 0.342100
Cl65 Cl 0.578500 1.218700 0.088400
Cl66 Cl 0.176000 0.556600 -0.149600
Cl67 Cl 0.421500 -0.218700 0.911600
Cl68 Cl 0.824000 0.443400 1.149600
Br69 Br 0.544400 1.297620 0.733700
Br70 Br 0.455600 -0.297620 0.266300
Re71 Re 0.211420 -0.134040 0.313380
Re72 Re 0.788580 1.134040 0.686620

#END
