./KAGXIC_from_xyz.cif_generated_by_CrystalShift
_symmetry_cell_setting triclinic
_symmetry_space_group_name_H-M 'P 1'
loop_
_symmetry_equiv_pos_site_id
_symmetry_equiv_pos_as_xyz
1 x,y,z
_cell_length_a 11.409300
_cell_length_b 5.774900
_cell_length_c 14.746900
_cell_angle_alpha 90.000000
_cell_angle_beta 96.300000
_cell_angle_gamma 90.000000
_cell_volume 965.769606
loop_
_atom_site_label
_atom_site_type_symbol
_atom_site_fract_x
_atom_site_fract_y
_atom_site_fract_z
F1 F 0.338890 0.964200 0.534240
F2 F 0.163310 1.006400 0.472590
F3 F 0.235970 1.239000 0.575820
O4 O -0.018280 0.408900 0.626220
H5 H -0.042000 0.311000 0.674000
O6 O 0.066450 0.579000 0.752080
C7 C 0.048170 0.570700 0.669530
C8 C 0.096500 0.731100 0.604930
H9 H 0.058100 0.739400 0.546000
C10 C 0.190450 0.864200 0.624880
C11 C 0.230400 1.016700 0.551310
C12 C 0.268600 0.869100 0.712970
C13 C 0.347400 0.689200 0.733610
H14 H 0.349300 0.565700 0.693300
C15 C 0.422600 0.691400 0.812820
H16 H 0.475300 0.569900 0.825800
C17 C 0.420500 0.870600 0.872600
H18 H 0.471300 0.870600 0.926400
C19 C 0.343800 1.050500 0.853700
H20 H 0.342800 1.172800 0.894700
C21 C 0.267200 1.051900 0.773580
H22 H 0.215300 1.174800 0.760800
F23 F 0.661110 0.464200 0.965760
F24 F 0.836690 0.506400 1.027410
F25 F 0.764030 0.739000 0.924180
O26 O 1.018280 -0.091100 0.873780
H27 H 1.042000 -0.189000 0.826000
O28 O 0.933550 0.079000 0.747920
C29 C 0.951830 0.070700 0.830470
C30 C 0.903500 0.231100 0.895070
H31 H 0.941900 0.239400 0.954000
C32 C 0.809550 0.364200 0.875120
C33 C 0.769600 0.516700 0.948690
C34 C 0.731400 0.369100 0.787030
C35 C 0.652600 0.189200 0.766390
H36 H 0.650700 0.065700 0.806700
C37 C 0.577400 0.191400 0.687180
H38 H 0.524700 0.069900 0.674200
C39 C 0.579500 0.370600 0.627400
H40 H 0.528700 0.370600 0.573600
C41 C 0.656200 0.550500 0.646300
H42 H 0.657200 0.672800 0.605300
C43 C 0.732800 0.551900 0.726420
H44 H 0.784700 0.674800 0.739200
F45 F 0.661110 0.035800 0.465760
F46 F 0.836690 -0.006400 0.527410
F47 F 0.764030 -0.239000 0.424180
O48 O 1.018280 0.591100 0.373780
H49 H 1.042000 0.689000 0.326000
O50 O 0.933550 0.421000 0.247920
C51 C 0.951830 0.429300 0.330470
C52 C 0.903500 0.268900 0.395070
H53 H 0.941900 0.260600 0.454000
C54 C 0.809550 0.135800 0.375120
C55 C 0.769600 -0.016700 0.448690
C56 C 0.731400 0.130900 0.287030
C57 C 0.652600 0.310800 0.266390
H58 H 0.650700 0.434300 0.306700
C59 C 0.577400 0.308600 0.187180
H60 H 0.524700 0.430100 0.174200
C61 C 0.579500 0.129400 0.127400
H62 H 0.528700 0.129400 0.073600
C63 C 0.656200 -0.050500 0.146300
H64 H 0.657200 -0.172800 0.105300
C65 C 0.732800 -0.051900 0.226420
H66 H 0.784700 -0.174800 0.239200
F67 F 0.338890 0.535800 0.034240
F68 F 0.163310 0.493600 -0.027410
F69 F 0.235970 0.261000 0.075820
O70 O -0.018280 1.091100 0.126220
H71 H -0.042000 1.189000 0.174000
O72 O 0.066450 0.921000 0.252080
C73 C 0.048170 0.929300 0.169530
C74 C 0.096500 0.768900 0.104930
H75 H 0.058100 0.760600 0.046000
C76 C 0.190450 0.635800 0.124880
C77 C 0.230400 0.483300 0.051310
C78 C 0.268600 0.630900 0.212970
C79 C 0.347400 0.810800 0.233610
H80 H 0.349300 0.934300 0.193300
C81 C 0.422600 0.808600 0.312820
H82 H 0.475300 0.930100 0.325800
C83 C 0.420500 0.629400 0.372600
H84 H 0.471300 0.629400 0.426400
C85 C 0.343800 0.449500 0.353700
H86 H 0.342800 0.327200 0.394700
C87 C 0.267200 0.448100 0.273580
H88 H 0.215300 0.325200 0.260800

#END
