./KAGZAW_from_xyz.cif_generated_by_CrystalShift
_symmetry_cell_setting triclinic
_symmetry_space_group_name_H-M 'P 1'
loop_
_symmetry_equiv_pos_site_id
_symmetry_equiv_pos_as_xyz
1 x,y,z
_cell_length_a 7.463000
_cell_length_b 7.827000
_cell_length_c 11.790000
_cell_angle_alpha 90.000000
_cell_angle_beta 93.233000
_cell_angle_gamma 90.000000
_cell_volume 687.592043
loop_
_atom_site_label
_atom_site_type_symbol
_atom_site_fract_x
_atom_site_fract_y
_atom_site_fract_z
Cl1 Cl 0.473930 0.218160 0.571810
Cl2 Cl 0.456310 0.443000 0.137630
N3 N 0.206600 0.483200 0.277500
N4 N 0.215300 0.388200 0.469500
C5 C 0.138300 0.465700 0.378400
H6 H 0.025100 0.512300 0.386500
C7 C 0.374400 0.322500 0.454400
C8 C 0.465900 0.330900 0.354600
C9 C 0.365000 0.417500 0.268500
C10 C 0.646400 0.255300 0.342600
H11 H 0.704100 0.312100 0.282300
H12 H 0.634400 0.135900 0.325200
H13 H 0.717500 0.269200 0.412400
Cl14 Cl 0.026070 0.718160 -0.071810
Cl15 Cl 0.043690 0.943000 0.362370
N16 N 0.293400 0.983200 0.222500
N17 N 0.284700 0.888200 0.030500
C18 C 0.361700 0.965700 0.121600
H19 H 0.474900 1.012300 0.113500
C20 C 0.125600 0.822500 0.045600
C21 C 0.034100 0.830900 0.145400
C22 C 0.135000 0.917500 0.231500
C23 C -0.146400 0.755300 0.157400
H24 H -0.204100 0.812100 0.217700
H25 H -0.134400 0.635900 0.174800
H26 H -0.217500 0.769200 0.087600
Cl27 Cl 0.526070 0.781840 0.428190
Cl28 Cl 0.543690 0.557000 0.862370
N29 N 0.793400 0.516800 0.722500
N30 N 0.784700 0.611800 0.530500
C31 C 0.861700 0.534300 0.621600
H32 H 0.974900 0.487700 0.613500
C33 C 0.625600 0.677500 0.545600
C34 C 0.534100 0.669100 0.645400
C35 C 0.635000 0.582500 0.731500
C36 C 0.353600 0.744700 0.657400
H37 H 0.295900 0.687900 0.717700
H38 H 0.365600 0.864100 0.674800
H39 H 0.282500 0.730800 0.587600
Cl40 Cl 0.973930 0.281840 1.071810
Cl41 Cl 0.956310 0.057000 0.637630
N42 N 0.706600 0.016800 0.777500
N43 N 0.715300 0.111800 0.969500
C44 C 0.638300 0.034300 0.878400
H45 H 0.525100 -0.012300 0.886500
C46 C 0.874400 0.177500 0.954400
C47 C 0.965900 0.169100 0.854600
C48 C 0.865000 0.082500 0.768500
C49 C 1.146400 0.244700 0.842600
H50 H 1.204100 0.187900 0.782300
H51 H 1.134400 0.364100 0.825200
H52 H 1.217500 0.230800 0.912400

#END
