./KAHCEC_from_xyz.cif_generated_by_CrystalShift
_symmetry_cell_setting triclinic
_symmetry_space_group_name_H-M 'P 1'
loop_
_symmetry_equiv_pos_site_id
_symmetry_equiv_pos_as_xyz
1 x,y,z
_cell_length_a 19.049000
_cell_length_b 5.477900
_cell_length_c 15.536000
_cell_angle_alpha 90.000000
_cell_angle_beta 98.790000
_cell_angle_gamma 90.000000
_cell_volume 1602.118192
loop_
_atom_site_label
_atom_site_type_symbol
_atom_site_fract_x
_atom_site_fract_y
_atom_site_fract_z
Br1 Br 0.042449 1.088740 0.895665
O2 O 0.208070 0.945900 0.922890
C3 C 0.268510 0.940400 0.884630
C4 C 0.158170 0.751500 0.902710
H5 H 0.180100 0.594000 0.923300
H6 H 0.143000 0.741000 0.839000
C7 C 0.095400 0.804700 0.947640
H8 H 0.112000 0.836300 1.010200
H9 H 0.063700 0.660700 0.943100
C10 C 0.315580 1.132900 0.906240
H11 H 0.304800 1.256100 0.945200
C12 C 0.393640 0.963000 0.813370
H13 H 0.436500 0.970200 0.789300
C14 C 0.283420 0.759500 0.827160
H15 H 0.251200 0.628400 0.812100
C16 C 0.346560 0.774200 0.791950
H17 H 0.357200 0.651800 0.752600
C18 C 0.377820 1.145300 0.871220
H19 H 0.409900 1.276600 0.886200
Br20 Br 0.542449 0.588740 0.895665
O21 O 0.708070 0.445900 0.922890
C22 C 0.768510 0.440400 0.884630
C23 C 0.658170 0.251500 0.902710
H24 H 0.680100 0.094000 0.923300
H25 H 0.643000 0.241000 0.839000
C26 C 0.595400 0.304700 0.947640
H27 H 0.612000 0.336300 1.010200
H28 H 0.563700 0.160700 0.943100
C29 C 0.815580 0.632900 0.906240
H30 H 0.804800 0.756100 0.945200
C31 C 0.893640 0.463000 0.813370
H32 H 0.936500 0.470200 0.789300
C33 C 0.783420 0.259500 0.827160
H34 H 0.751200 0.128400 0.812100
C35 C 0.846560 0.274200 0.791950
H36 H 0.857200 0.151800 0.752600
C37 C 0.877820 0.645300 0.871220
H38 H 0.909900 0.776600 0.886200
Br39 Br 0.042449 -0.088740 0.395665
O40 O 0.208070 0.054100 0.422890
C41 C 0.268510 0.059600 0.384630
C42 C 0.158170 0.248500 0.402710
H43 H 0.180100 0.406000 0.423300
H44 H 0.143000 0.259000 0.339000
C45 C 0.095400 0.195300 0.447640
H46 H 0.112000 0.163700 0.510200
H47 H 0.063700 0.339300 0.443100
C48 C 0.315580 -0.132900 0.406240
H49 H 0.304800 -0.256100 0.445200
C50 C 0.393640 0.037000 0.313370
H51 H 0.436500 0.029800 0.289300
C52 C 0.283420 0.240500 0.327160
H53 H 0.251200 0.371600 0.312100
C54 C 0.346560 0.225800 0.291950
H55 H 0.357200 0.348200 0.252600
C56 C 0.377820 -0.145300 0.371220
H57 H 0.409900 -0.276600 0.386200
Br58 Br 0.542449 0.411260 0.395665
O59 O 0.708070 0.554100 0.422890
C60 C 0.768510 0.559600 0.384630
C61 C 0.658170 0.748500 0.402710
H62 H 0.680100 0.906000 0.423300
H63 H 0.643000 0.759000 0.339000
C64 C 0.595400 0.695300 0.447640
H65 H 0.612000 0.663700 0.510200
H66 H 0.563700 0.839300 0.443100
C67 C 0.815580 0.367100 0.406240
H68 H 0.804800 0.243900 0.445200
C69 C 0.893640 0.537000 0.313370
H70 H 0.936500 0.529800 0.289300
C71 C 0.783420 0.740500 0.327160
H72 H 0.751200 0.871600 0.312100
C73 C 0.846560 0.725800 0.291950
H74 H 0.857200 0.848200 0.252600
C75 C 0.877820 0.354700 0.371220
H76 H 0.909900 0.223400 0.386200
Br77 Br 0.957551 -0.088740 0.104335
O78 O 0.791930 0.054100 0.077110
C79 C 0.731490 0.059600 0.115370
C80 C 0.841830 0.248500 0.097290
H81 H 0.819900 0.406000 0.076700
H82 H 0.857000 0.259000 0.161000
C83 C 0.904600 0.195300 0.052360
H84 H 0.888000 0.163700 -0.010200
H85 H 0.936300 0.339300 0.056900
C86 C 0.684420 -0.132900 0.093760
H87 H 0.695200 -0.256100 0.054800
C88 C 0.606360 0.037000 0.186630
H89 H 0.563500 0.029800 0.210700
C90 C 0.716580 0.240500 0.172840
H91 H 0.748800 0.371600 0.187900
C92 C 0.653440 0.225800 0.208050
H93 H 0.642800 0.348200 0.247400
C94 C 0.622180 -0.145300 0.128780
H95 H 0.590100 -0.276600 0.113800
Br96 Br 0.457551 0.411260 0.104335
O97 O 0.291930 0.554100 0.077110
C98 C 0.231490 0.559600 0.115370
C99 C 0.341830 0.748500 0.097290
H100 H 0.319900 0.906000 0.076700
H101 H 0.357000 0.759000 0.161000
C102 C 0.404600 0.695300 0.052360
H103 H 0.388000 0.663700 -0.010200
H104 H 0.436300 0.839300 0.056900
C105 C 0.184420 0.367100 0.093760
H106 H 0.195200 0.243900 0.054800
C107 C 0.106360 0.537000 0.186630
H108 H 0.063500 0.529800 0.210700
C109 C 0.216580 0.740500 0.172840
H110 H 0.248800 0.871600 0.187900
C111 C 0.153440 0.725800 0.208050
H112 H 0.142800 0.848200 0.247400
C113 C 0.122180 0.354700 0.128780
H114 H 0.090100 0.223400 0.113800
Br115 Br 0.957551 1.088740 0.604335
O116 O 0.791930 0.945900 0.577110
C117 C 0.731490 0.940400 0.615370
C118 C 0.841830 0.751500 0.597290
H119 H 0.819900 0.594000 0.576700
H120 H 0.857000 0.741000 0.661000
C121 C 0.904600 0.804700 0.552360
H122 H 0.888000 0.836300 0.489800
H123 H 0.936300 0.660700 0.556900
C124 C 0.684420 1.132900 0.593760
H125 H 0.695200 1.256100 0.554800
C126 C 0.606360 0.963000 0.686630
H127 H 0.563500 0.970200 0.710700
C128 C 0.716580 0.759500 0.672840
H129 H 0.748800 0.628400 0.687900
C130 C 0.653440 0.774200 0.708050
H131 H 0.642800 0.651800 0.747400
C132 C 0.622180 1.145300 0.628780
H133 H 0.590100 1.276600 0.613800
Br134 Br 0.457551 0.588740 0.604335
O135 O 0.291930 0.445900 0.577110
C136 C 0.231490 0.440400 0.615370
C137 C 0.341830 0.251500 0.597290
H138 H 0.319900 0.094000 0.576700
H139 H 0.357000 0.241000 0.661000
C140 C 0.404600 0.304700 0.552360
H141 H 0.388000 0.336300 0.489800
H142 H 0.436300 0.160700 0.556900
C143 C 0.184420 0.632900 0.593760
H144 H 0.195200 0.756100 0.554800
C145 C 0.106360 0.463000 0.686630
H146 H 0.063500 0.470200 0.710700
C147 C 0.216580 0.259500 0.672840
H148 H 0.248800 0.128400 0.687900
C149 C 0.153440 0.274200 0.708050
H150 H 0.142800 0.151800 0.747400
C151 C 0.122180 0.645300 0.628780
H152 H 0.090100 0.776600 0.613800

#END
