./KAHJUA_from_xyz.cif_generated_by_CrystalShift
_symmetry_cell_setting triclinic
_symmetry_space_group_name_H-M 'P 1'
loop_
_symmetry_equiv_pos_site_id
_symmetry_equiv_pos_as_xyz
1 x,y,z
_cell_length_a 17.797000
_cell_length_b 8.102000
_cell_length_c 20.035000
_cell_angle_alpha 90.000000
_cell_angle_beta 109.269000
_cell_angle_gamma 90.000000
_cell_volume 2727.036881
loop_
_atom_site_label
_atom_site_type_symbol
_atom_site_fract_x
_atom_site_fract_y
_atom_site_fract_z
S1 S 0.080760 0.286600 0.045350
O2 O -0.175300 0.505700 0.386000
O3 O -0.209900 0.476300 0.269100
O4 O 0.178100 -0.038200 0.590500
O5 O 0.285100 -0.046700 0.555600
C6 C -0.003000 0.220500 0.066400
C7 C -0.065200 0.148700 0.011400
C8 C -0.133800 0.099900 0.023600
C9 C -0.143000 0.134400 0.088100
C10 C -0.080200 0.203900 0.142100
C11 C -0.005900 0.241600 0.134100
C12 C 0.059100 0.312100 0.193500
C13 C 0.110600 0.435100 0.177500
C14 C 0.157000 0.543900 0.230700
C15 C 0.207100 0.658700 0.213500
C16 C 0.212500 0.664200 0.146800
C17 C 0.169800 0.552600 0.095200
C18 C 0.120000 0.437400 0.109800
C19 C 0.069200 0.279500 0.263700
C20 C 0.041900 0.123500 0.287100
C21 C 0.033300 -0.020200 0.245800
C22 C 0.004800 -0.165700 0.264500
C23 C -0.015900 -0.168200 0.326000
C24 C -0.001100 -0.031500 0.369100
C25 C 0.030600 0.114900 0.352800
C26 C 0.051500 0.255800 0.405500
C27 C 0.101600 0.389300 0.385900
C28 C 0.137700 0.508800 0.435200
C29 C 0.181300 0.637100 0.419700
C30 C 0.187500 0.649500 0.353500
C31 C 0.151800 0.534300 0.301700
C32 C 0.109000 0.398300 0.317800
C33 C -0.027100 0.335900 0.408000
C34 C -0.082400 0.385800 0.335600
C35 C -0.159600 0.464200 0.335800
C36 C -0.287600 0.548500 0.261900
C37 C 0.096300 0.186200 0.479900
C38 C 0.176600 0.107800 0.485800
C39 C 0.210800 0.004700 0.549700
C40 C 0.324800 -0.152700 0.614800
H41 H -0.060060 0.133790 -0.033980
H42 H -0.174370 0.043040 -0.011960
H43 H -0.191970 0.110800 0.095490
H44 H -0.087470 0.227040 0.186020
H45 H 0.237600 0.733400 0.248510
H46 H 0.245570 0.744310 0.135730
H47 H 0.174910 0.555810 0.049540
H48 H 0.047390 -0.017220 0.204050
H49 H -0.000550 -0.261800 0.236140
H50 H -0.040020 -0.263330 0.337950
H51 H -0.012930 -0.036740 0.411900
H52 H 0.132700 0.503270 0.480930
H53 H 0.206680 0.716080 0.454940
H54 H 0.216610 0.738310 0.342980
H55 H -0.055000 0.256570 0.429310
H56 H -0.013990 0.434690 0.438820
H57 H -0.054140 0.464580 0.314490
H58 H -0.095110 0.286710 0.305000
H59 H -0.314900 0.479400 0.286880
H60 H -0.319690 0.554830 0.211770
H61 H -0.280130 0.659660 0.282380
H62 H 0.105230 0.276640 0.514900
H63 H 0.062410 0.102260 0.491940
H64 H 0.169870 0.038750 0.443440
H65 H 0.214880 0.196690 0.485970
H66 H 0.330220 -0.094690 0.659090
H67 H 0.377660 -0.181940 0.613380
H68 H 0.293360 -0.253360 0.612120
S69 S 0.419240 0.786600 0.454650
O70 O 0.675300 1.005700 0.114000
O71 O 0.709900 0.976300 0.230900
O72 O 0.321900 0.461800 -0.090500
O73 O 0.214900 0.453300 -0.055600
C74 C 0.503000 0.720500 0.433600
C75 C 0.565200 0.648700 0.488600
C76 C 0.633800 0.599900 0.476400
C77 C 0.643000 0.634400 0.411900
C78 C 0.580200 0.703900 0.357900
C79 C 0.505900 0.741600 0.365900
C80 C 0.440900 0.812100 0.306500
C81 C 0.389400 0.935100 0.322500
C82 C 0.343000 1.043900 0.269300
C83 C 0.292900 1.158700 0.286500
C84 C 0.287500 1.164200 0.353200
C85 C 0.330200 1.052600 0.404800
C86 C 0.380000 0.937400 0.390200
C87 C 0.430800 0.779500 0.236300
C88 C 0.458100 0.623500 0.212900
C89 C 0.466700 0.479800 0.254200
C90 C 0.495200 0.334300 0.235500
C91 C 0.515900 0.331800 0.174000
C92 C 0.501100 0.468500 0.130900
C93 C 0.469400 0.614900 0.147200
C94 C 0.448500 0.755800 0.094500
C95 C 0.398400 0.889300 0.114100
C96 C 0.362300 1.008800 0.064800
C97 C 0.318700 1.137100 0.080300
C98 C 0.312500 1.149500 0.146500
C99 C 0.348200 1.034300 0.198300
C100 C 0.391000 0.898300 0.182200
C101 C 0.527100 0.835900 0.092000
C102 C 0.582400 0.885800 0.164400
C103 C 0.659600 0.964200 0.164200
C104 C 0.787600 1.048500 0.238100
C105 C 0.403700 0.686200 0.020100
C106 C 0.323400 0.607800 0.014200
C107 C 0.289200 0.504700 -0.049700
C108 C 0.175200 0.347300 -0.114800
H109 H 0.560060 0.633790 0.533980
H110 H 0.674370 0.543040 0.511960
H111 H 0.691970 0.610800 0.404510
H112 H 0.587470 0.727040 0.313980
H113 H 0.262400 1.233400 0.251490
H114 H 0.254430 1.244310 0.364270
H115 H 0.325090 1.055810 0.450460
H116 H 0.452610 0.482780 0.295950
H117 H 0.500550 0.238200 0.263860
H118 H 0.540020 0.236670 0.162050
H119 H 0.512930 0.463260 0.088100
H120 H 0.367300 1.003270 0.019070
H121 H 0.293320 1.216080 0.045060
H122 H 0.283390 1.238310 0.157020
H123 H 0.555000 0.756570 0.070690
H124 H 0.513990 0.934690 0.061180
H125 H 0.554140 0.964580 0.185510
H126 H 0.595110 0.786710 0.195000
H127 H 0.814900 0.979400 0.213120
H128 H 0.819690 1.054830 0.288230
H129 H 0.780130 1.159660 0.217620
H130 H 0.394770 0.776640 -0.014900
H131 H 0.437590 0.602260 0.008060
H132 H 0.330130 0.538750 0.056560
H133 H 0.285120 0.696690 0.014030
H134 H 0.169780 0.405310 -0.159090
H135 H 0.122340 0.318060 -0.113380
H136 H 0.206640 0.246640 -0.112120
S137 S 0.919240 0.713400 0.954650
O138 O 1.175300 0.494300 0.614000
O139 O 1.209900 0.523700 0.730900
O140 O 0.821900 1.038200 0.409500
O141 O 0.714900 1.046700 0.444400
C142 C 1.003000 0.779500 0.933600
C143 C 1.065200 0.851300 0.988600
C144 C 1.133800 0.900100 0.976400
C145 C 1.143000 0.865600 0.911900
C146 C 1.080200 0.796100 0.857900
C147 C 1.005900 0.758400 0.865900
C148 C 0.940900 0.687900 0.806500
C149 C 0.889400 0.564900 0.822500
C150 C 0.843000 0.456100 0.769300
C151 C 0.792900 0.341300 0.786500
C152 C 0.787500 0.335800 0.853200
C153 C 0.830200 0.447400 0.904800
C154 C 0.880000 0.562600 0.890200
C155 C 0.930800 0.720500 0.736300
C156 C 0.958100 0.876500 0.712900
C157 C 0.966700 1.020200 0.754200
C158 C 0.995200 1.165700 0.735500
C159 C 1.015900 1.168200 0.674000
C160 C 1.001100 1.031500 0.630900
C161 C 0.969400 0.885100 0.647200
C162 C 0.948500 0.744200 0.594500
C163 C 0.898400 0.610700 0.614100
C164 C 0.862300 0.491200 0.564800
C165 C 0.818700 0.362900 0.580300
C166 C 0.812500 0.350500 0.646500
C167 C 0.848200 0.465700 0.698300
C168 C 0.891000 0.601700 0.682200
C169 C 1.027100 0.664100 0.592000
C170 C 1.082400 0.614200 0.664400
C171 C 1.159600 0.535800 0.664200
C172 C 1.287600 0.451500 0.738100
C173 C 0.903700 0.813800 0.520100
C174 C 0.823400 0.892200 0.514200
C175 C 0.789200 0.995300 0.450300
C176 C 0.675200 1.152700 0.385200
H177 H 1.060060 0.866210 1.033980
H178 H 1.174370 0.956960 1.011960
H179 H 1.191970 0.889200 0.904510
H180 H 1.087470 0.772960 0.813980
H181 H 0.762400 0.266600 0.751490
H182 H 0.754430 0.255690 0.864270
H183 H 0.825090 0.444190 0.950460
H184 H 0.952610 1.017220 0.795950
H185 H 1.000550 1.261800 0.763860
H186 H 1.040020 1.263330 0.662050
H187 H 1.012930 1.036740 0.588100
H188 H 0.867300 0.496730 0.519070
H189 H 0.793320 0.283920 0.545060
H190 H 0.783390 0.261690 0.657020
H191 H 1.055000 0.743430 0.570690
H192 H 1.013990 0.565310 0.561180
H193 H 1.054140 0.535420 0.685510
H194 H 1.095110 0.713290 0.695000
H195 H 1.314900 0.520600 0.713120
H196 H 1.319690 0.445170 0.788230
H197 H 1.280130 0.340340 0.717620
H198 H 0.894770 0.723360 0.485100
H199 H 0.937590 0.897740 0.508060
H200 H 0.830130 0.961250 0.556560
H201 H 0.785120 0.803310 0.514030
H202 H 0.669780 1.094690 0.340910
H203 H 0.622340 1.181940 0.386620
H204 H 0.706640 1.253360 0.387880
S205 S 0.580760 0.213400 0.545350
O206 O 0.324700 -0.005700 0.886000
O207 O 0.290100 0.023700 0.769100
O208 O 0.678100 0.538200 1.090500
O209 O 0.785100 0.546700 1.055600
C210 C 0.497000 0.279500 0.566400
C211 C 0.434800 0.351300 0.511400
C212 C 0.366200 0.400100 0.523600
C213 C 0.357000 0.365600 0.588100
C214 C 0.419800 0.296100 0.642100
C215 C 0.494100 0.258400 0.634100
C216 C 0.559100 0.187900 0.693500
C217 C 0.610600 0.064900 0.677500
C218 C 0.657000 -0.043900 0.730700
C219 C 0.707100 -0.158700 0.713500
C220 C 0.712500 -0.164200 0.646800
C221 C 0.669800 -0.052600 0.595200
C222 C 0.620000 0.062600 0.609800
C223 C 0.569200 0.220500 0.763700
C224 C 0.541900 0.376500 0.787100
C225 C 0.533300 0.520200 0.745800
C226 C 0.504800 0.665700 0.764500
C227 C 0.484100 0.668200 0.826000
C228 C 0.498900 0.531500 0.869100
C229 C 0.530600 0.385100 0.852800
C230 C 0.551500 0.244200 0.905500
C231 C 0.601600 0.110700 0.885900
C232 C 0.637700 -0.008800 0.935200
C233 C 0.681300 -0.137100 0.919700
C234 C 0.687500 -0.149500 0.853500
C235 C 0.651800 -0.034300 0.801700
C236 C 0.609000 0.101700 0.817800
C237 C 0.472900 0.164100 0.908000
C238 C 0.417600 0.114200 0.835600
C239 C 0.340400 0.035800 0.835800
C240 C 0.212400 -0.048500 0.761900
C241 C 0.596300 0.313800 0.979900
C242 C 0.676600 0.392200 0.985800
C243 C 0.710800 0.495300 1.049700
C244 C 0.824800 0.652700 1.114800
H245 H 0.439940 0.366210 0.466020
H246 H 0.325630 0.456960 0.488040
H247 H 0.308030 0.389200 0.595490
H248 H 0.412530 0.272960 0.686020
H249 H 0.737600 -0.233400 0.748510
H250 H 0.745570 -0.244310 0.635730
H251 H 0.674910 -0.055810 0.549540
H252 H 0.547390 0.517220 0.704050
H253 H 0.499450 0.761800 0.736140
H254 H 0.459980 0.763330 0.837950
H255 H 0.487070 0.536740 0.911900
H256 H 0.632700 -0.003270 0.980930
H257 H 0.706680 -0.216080 0.954940
H258 H 0.716610 -0.238310 0.842980
H259 H 0.445000 0.243430 0.929310
H260 H 0.486010 0.065310 0.938820
H261 H 0.445860 0.035420 0.814490
H262 H 0.404890 0.213290 0.805000
H263 H 0.185100 0.020600 0.786880
H264 H 0.180310 -0.054830 0.711770
H265 H 0.219870 -0.159660 0.782380
H266 H 0.605230 0.223360 1.014900
H267 H 0.562410 0.397740 0.991940
H268 H 0.669870 0.461250 0.943440
H269 H 0.714880 0.303310 0.985970
H270 H 0.830220 0.594690 1.159090
H271 H 0.877660 0.681940 1.113380
H272 H 0.793360 0.753360 1.112120

#END
