./KAHLEK_from_xyz.cif_generated_by_CrystalShift
_symmetry_cell_setting triclinic
_symmetry_space_group_name_H-M 'P 1'
loop_
_symmetry_equiv_pos_site_id
_symmetry_equiv_pos_as_xyz
1 x,y,z
_cell_length_a 5.256000
_cell_length_b 33.741000
_cell_length_c 8.706000
_cell_angle_alpha 90.000000
_cell_angle_beta 106.320000
_cell_angle_gamma 90.000000
_cell_volume 1481.735644
loop_
_atom_site_label
_atom_site_type_symbol
_atom_site_fract_x
_atom_site_fract_y
_atom_site_fract_z
O1 O 0.202500 0.704300 0.410600
O2 O 0.636100 0.551800 0.545900
C3 C 0.216700 0.619400 0.424800
C4 C 0.425500 0.689100 0.440800
N5 N 0.642000 0.710300 0.449600
C6 C 0.528800 0.629400 0.649600
C7 C 0.313500 0.597200 0.590100
C8 C 0.464700 0.645500 0.471600
C9 C 0.145400 0.596200 0.270700
C10 C 0.423200 0.556500 0.576900
C11 C 0.495000 0.656800 0.779300
C12 C 0.279700 0.600900 0.155200
C13 C 0.696400 0.660200 0.920400
N14 N 0.273700 0.526500 0.598300
C15 C -0.138300 0.548200 0.099300
C16 C -0.064400 0.569800 0.240300
C17 C 0.448400 0.707900 1.022500
C18 C 0.266500 0.678800 0.765300
C19 C 0.673300 0.685300 1.042200
C20 C 0.204500 0.579700 0.013200
C21 C -0.002200 0.553500 -0.014700
C22 C 0.244500 0.704400 0.884600
H23 H 0.181900 0.596900 0.651600
H24 H 0.715400 0.617000 0.687900
H25 H 0.854000 0.645100 0.932900
H26 H 0.125300 0.675000 0.674600
H27 H 0.297900 0.582000 -0.062600
H28 H -0.037100 0.538200 -0.119800
H29 H 0.095200 0.720800 0.869000
H30 H 0.103600 0.532700 0.601300
H31 H 0.323800 0.504900 0.584100
H32 H 0.604700 0.636300 0.412100
H33 H 0.443100 0.724300 1.109100
H34 H 0.049600 0.634400 0.419100
H35 H 0.444200 0.616600 0.180500
H36 H -0.297100 0.529600 0.075400
H37 H -0.166000 0.567000 0.317800
H38 H 0.831600 0.686900 1.146500
H39 H 0.636600 0.735600 0.433500
H40 H 0.791600 0.698800 0.465300
O41 O 0.297500 0.204300 0.589400
O42 O -0.136100 0.051800 0.454100
C43 C 0.283300 0.119400 0.575200
C44 C 0.074500 0.189100 0.559200
N45 N -0.142000 0.210300 0.550400
C46 C -0.028800 0.129400 0.350400
C47 C 0.186500 0.097200 0.409900
C48 C 0.035300 0.145500 0.528400
C49 C 0.354600 0.096200 0.729300
C50 C 0.076800 0.056500 0.423100
C51 C 0.005000 0.156800 0.220700
C52 C 0.220300 0.100900 0.844800
C53 C -0.196400 0.160200 0.079600
N54 N 0.226300 0.026500 0.401700
C55 C 0.638300 0.048200 0.900700
C56 C 0.564400 0.069800 0.759700
C57 C 0.051600 0.207900 -0.022500
C58 C 0.233500 0.178800 0.234700
C59 C -0.173300 0.185300 -0.042200
C60 C 0.295500 0.079700 0.986800
C61 C 0.502200 0.053500 1.014700
C62 C 0.255500 0.204400 0.115400
H63 H 0.318100 0.096900 0.348400
H64 H -0.215400 0.117000 0.312100
H65 H -0.354000 0.145100 0.067100
H66 H 0.374700 0.175000 0.325400
H67 H 0.202100 0.082000 1.062600
H68 H 0.537100 0.038200 1.119800
H69 H 0.404800 0.220800 0.131000
H70 H 0.396400 0.032700 0.398700
H71 H 0.176200 0.004900 0.415900
H72 H -0.104700 0.136300 0.587900
H73 H 0.056900 0.224300 -0.109100
H74 H 0.450400 0.134400 0.580900
H75 H 0.055800 0.116600 0.819500
H76 H 0.797100 0.029600 0.924600
H77 H 0.666000 0.067000 0.682200
H78 H -0.331600 0.186900 -0.146500
H79 H -0.136600 0.235600 0.566500
H80 H -0.291600 0.198800 0.534700
O81 O 0.797500 0.295700 0.589400
O82 O 0.363900 0.448200 0.454100
C83 C 0.783300 0.380600 0.575200
C84 C 0.574500 0.310900 0.559200
N85 N 0.358000 0.289700 0.550400
C86 C 0.471200 0.370600 0.350400
C87 C 0.686500 0.402800 0.409900
C88 C 0.535300 0.354500 0.528400
C89 C 0.854600 0.403800 0.729300
C90 C 0.576800 0.443500 0.423100
C91 C 0.505000 0.343200 0.220700
C92 C 0.720300 0.399100 0.844800
C93 C 0.303600 0.339800 0.079600
N94 N 0.726300 0.473500 0.401700
C95 C 1.138300 0.451800 0.900700
C96 C 1.064400 0.430200 0.759700
C97 C 0.551600 0.292100 -0.022500
C98 C 0.733500 0.321200 0.234700
C99 C 0.326700 0.314700 -0.042200
C100 C 0.795500 0.420300 0.986800
C101 C 1.002200 0.446500 1.014700
C102 C 0.755500 0.295600 0.115400
H103 H 0.818100 0.403100 0.348400
H104 H 0.284600 0.383000 0.312100
H105 H 0.146000 0.354900 0.067100
H106 H 0.874700 0.325000 0.325400
H107 H 0.702100 0.418000 1.062600
H108 H 1.037100 0.461800 1.119800
H109 H 0.904800 0.279200 0.131000
H110 H 0.896400 0.467300 0.398700
H111 H 0.676200 0.495100 0.415900
H112 H 0.395300 0.363700 0.587900
H113 H 0.556900 0.275700 -0.109100
H114 H 0.950400 0.365600 0.580900
H115 H 0.555800 0.383400 0.819500
H116 H 1.297100 0.470400 0.924600
H117 H 1.166000 0.433000 0.682200
H118 H 0.168400 0.313100 -0.146500
H119 H 0.363400 0.264400 0.566500
H120 H 0.208400 0.301200 0.534700
O121 O 0.702500 0.795700 0.410600
O122 O 1.136100 0.948200 0.545900
C123 C 0.716700 0.880600 0.424800
C124 C 0.925500 0.810900 0.440800
N125 N 1.142000 0.789700 0.449600
C126 C 1.028800 0.870600 0.649600
C127 C 0.813500 0.902800 0.590100
C128 C 0.964700 0.854500 0.471600
C129 C 0.645400 0.903800 0.270700
C130 C 0.923200 0.943500 0.576900
C131 C 0.995000 0.843200 0.779300
C132 C 0.779700 0.899100 0.155200
C133 C 1.196400 0.839800 0.920400
N134 N 0.773700 0.973500 0.598300
C135 C 0.361700 0.951800 0.099300
C136 C 0.435600 0.930200 0.240300
C137 C 0.948400 0.792100 1.022500
C138 C 0.766500 0.821200 0.765300
C139 C 1.173300 0.814700 1.042200
C140 C 0.704500 0.920300 0.013200
C141 C 0.497800 0.946500 -0.014700
C142 C 0.744500 0.795600 0.884600
H143 H 0.681900 0.903100 0.651600
H144 H 1.215400 0.883000 0.687900
H145 H 1.354000 0.854900 0.932900
H146 H 0.625300 0.825000 0.674600
H147 H 0.797900 0.918000 -0.062600
H148 H 0.462900 0.961800 -0.119800
H149 H 0.595200 0.779200 0.869000
H150 H 0.603600 0.967300 0.601300
H151 H 0.823800 0.995100 0.584100
H152 H 1.104700 0.863700 0.412100
H153 H 0.943100 0.775700 1.109100
H154 H 0.549600 0.865600 0.419100
H155 H 0.944200 0.883400 0.180500
H156 H 0.202900 0.970400 0.075400
H157 H 0.334000 0.933000 0.317800
H158 H 1.331600 0.813100 1.146500
H159 H 1.136600 0.764400 0.433500
H160 H 1.291600 0.801200 0.465300

#END
