./KAHNEP_from_xyz.cif_generated_by_CrystalShift
_symmetry_cell_setting triclinic
_symmetry_space_group_name_H-M 'P 1'
loop_
_symmetry_equiv_pos_site_id
_symmetry_equiv_pos_as_xyz
1 x,y,z
_cell_length_a 9.396000
_cell_length_b 11.516000
_cell_length_c 9.933000
_cell_angle_alpha 90.000000
_cell_angle_beta 97.590000
_cell_angle_gamma 90.000000
_cell_volume 1065.376971
loop_
_atom_site_label
_atom_site_type_symbol
_atom_site_fract_x
_atom_site_fract_y
_atom_site_fract_z
Cl1 Cl 0.526100 -0.364420 0.958400
O2 O 0.673600 -0.085000 0.792400
O3 O 0.611700 0.081700 0.887600
O4 O 0.852500 0.546000 0.629700
N5 N 0.923900 -0.069100 0.604100
C6 C 0.675900 0.029900 0.809500
C7 C 0.855500 -0.000700 0.651100
C8 C 0.713300 0.288000 0.764200
C9 C 0.897800 0.350300 0.570500
C10 C 0.785600 0.199100 0.691700
C11 C 0.773200 0.082100 0.717500
C12 C 0.830500 0.441900 0.646200
C13 C 0.878100 0.238300 0.593500
C14 C 0.733700 0.401600 0.741500
C15 C 0.629300 -0.273400 0.860200
C16 C 0.586700 -0.150100 0.876500
H17 H 0.692800 0.467900 0.801200
H18 H 0.642400 0.258700 0.832100
H19 H 0.937000 0.180000 0.546800
H20 H 0.943000 0.385400 0.500200
H21 H 0.486400 -0.161300 0.837300
H22 H 0.603800 -0.132400 0.972800
H23 H 0.760400 -0.283900 0.907400
H24 H 0.605900 -0.302300 0.758800
Cl25 Cl 0.973900 0.135580 0.041600
O26 O 0.826400 0.415000 0.207600
O27 O 0.888300 0.581700 0.112400
O28 O 0.647500 1.046000 0.370300
N29 N 0.576100 0.430900 0.395900
C30 C 0.824100 0.529900 0.190500
C31 C 0.644500 0.499300 0.348900
C32 C 0.786700 0.788000 0.235800
C33 C 0.602200 0.850300 0.429500
C34 C 0.714400 0.699100 0.308300
C35 C 0.726800 0.582100 0.282500
C36 C 0.669500 0.941900 0.353800
C37 C 0.621900 0.738300 0.406500
C38 C 0.766300 0.901600 0.258500
C39 C 0.870700 0.226600 0.139800
C40 C 0.913300 0.349900 0.123500
H41 H 0.807200 0.967900 0.198800
H42 H 0.857600 0.758700 0.167900
H43 H 0.563000 0.680000 0.453200
H44 H 0.557000 0.885400 0.499800
H45 H 1.013600 0.338700 0.162700
H46 H 0.896200 0.367600 0.027200
H47 H 0.739600 0.216100 0.092600
H48 H 0.894100 0.197700 0.241200
Cl49 Cl 0.473900 1.364420 0.041600
O50 O 0.326400 1.085000 0.207600
O51 O 0.388300 0.918300 0.112400
O52 O 0.147500 0.454000 0.370300
N53 N 0.076100 1.069100 0.395900
C54 C 0.324100 0.970100 0.190500
C55 C 0.144500 1.000700 0.348900
C56 C 0.286700 0.712000 0.235800
C57 C 0.102200 0.649700 0.429500
C58 C 0.214400 0.800900 0.308300
C59 C 0.226800 0.917900 0.282500
C60 C 0.169500 0.558100 0.353800
C61 C 0.121900 0.761700 0.406500
C62 C 0.266300 0.598400 0.258500
C63 C 0.370700 1.273400 0.139800
C64 C 0.413300 1.150100 0.123500
H65 H 0.307200 0.532100 0.198800
H66 H 0.357600 0.741300 0.167900
H67 H 0.063000 0.820000 0.453200
H68 H 0.057000 0.614600 0.499800
H69 H 0.513600 1.161300 0.162700
H70 H 0.396200 1.132400 0.027200
H71 H 0.239600 1.283900 0.092600
H72 H 0.394100 1.302300 0.241200
Cl73 Cl 0.026100 0.864420 0.958400
O74 O 0.173600 0.585000 0.792400
O75 O 0.111700 0.418300 0.887600
O76 O 0.352500 -0.046000 0.629700
N77 N 0.423900 0.569100 0.604100
C78 C 0.175900 0.470100 0.809500
C79 C 0.355500 0.500700 0.651100
C80 C 0.213300 0.212000 0.764200
C81 C 0.397800 0.149700 0.570500
C82 C 0.285600 0.300900 0.691700
C83 C 0.273200 0.417900 0.717500
C84 C 0.330500 0.058100 0.646200
C85 C 0.378100 0.261700 0.593500
C86 C 0.233700 0.098400 0.741500
C87 C 0.129300 0.773400 0.860200
C88 C 0.086700 0.650100 0.876500
H89 H 0.192800 0.032100 0.801200
H90 H 0.142400 0.241300 0.832100
H91 H 0.437000 0.320000 0.546800
H92 H 0.443000 0.114600 0.500200
H93 H -0.013600 0.661300 0.837300
H94 H 0.103800 0.632400 0.972800
H95 H 0.260400 0.783900 0.907400
H96 H 0.105900 0.802300 0.758800

#END
