
#######################################################################
#
#                 Cambridge Crystallographic Data Centre
#                                CCDC 
#
#######################################################################
#
# If this CIF has been generated from an entry in the Cambridge 
# Structural Database, then it will include bibliographic, chemical, 
# crystal, experimental, refinement or atomic coordinate data resulting 
# from the CCDC's data processing and validation procedures.
#
#######################################################################

data_KAHQOA
_symmetry_cell_setting           triclinic
_symmetry_space_group_name_H-M   'P -1'
_symmetry_Int_Tables_number      2
_space_group_name_Hall           '-P 1'
loop_
_symmetry_equiv_pos_site_id
_symmetry_equiv_pos_as_xyz
1 x,y,z
2 -x,-y,-z
_cell_length_a                   13.1134(12)
_cell_length_b                   14.252(2)
_cell_length_c                   18.331(3)
_cell_angle_alpha                79.190(13)
_cell_angle_beta                 73.781(9)
_cell_angle_gamma                75.565(9)
_cell_volume                     3160
loop_
_atom_site_label
_atom_site_type_symbol
_atom_site_fract_x
_atom_site_fract_y
_atom_site_fract_z
C1 C 0.51438(13) 0.60473(12) 0.12932(8)
C2 C 0.41853(13) 0.67906(12) 0.16012(9)
C3 C 0.44894(12) 0.76882(12) 0.14823(8)
C4 C 0.56607(13) 0.75338(11) 0.10978(9)
C5 C 0.37262(14) 0.85168(13) 0.1703(1)
C6 C 0.26746(14) 0.84147(15) 0.20569(11)
C7 C 0.23808(15) 0.75197(17) 0.21866(12)
C8 C 0.31313(15) 0.66900(15) 0.19548(11)
C9 C 0.61028(13) 0.90668(12) 0.09901(11)
C10 C 0.61553(17) 0.97967(14) 0.03714(12)
C11 C 0.5982(2) 1.07580(15) 0.04906(15)
C12 C 0.57832(18) 1.10026(15) 0.12122(15)
C13 C 0.57605(19) 1.02848(18) 0.18236(14)
C14 C 0.59233(18) 0.93145(15) 0.17168(12)
C15 C 0.61172(14) 0.45152(11) 0.0967(1)
C16 C 0.60886(18) 0.39715(14) 0.04222(12)
C17 C 0.7014(2) 0.33459(16) 0.00842(13)
C18 C 0.7972(2) 0.32391(16) 0.02927(15)
C19 C 0.79981(18) 0.37522(15) 0.08448(15)
C20 C 0.70819(16) 0.43847(13) 0.11836(12)
N1 N 0.59768(12) 0.6545(1) 0.10009(8)
N2 N 0.63501(11) 0.8081(1) 0.08500(9)
N3 N 0.51464(12) 0.5152(1) 0.12962(8)
H1 H 0.6676(17) 0.6285(14) 0.0797(11)
H5 H 0.3920 0.9135 0.1614
H6 H 0.2140 0.8973 0.2215
H7 H 0.1653 0.7473 0.2439
H8 H 0.2930 0.6076 0.2036
H9 H 0.6310 0.9636 -0.0134
H10 H 0.6002 1.1257 0.0066
H11 H 0.5661 1.1667 0.1288
H12 H 0.5633 1.0451 0.2324
H13 H 0.5912 0.8819 0.2144
H14 H 0.5429 0.4031 0.0282
H15 H 0.6990 0.2986 -0.0296
H16 H 0.8609 0.2812 0.0055
H17 H 0.8654 0.3671 0.0996
H18 H 0.7110 0.4735 0.1568
C1 C 0.48562(13) 0.39527(12) 0.87068(8)
C2 C 0.58147(13) 0.32094(12) 0.83988(9)
C3 C 0.55106(12) 0.23118(12) 0.85177(8)
C4 C 0.43393(13) 0.24662(11) 0.89022(9)
C5 C 0.62738(14) 0.14832(13) 0.8297(1)
C6 C 0.73254(14) 0.15853(15) 0.79431(11)
C7 C 0.76192(15) 0.24803(17) 0.78134(12)
C8 C 0.68687(15) 0.33100(15) 0.80452(11)
C9 C 0.38972(13) 0.09332(12) 0.90099(11)
C10 C 0.38447(17) 0.02033(14) 0.96286(12)
C11 C 0.4018(2) -0.07580(15) 0.95094(15)
C12 C 0.42168(18) -0.10026(15) 0.87878(15)
C13 C 0.42395(19) -0.02848(18) 0.81764(14)
C14 C 0.40767(18) 0.06855(15) 0.82832(12)
C15 C 0.38828(14) 0.54848(11) 0.9033(1)
C16 C 0.39114(18) 0.60285(14) 0.95778(12)
C17 C 0.2986(2) 0.66541(16) 0.99158(13)
C18 C 0.2028(2) 0.67609(16) 0.97073(15)
C19 C 0.20019(18) 0.62478(15) 0.91552(15)
C20 C 0.29181(16) 0.56153(13) 0.88164(12)
N1 N 0.40232(12) 0.3455(1) 0.89991(8)
N2 N 0.36499(11) 0.1919(1) 0.91500(9)
N3 N 0.48536(12) 0.4848(1) 0.87038(8)
H1 H 0.3324(17) 0.3715(14) 0.9203(11)
H5 H 0.6080 0.0865 0.8386
H6 H 0.7860 0.1027 0.7785
H7 H 0.8347 0.2527 0.7561
H8 H 0.7070 0.3924 0.7964
H9 H 0.3690 0.0364 1.0134
H10 H 0.3998 -0.1257 0.9934
H11 H 0.4339 -0.1667 0.8712
H12 H 0.4367 -0.0451 0.7676
H13 H 0.4088 0.1181 0.7856
H14 H 0.4571 0.5969 0.9718
H15 H 0.3010 0.7014 1.0296
H16 H 0.1391 0.7188 0.9945
H17 H 0.1346 0.6329 0.9004
H18 H 0.2890 0.5265 0.8432
C21 C 0.89421(13) 0.9008(1) 0.62819(9)
C22 C 0.78813(13) 0.9629(1) 0.62234(9)
C23 C 0.79553(13) 1.05974(11) 0.61656(9)
C24 C 0.90640(13) 1.0622(1) 0.61772(9)
C25 C 0.70653(15) 1.13524(12) 0.61161(11)
C26 C 0.61120(15) 1.11012(13) 0.61189(12)
C27 C 0.60392(15) 1.01345(13) 0.61695(11)
C28 C 0.69275(14) 0.93792(12) 0.6227(1)
C29 C 1.05014(13) 1.1330(1) 0.61585(9)
C30 C 1.08692(15) 1.09403(13) 0.6810(1)
C31 C 1.19088(17) 1.09597(14) 0.68264(12)
C32 C 1.25873(16) 1.13633(15) 0.62016(14)
C33 C 1.22199(17) 1.17580(16) 0.55523(12)
C34 C 1.11890(16) 1.17521(14) 0.5527(1)
C35 C 1.02116(14) 0.7538(1) 0.6391(1)
C36 C 1.03535(17) 0.68941(14) 0.70384(12)
C37 C 1.1354(2) 0.62815(16) 0.70387(14)
C38 C 1.22006(17) 0.62977(15) 0.64073(15)
C39 C 1.20601(17) 0.69254(16) 0.57627(13)
C40 C 1.10718(16) 0.75516(14) 0.57581(11)
N4 N 0.96136(12) 0.96497(9) 0.62383(8)
N5 N 0.94181(11) 1.13919(9) 0.61268(8)
N6 N 0.91522(11) 0.80823(9) 0.63688(8)
H2 H 1.0272(15) 0.9464(13) 0.627(1)
H19 H 0.7109 1.2015 0.6082
H20 H 0.5490 1.1603 0.6085
H21 H 0.5373 0.9988 0.6165
H22 H 0.6881 0.8716 0.6267
H23 H 1.0406 1.0658 0.7247
H24 H 1.2157 1.0690 0.7276
H25 H 1.3304 1.1371 0.6215
H26 H 1.2689 1.2037 0.5117
H27 H 1.0942 1.2036 0.5079
H28 H 0.9767 0.6873 0.7480
H29 H 1.1452 0.5843 0.7485
H30 H 1.2885 0.5875 0.6415
H31 H 1.2644 0.6930 0.5318
H32 H 1.0985 0.7996 0.5313
C21 C 0.10579(13) 0.0992(1) 0.37181(9)
C22 C 0.21187(13) 0.0371(1) 0.37766(9)
C23 C 0.20447(13) -0.05974(11) 0.38344(9)
C24 C 0.09360(13) -0.0622(1) 0.38228(9)
C25 C 0.29347(15) -0.13524(12) 0.38839(11)
C26 C 0.38880(15) -0.11012(13) 0.38811(12)
C27 C 0.39608(15) -0.01345(13) 0.38305(11)
C28 C 0.30725(14) 0.06208(12) 0.3773(1)
C29 C -0.05014(13) -0.1330(1) 0.38415(9)
C30 C -0.08692(15) -0.09403(13) 0.3190(1)
C31 C -0.19088(17) -0.09597(14) 0.31736(12)
C32 C -0.25873(16) -0.13633(15) 0.37984(14)
C33 C -0.22199(17) -0.17580(16) 0.44477(12)
C34 C -0.11890(16) -0.17521(14) 0.4473(1)
C35 C -0.02116(14) 0.2462(1) 0.3609(1)
C36 C -0.03535(17) 0.31059(14) 0.29616(12)
C37 C -0.1354(2) 0.37185(16) 0.29613(14)
C38 C -0.22006(17) 0.37023(15) 0.35927(15)
C39 C -0.20601(17) 0.30746(16) 0.42373(13)
C40 C -0.10718(16) 0.24484(14) 0.42419(11)
N4 N 0.03864(12) 0.03503(9) 0.37617(8)
N5 N 0.05819(11) -0.13919(9) 0.38732(8)
N6 N 0.08478(11) 0.19177(9) 0.36312(8)
H2 H -0.0272(15) 0.0536(13) 0.373(1)
H19 H 0.2891 -0.2015 0.3918
H20 H 0.4510 -0.1603 0.3915
H21 H 0.4627 0.0012 0.3835
H22 H 0.3119 0.1284 0.3733
H23 H -0.0406 -0.0658 0.2753
H24 H -0.2157 -0.0690 0.2724
H25 H -0.3304 -0.1371 0.3785
H26 H -0.2689 -0.2037 0.4883
H27 H -0.0942 -0.2036 0.4921
H28 H 0.0233 0.3127 0.2520
H29 H -0.1452 0.4157 0.2515
H30 H -0.2885 0.4125 0.3585
H31 H -0.2644 0.3070 0.4682
H32 H -0.0985 0.2004 0.4687
C41 C 0.64992(13) 0.4576(1) 0.61567(8)
C42 C 0.76223(13) 0.46630(11) 0.60869(9)
C43 C 0.76042(13) 0.56109(11) 0.61821(9)
C44 C 0.64695(13) 0.6161(1) 0.63025(8)
C45 C 0.85873(14) 0.39739(12) 0.5967(1)
C46 C 0.95213(15) 0.42716(14) 0.59508(11)
C47 C 0.95016(15) 0.52197(14) 0.60494(11)
C48 C 0.85330(14) 0.59100(12) 0.6167(1)
C49 C 0.50312(13) 0.7495(1) 0.64840(9)
C50 C 0.46460(16) 0.82171(13) 0.59439(11)
C51 C 0.35606(19) 0.86759(15) 0.60997(13)
C52 C 0.28643(17) 0.84408(15) 0.67849(14)
C53 C 0.32447(17) 0.77331(15) 0.73209(13)
C54 C 0.43191(15) 0.72581(13) 0.7174(1)
C55 C 0.50889(13) 0.3839(1) 0.61833(9)
C56 C 0.46927(18) 0.37571(18) 0.55827(11)
C57 C 0.3623(2) 0.3689(2) 0.57058(13)
C58 C 0.29454(17) 0.36871(15) 0.64171(12)
C59 C 0.33321(18) 0.37605(17) 0.70189(12)
C60 C 0.43907(17) 0.38565(16) 0.68957(11)
N7 N 0.58524(12) 0.54871(9) 0.63198(8)
N8 N 0.61557(11) 0.70733(9) 0.63447(8)
N9 N 0.62068(11) 0.38303(9) 0.60652(8)
H3 H 0.5146(16) 0.5628(13) 0.637(1)
H33 H 0.8607 0.3325 0.5899
H34 H 1.0195 0.3815 0.5870
H35 H 1.0158 0.5398 0.6036
H36 H 0.8512 0.6560 0.6234
H37 H 0.5125 0.8394 0.5471
H38 H 0.3295 0.9161 0.5727
H39 H 0.2122 0.8765 0.6888
H40 H 0.2764 0.7570 0.7797
H41 H 0.4574 0.6766 0.7547
H42 H 0.5157 0.3746 0.5082
H43 H 0.3358 0.3644 0.5285
H44 H 0.2213 0.3636 0.6495
H45 H 0.2872 0.3746 0.7522
H46 H 0.4641 0.3937 0.7314
C41 C 0.35008(13) 0.5424(1) 0.38433(8)
C42 C 0.23777(13) 0.53370(11) 0.39131(9)
C43 C 0.23958(13) 0.43891(11) 0.38179(9)
C44 C 0.35305(13) 0.3839(1) 0.36975(8)
C45 C 0.14127(14) 0.60261(12) 0.4033(1)
C46 C 0.04787(15) 0.57284(14) 0.40492(11)
C47 C 0.04984(15) 0.47803(14) 0.39506(11)
C48 C 0.14670(14) 0.40900(12) 0.3833(1)
C49 C 0.49688(13) 0.2505(1) 0.35160(9)
C50 C 0.53540(16) 0.17829(13) 0.40561(11)
C51 C 0.64394(19) 0.13241(15) 0.39003(13)
C52 C 0.71357(17) 0.15592(15) 0.32151(14)
C53 C 0.67553(17) 0.22669(15) 0.26791(13)
C54 C 0.56809(15) 0.27419(13) 0.2826(1)
C55 C 0.49111(13) 0.6161(1) 0.38167(9)
C56 C 0.53073(18) 0.62429(18) 0.44173(11)
C57 C 0.6377(2) 0.6311(2) 0.42942(13)
C58 C 0.70546(17) 0.63129(15) 0.35829(12)
C59 C 0.66679(18) 0.62395(17) 0.29811(12)
C60 C 0.56093(17) 0.61435(16) 0.31043(11)
N7 N 0.41476(12) 0.45129(9) 0.36802(8)
N8 N 0.38443(11) 0.29267(9) 0.36553(8)
N9 N 0.37932(11) 0.61697(9) 0.39348(8)
H3 H 0.4854(16) 0.4372(13) 0.363(1)
H33 H 0.1393 0.6675 0.4101
H34 H -0.0195 0.6185 0.4130
H35 H -0.0158 0.4602 0.3964
H36 H 0.1488 0.3440 0.3766
H37 H 0.4875 0.1606 0.4529
H38 H 0.6705 0.0839 0.4273
H39 H 0.7878 0.1235 0.3112
H40 H 0.7236 0.2430 0.2203
H41 H 0.5426 0.3234 0.2453
H42 H 0.4843 0.6254 0.4918
H43 H 0.6642 0.6356 0.4715
H44 H 0.7787 0.6364 0.3505
H45 H 0.7128 0.6254 0.2478
H46 H 0.5359 0.6063 0.2686
C61 C 0.15292(12) 0.16998(11) 0.10985(8)
C62 C 0.22225(12) 0.22371(12) 0.12909(9)
C63 C 0.22533(13) 0.30926(12) 0.07934(9)
C64 C 0.16183(12) 0.31119(11) 0.02372(8)
C65 C 0.27930(15) 0.37753(14) 0.0871(1)
C66 C 0.33038(17) 0.35606(17) 0.14667(12)
C67 C 0.32856(17) 0.26949(18) 0.19587(11)
C68 C 0.27472(15) 0.20180(15) 0.1880(1)
C69 C 0.09640(12) 0.37183(11) -0.08689(8)
C70 C 0.12238(15) 0.29394(12) -0.1277(1)
C71 C 0.07063(19) 0.29615(15) -0.18483(12)
C72 C -0.00718(18) 0.37492(17) -0.20100(11)
C73 C -0.03287(19) 0.45315(17) -0.16073(13)
C74 C 0.01849(17) 0.45216(14) -0.10428(11)
C75 C 0.05226(13) 0.05203(12) 0.12501(9)
C76 C -0.05529(15) 0.10169(13) 0.13812(11)
C77 C -0.13241(15) 0.06138(16) 0.12450(13)
C78 C -0.10506(18) -0.02728(17) 0.09870(12)
C79 C 0.00128(19) -0.07699(15) 0.08562(12)
C80 C 0.07984(15) -0.03783(13) 0.09885(11)
N10 N 0.1166(1) 0.22867(9) 0.04776(7)
N11 N 0.15314(11) 0.37742(9) -0.03282(7)
N12 N 0.13025(11) 0.0893(1) 0.14447(8)
H4 H 0.0835(16) 0.2078(14) 0.0205(11)
H47 H 0.2812 0.4365 0.0530
H48 H 0.3674 0.4016 0.1540
H49 H 0.3652 0.2566 0.2358
H50 H 0.2736 0.1424 0.2216
H51 H 0.1760 0.2383 -0.1169
H52 H 0.0897 0.2421 -0.2130
H53 H -0.0431 0.3756 -0.2396
H54 H -0.0865 0.5085 -0.1719
H55 H 0.0003 0.5070 -0.0771
H56 H -0.0758 0.1634 0.1565
H57 H -0.2058 0.0960 0.1333
H58 H -0.1590 -0.0545 0.0898
H59 H 0.0209 -0.1388 0.0674
H60 H 0.1531 -0.0729 0.0899
C61 C 0.84708(12) 0.83002(11) 0.89015(8)
C62 C 0.77775(12) 0.77629(12) 0.87091(9)
C63 C 0.77467(13) 0.69074(12) 0.92066(9)
C64 C 0.83817(12) 0.68881(11) 0.97628(8)
C65 C 0.72070(15) 0.62247(14) 0.9129(1)
C66 C 0.66962(17) 0.64394(17) 0.85333(12)
C67 C 0.67144(17) 0.73051(18) 0.80413(11)
C68 C 0.72528(15) 0.79820(15) 0.8120(1)
C69 C 0.90360(12) 0.62817(11) 1.08689(8)
C70 C 0.87762(15) 0.70606(12) 1.1277(1)
C71 C 0.92937(19) 0.70385(15) 1.18483(12)
C72 C 1.00718(18) 0.62508(17) 1.20100(11)
C73 C 1.03287(19) 0.54685(17) 1.16073(13)
C74 C 0.98151(17) 0.54784(14) 1.10428(11)
C75 C 0.94774(13) 0.94797(12) 0.87499(9)
C76 C 1.05529(15) 0.89831(13) 0.86188(11)
C77 C 1.13241(15) 0.93862(16) 0.87550(13)
C78 C 1.10506(18) 1.02728(17) 0.90130(12)
C79 C 0.99872(19) 1.07699(15) 0.91438(12)
C80 C 0.92016(15) 1.03783(13) 0.90115(11)
N10 N 0.8834(1) 0.77133(9) 0.95224(7)
N11 N 0.84686(11) 0.62258(9) 1.03282(7)
N12 N 0.86975(11) 0.9107(1) 0.85553(8)
H4 H 0.9165(16) 0.7922(14) 0.9795(11)
H47 H 0.7188 0.5635 0.9470
H48 H 0.6326 0.5984 0.8460
H49 H 0.6348 0.7434 0.7642
H50 H 0.7264 0.8576 0.7784
H51 H 0.8240 0.7617 1.1169
H52 H 0.9103 0.7579 1.2130
H53 H 1.0431 0.6244 1.2396
H54 H 1.0865 0.4915 1.1719
H55 H 0.9997 0.4930 1.0771
H56 H 1.0758 0.8366 0.8435
H57 H 1.2058 0.9040 0.8667
H58 H 1.1590 1.0545 0.9102
H59 H 0.9791 1.1388 0.9326
H60 H 0.8469 1.0729 0.9101

#END
