
#######################################################################
#
#                 Cambridge Crystallographic Data Centre
#                                CCDC 
#
#######################################################################
#
# If this CIF has been generated from an entry in the Cambridge 
# Structural Database, then it will include bibliographic, chemical, 
# crystal, experimental, refinement or atomic coordinate data resulting 
# from the CCDC's data processing and validation procedures.
#
#######################################################################

data_KAHRIW
_symmetry_cell_setting           monoclinic
_symmetry_space_group_name_H-M   'P 21/c'
_symmetry_Int_Tables_number      14
_space_group_name_Hall           '-P 2ybc'
loop_
_symmetry_equiv_pos_site_id
_symmetry_equiv_pos_as_xyz
1 x,y,z
2 -x,1/2+y,1/2-z
3 -x,-y,-z
4 x,1/2-y,1/2+z
_cell_length_a                   15.1851(3)
_cell_length_b                   18.6584(6)
_cell_length_c                   19.9114(6)
_cell_angle_alpha                90
_cell_angle_beta                 91.300(2)
_cell_angle_gamma                90
_cell_volume                     5640.04
loop_
_atom_site_label
_atom_site_type_symbol
_atom_site_fract_x
_atom_site_fract_y
_atom_site_fract_z
C1 C 0.3042(2) 0.26183(18) 0.02604(18)
C2 C 0.3633(2) 0.2065(2) 0.04253(19)
C3 C 0.3735(2) 0.18561(19) 0.10881(19)
H1 H 0.4121 0.1486 0.1199
C4 C 0.3275(2) 0.21865(18) 0.15845(18)
H2 H 0.3345 0.2036 0.2028
C5 C 0.2705(2) 0.27468(17) 0.14268(16)
C6 C 0.2592(2) 0.29555(18) 0.07675(17)
H3 H 0.2208 0.3329 0.0661
C7 C 0.2898(3) 0.2824(2) -0.04513(19)
O1 O 0.2315(2) 0.33351(17) -0.05437(13)
H41 H 0.221(3) 0.341(2) -0.0949(11)
O2 O 0.32958(19) 0.25392(16) -0.09125(13)
O3 O 0.4114(2) 0.17256(16) -0.00403(14)
H42 H 0.401(3) 0.191(2) -0.0412(14)
O4 O 0.22168(19) 0.39435(13) 0.19512(13)
O5 O 0.11825(15) 0.29722(14) 0.19346(12)
O6 O 0.24469(16) 0.29409(14) 0.26946(11)
S1 S 0.21036(6) 0.31845(5) 0.20480(4)
C1 C 0.6958(2) 0.76183(18) 0.47396(18)
C2 C 0.6367(2) 0.7065(2) 0.45747(19)
C3 C 0.6265(2) 0.68561(19) 0.39119(19)
H1 H 0.5879 0.6486 0.3801
C4 C 0.6725(2) 0.71865(18) 0.34155(18)
H2 H 0.6655 0.7036 0.2972
C5 C 0.7295(2) 0.77468(17) 0.35732(16)
C6 C 0.7408(2) 0.79555(18) 0.42325(17)
H3 H 0.7792 0.8329 0.4339
C7 C 0.7102(3) 0.7824(2) 0.54513(19)
O1 O 0.7685(2) 0.83351(17) 0.55437(13)
H41 H 0.779(3) 0.841(2) 0.5949(11)
O2 O 0.67042(19) 0.75392(16) 0.59125(13)
O3 O 0.5886(2) 0.67256(16) 0.50403(14)
H42 H 0.599(3) 0.691(2) 0.5412(14)
O4 O 0.77832(19) 0.89435(13) 0.30488(13)
O5 O 0.88175(15) 0.79722(14) 0.30654(12)
O6 O 0.75531(16) 0.79409(14) 0.23054(11)
S1 S 0.78964(6) 0.81845(5) 0.29520(4)
C1 C 0.6958(2) 0.73817(18) 0.97396(18)
C2 C 0.6367(2) 0.7935(2) 0.95747(19)
C3 C 0.6265(2) 0.81439(19) 0.89119(19)
H1 H 0.5879 0.8514 0.8801
C4 C 0.6725(2) 0.78135(18) 0.84155(18)
H2 H 0.6655 0.7964 0.7972
C5 C 0.7295(2) 0.72532(17) 0.85732(16)
C6 C 0.7408(2) 0.70445(18) 0.92325(17)
H3 H 0.7792 0.6671 0.9339
C7 C 0.7102(3) 0.7176(2) 1.04513(19)
O1 O 0.7685(2) 0.66649(17) 1.05437(13)
H41 H 0.779(3) 0.659(2) 1.0949(11)
O2 O 0.67042(19) 0.74608(16) 1.09125(13)
O3 O 0.5886(2) 0.82744(16) 1.00403(14)
H42 H 0.599(3) 0.809(2) 1.0412(14)
O4 O 0.77832(19) 0.60565(13) 0.80488(13)
O5 O 0.88175(15) 0.70278(14) 0.80654(12)
O6 O 0.75531(16) 0.70591(14) 0.73054(11)
S1 S 0.78964(6) 0.68155(5) 0.79520(4)
C1 C 0.3042(2) 0.23817(18) 0.52604(18)
C2 C 0.3633(2) 0.2935(2) 0.54253(19)
C3 C 0.3735(2) 0.31439(19) 0.60881(19)
H1 H 0.4121 0.3514 0.6199
C4 C 0.3275(2) 0.28135(18) 0.65845(18)
H2 H 0.3345 0.2964 0.7028
C5 C 0.2705(2) 0.22532(17) 0.64268(16)
C6 C 0.2592(2) 0.20445(18) 0.57675(17)
H3 H 0.2208 0.1671 0.5661
C7 C 0.2898(3) 0.2176(2) 0.45487(19)
O1 O 0.2315(2) 0.16649(17) 0.44563(13)
H41 H 0.221(3) 0.159(2) 0.4051(11)
O2 O 0.32958(19) 0.24608(16) 0.40875(13)
O3 O 0.4114(2) 0.32744(16) 0.49597(14)
H42 H 0.401(3) 0.309(2) 0.4588(14)
O4 O 0.22168(19) 0.10565(13) 0.69512(13)
O5 O 0.11825(15) 0.20278(14) 0.69346(12)
O6 O 0.24469(16) 0.20591(14) 0.76946(11)
S1 S 0.21036(6) 0.18155(5) 0.70480(4)
C8 C 0.0552(2) 0.58948(18) -0.01644(17)
C9 C 0.1139(2) 0.53248(19) -0.02519(17)
C10 C 0.1466(2) 0.49502(19) 0.02988(17)
H4 H 0.1856 0.4572 0.0237
C11 C 0.1221(2) 0.51325(19) 0.09351(17)
H5 H 0.1440 0.4875 0.1302
C12 C 0.0641(2) 0.57036(19) 0.10351(16)
C13 C 0.0310(2) 0.60791(19) 0.04938(17)
H6 H -0.0076 0.6458 0.0561
C14 C 0.0182(2) 0.62554(19) -0.07637(18)
O7 O -0.04024(18) 0.67707(15) -0.06438(12)
H43 H -0.060(3) 0.690(2) -0.1009(13)
O8 O 0.03831(16) 0.60981(14) -0.13307(12)
O9 O 0.14137(17) 0.51098(15) -0.08618(13)
H44 H 0.116(3) 0.536(2) -0.1148(17)
O10 O -0.00481(17) 0.66103(13) 0.18600(12)
O11 O 0.11477(16) 0.58648(14) 0.22717(12)
O12 O -0.02814(16) 0.53518(13) 0.20715(11)
S2 S 0.03450(6) 0.59040(5) 0.18703(4)
C8 C 0.9448(2) 0.08948(18) 0.51644(17)
C9 C 0.8861(2) 0.03248(19) 0.52519(17)
C10 C 0.8534(2) -0.00498(19) 0.47012(17)
H4 H 0.8144 -0.0428 0.4763
C11 C 0.8779(2) 0.01325(19) 0.40649(17)
H5 H 0.8560 -0.0125 0.3698
C12 C 0.9359(2) 0.07036(19) 0.39649(16)
C13 C 0.9690(2) 0.10791(19) 0.45062(17)
H6 H 1.0076 0.1458 0.4439
C14 C 0.9818(2) 0.12554(19) 0.57637(18)
O7 O 1.04024(18) 0.17707(15) 0.56438(12)
H43 H 1.060(3) 0.190(2) 0.6009(13)
O8 O 0.96169(16) 0.10981(14) 0.63307(12)
O9 O 0.85863(17) 0.01098(15) 0.58618(13)
H44 H 0.884(3) 0.036(2) 0.6148(17)
O10 O 1.00481(17) 0.16103(13) 0.31400(12)
O11 O 0.88523(16) 0.08648(14) 0.27283(12)
O12 O 1.02814(16) 0.03518(13) 0.29285(11)
S2 S 0.96550(6) 0.09040(5) 0.31297(4)
C8 C 0.9448(2) 0.41052(18) 1.01644(17)
C9 C 0.8861(2) 0.46752(19) 1.02519(17)
C10 C 0.8534(2) 0.50498(19) 0.97012(17)
H4 H 0.8144 0.5428 0.9763
C11 C 0.8779(2) 0.48675(19) 0.90649(17)
H5 H 0.8560 0.5125 0.8698
C12 C 0.9359(2) 0.42964(19) 0.89649(16)
C13 C 0.9690(2) 0.39209(19) 0.95062(17)
H6 H 1.0076 0.3542 0.9439
C14 C 0.9818(2) 0.37446(19) 1.07637(18)
O7 O 1.04024(18) 0.32293(15) 1.06438(12)
H43 H 1.060(3) 0.310(2) 1.1009(13)
O8 O 0.96169(16) 0.39019(14) 1.13307(12)
O9 O 0.85863(17) 0.48902(15) 1.08618(13)
H44 H 0.884(3) 0.464(2) 1.1148(17)
O10 O 1.00481(17) 0.33897(13) 0.81400(12)
O11 O 0.88523(16) 0.41352(14) 0.77283(12)
O12 O 1.02814(16) 0.46482(13) 0.79285(11)
S2 S 0.96550(6) 0.40960(5) 0.81297(4)
C8 C 0.0552(2) 0.91052(18) 0.48356(17)
C9 C 0.1139(2) 0.96752(19) 0.47481(17)
C10 C 0.1466(2) 1.00498(19) 0.52988(17)
H4 H 0.1856 1.0428 0.5237
C11 C 0.1221(2) 0.98675(19) 0.59351(17)
H5 H 0.1440 1.0125 0.6302
C12 C 0.0641(2) 0.92964(19) 0.60351(16)
C13 C 0.0310(2) 0.89209(19) 0.54938(17)
H6 H -0.0076 0.8542 0.5561
C14 C 0.0182(2) 0.87446(19) 0.42363(18)
O7 O -0.04024(18) 0.82293(15) 0.43562(12)
H43 H -0.060(3) 0.810(2) 0.3991(13)
O8 O 0.03831(16) 0.89019(14) 0.36693(12)
O9 O 0.14137(17) 0.98902(15) 0.41382(13)
H44 H 0.116(3) 0.964(2) 0.3852(17)
O10 O -0.00481(17) 0.83897(13) 0.68600(12)
O11 O 0.11477(16) 0.91352(14) 0.72717(12)
O12 O -0.02814(16) 0.96482(13) 0.70715(11)
S2 S 0.03450(6) 0.90960(5) 0.68703(4)
C15 C 0.4440(2) 0.41183(18) 1.01696(17)
C16 C 0.3858(2) 0.46991(18) 1.02549(17)
C17 C 0.3537(2) 0.50700(19) 0.96944(17)
H7 H 0.3160 0.5457 0.9751
C18 C 0.3769(2) 0.48719(18) 0.90612(17)
H8 H 0.3545 0.5122 0.8691
C19 C 0.4340(2) 0.42978(18) 0.89669(17)
C20 C 0.4675(2) 0.39231(18) 0.95174(17)
H9 H 0.5056 0.3541 0.9454
C21 C 0.4780(2) 0.37329(19) 1.07651(19)
O13 O 0.53098(19) 0.31975(15) 1.06360(13)
H45 H 0.546(3) 0.298(2) 1.0984(14)
O14 O 0.45832(18) 0.39000(14) 1.13386(13)
O15 O 0.35960(18) 0.49163(15) 1.08649(13)
H46 H 0.388(3) 0.466(2) 1.1122(18)
O16 O 0.52587(16) 0.46151(12) 0.79163(11)
O17 O 0.38336(16) 0.40828(15) 0.77319(12)
O18 O 0.50476(16) 0.33708(13) 0.81822(12)
S3 S 0.46353(6) 0.40726(5) 0.81379(4)
C15 C 0.5560(2) 0.91183(18) 0.48304(17)
C16 C 0.6142(2) 0.96991(18) 0.47451(17)
C17 C 0.6463(2) 1.00700(19) 0.53056(17)
H7 H 0.6840 1.0457 0.5249
C18 C 0.6231(2) 0.98719(18) 0.59388(17)
H8 H 0.6455 1.0122 0.6309
C19 C 0.5660(2) 0.92978(18) 0.60331(17)
C20 C 0.5325(2) 0.89231(18) 0.54826(17)
H9 H 0.4944 0.8541 0.5546
C21 C 0.5220(2) 0.87329(19) 0.42349(19)
O13 O 0.46902(19) 0.81975(15) 0.43640(13)
H45 H 0.454(3) 0.798(2) 0.4016(14)
O14 O 0.54168(18) 0.89000(14) 0.36614(13)
O15 O 0.64040(18) 0.99163(15) 0.41351(13)
H46 H 0.612(3) 0.966(2) 0.3878(18)
O16 O 0.47413(16) 0.96151(12) 0.70837(11)
O17 O 0.61664(16) 0.90828(15) 0.72681(12)
O18 O 0.49524(16) 0.83708(13) 0.68178(12)
S3 S 0.53647(6) 0.90726(5) 0.68621(4)
C15 C 0.5560(2) 0.58817(18) -0.01696(17)
C16 C 0.6142(2) 0.53009(18) -0.02549(17)
C17 C 0.6463(2) 0.49300(19) 0.03056(17)
H7 H 0.6840 0.4543 0.0249
C18 C 0.6231(2) 0.51281(18) 0.09388(17)
H8 H 0.6455 0.4878 0.1309
C19 C 0.5660(2) 0.57022(18) 0.10331(17)
C20 C 0.5325(2) 0.60769(18) 0.04826(17)
H9 H 0.4944 0.6459 0.0546
C21 C 0.5220(2) 0.62671(19) -0.07651(19)
O13 O 0.46902(19) 0.68025(15) -0.06360(13)
H45 H 0.454(3) 0.702(2) -0.0984(14)
O14 O 0.54168(18) 0.61000(14) -0.13386(13)
O15 O 0.64040(18) 0.50837(15) -0.08649(13)
H46 H 0.612(3) 0.534(2) -0.1122(18)
O16 O 0.47413(16) 0.53849(12) 0.20837(11)
O17 O 0.61664(16) 0.59172(15) 0.22681(12)
O18 O 0.49524(16) 0.66292(13) 0.18178(12)
S3 S 0.53647(6) 0.59274(5) 0.18621(4)
C15 C 0.4440(2) 0.08817(18) 0.51696(17)
C16 C 0.3858(2) 0.03009(18) 0.52549(17)
C17 C 0.3537(2) -0.00700(19) 0.46944(17)
H7 H 0.3160 -0.0457 0.4751
C18 C 0.3769(2) 0.01281(18) 0.40612(17)
H8 H 0.3545 -0.0122 0.3691
C19 C 0.4340(2) 0.07022(18) 0.39669(17)
C20 C 0.4675(2) 0.10769(18) 0.45174(17)
H9 H 0.5056 0.1459 0.4454
C21 C 0.4780(2) 0.12671(19) 0.57651(19)
O13 O 0.53098(19) 0.18025(15) 0.56360(13)
H45 H 0.546(3) 0.202(2) 0.5984(14)
O14 O 0.45832(18) 0.11000(14) 0.63386(13)
O15 O 0.35960(18) 0.00837(15) 0.58649(13)
H46 H 0.388(3) 0.034(2) 0.6122(18)
O16 O 0.52587(16) 0.03849(12) 0.29163(11)
O17 O 0.38336(16) 0.09172(15) 0.27319(12)
O18 O 0.50476(16) 0.16292(13) 0.31822(12)
S3 S 0.46353(6) 0.09274(5) 0.31379(4)
C22 C 0.1946(2) 0.73813(19) 0.95454(18)
C23 C 0.1404(3) 0.7967(2) 0.9405(2)
C24 C 0.1170(3) 0.8123(2) 0.8741(2)
H10 H 0.0801 0.8509 0.8647
C25 C 0.1476(3) 0.7717(2) 0.8226(2)
H11 H 0.1317 0.7827 0.7785
C26 C 0.2025(2) 0.71373(19) 0.83652(17)
C27 C 0.2260(2) 0.69699(18) 0.90158(18)
H12 H 0.2628 0.6582 0.9104
C28 C 0.2176(3) 0.7209(2) 1.0252(2)
O19 O 0.2684(2) 0.66446(16) 1.03382(13)
H47 H 0.288(3) 0.660(2) 1.0734(12)
O20 O 0.1908(2) 0.75578(17) 1.07229(14)
O21 O 0.1082(2) 0.83868(17) 0.98914(15)
H48 H 0.129(3) 0.825(3) 1.0248(16)
O22 O 0.2886(2) 0.60281(14) 0.79251(13)
O23 O 0.30101(17) 0.71324(14) 0.73397(12)
O24 O 0.16660(18) 0.64683(18) 0.72440(14)
S4 S 0.24176(6) 0.66487(5) 0.76758(5)
C22 C 0.8054(2) 0.23813(19) 0.54546(18)
C23 C 0.8596(3) 0.2967(2) 0.5595(2)
C24 C 0.8830(3) 0.3123(2) 0.6259(2)
H10 H 0.9199 0.3509 0.6353
C25 C 0.8524(3) 0.2717(2) 0.6774(2)
H11 H 0.8683 0.2827 0.7215
C26 C 0.7975(2) 0.21373(19) 0.66348(17)
C27 C 0.7740(2) 0.19699(18) 0.59842(18)
H12 H 0.7372 0.1582 0.5896
C28 C 0.7824(3) 0.2209(2) 0.4748(2)
O19 O 0.7316(2) 0.16446(16) 0.46618(13)
H47 H 0.712(3) 0.160(2) 0.4266(12)
O20 O 0.8092(2) 0.25578(17) 0.42771(14)
O21 O 0.8918(2) 0.33868(17) 0.51086(15)
H48 H 0.871(3) 0.325(3) 0.4752(16)
O22 O 0.7114(2) 0.10281(14) 0.70749(13)
O23 O 0.69899(17) 0.21324(14) 0.76603(12)
O24 O 0.83340(18) 0.14683(18) 0.77560(14)
S4 S 0.75824(6) 0.16487(5) 0.73242(5)
C22 C 0.8054(2) 0.26187(19) 0.04546(18)
C23 C 0.8596(3) 0.2033(2) 0.0595(2)
C24 C 0.8830(3) 0.1877(2) 0.1259(2)
H10 H 0.9199 0.1491 0.1353
C25 C 0.8524(3) 0.2283(2) 0.1774(2)
H11 H 0.8683 0.2173 0.2215
C26 C 0.7975(2) 0.28627(19) 0.16348(17)
C27 C 0.7740(2) 0.30301(18) 0.09842(18)
H12 H 0.7372 0.3418 0.0896
C28 C 0.7824(3) 0.2791(2) -0.0252(2)
O19 O 0.7316(2) 0.33554(16) -0.03382(13)
H47 H 0.712(3) 0.340(2) -0.0734(12)
O20 O 0.8092(2) 0.24422(17) -0.07229(14)
O21 O 0.8918(2) 0.16132(17) 0.01086(15)
H48 H 0.871(3) 0.175(3) -0.0248(16)
O22 O 0.7114(2) 0.39719(14) 0.20749(13)
O23 O 0.69899(17) 0.28676(14) 0.26603(12)
O24 O 0.83340(18) 0.35317(18) 0.27560(14)
S4 S 0.75824(6) 0.33513(5) 0.23242(5)
C22 C 0.1946(2) 0.76187(19) 0.45454(18)
C23 C 0.1404(3) 0.7033(2) 0.4405(2)
C24 C 0.1170(3) 0.6877(2) 0.3741(2)
H10 H 0.0801 0.6491 0.3647
C25 C 0.1476(3) 0.7283(2) 0.3226(2)
H11 H 0.1317 0.7173 0.2785
C26 C 0.2025(2) 0.78627(19) 0.33652(17)
C27 C 0.2260(2) 0.80301(18) 0.40158(18)
H12 H 0.2628 0.8418 0.4104
C28 C 0.2176(3) 0.7791(2) 0.5252(2)
O19 O 0.2684(2) 0.83554(16) 0.53382(13)
H47 H 0.288(3) 0.840(2) 0.5734(12)
O20 O 0.1908(2) 0.74422(17) 0.57229(14)
O21 O 0.1082(2) 0.66132(17) 0.48914(15)
H48 H 0.129(3) 0.675(3) 0.5248(16)
O22 O 0.2886(2) 0.89719(14) 0.29251(13)
O23 O 0.30101(17) 0.78676(14) 0.23397(12)
O24 O 0.16660(18) 0.85317(18) 0.22440(14)
S4 S 0.24176(6) 0.83513(5) 0.26758(5)
C29 C 0.0403(2) 0.4033(2) 0.33730(17)
C30 C 0.0616(3) 0.3437(2) 0.37481(18)
H13 H 0.0555 0.2981 0.3564
C31 C 0.0923(3) 0.3523(2) 0.44014(19)
H14 H 0.1082 0.3121 0.4651
C32 C 0.1000(2) 0.41959(19) 0.46946(17)
C33 C 0.0770(2) 0.4789(2) 0.42990(17)
H15 H 0.0813 0.5247 0.4481
C34 C 0.0479(2) 0.4703(2) 0.36413(18)
H16 H 0.0334 0.5102 0.3382
C35 C 0.1301(2) 0.43006(19) 0.54032(17)
C36 C 0.1143(2) 0.37854(19) 0.58952(17)
H17 H 0.0860 0.3361 0.5773
C37 C 0.1394(2) 0.38905(19) 0.65577(18)
H18 H 0.1276 0.3544 0.6879
C38 C 0.1826(2) 0.45188(19) 0.67379(17)
C39 C 0.1991(2) 0.5037(2) 0.62680(17)
H19 H 0.2274 0.5460 0.6394
C40 C 0.1735(2) 0.4925(2) 0.56087(17)
H20 H 0.1854 0.5276 0.5291
N1 N 0.0069(2) 0.3950(2) 0.26813(16)
H29 H 0.042(2) 0.3678(17) 0.2454(16)
H30 H -0.0448(15) 0.3774(19) 0.2661(18)
H31 H 0.004(2) 0.4373(12) 0.2495(17)
N2 N 0.2081(2) 0.46402(18) 0.74452(17)
H32 H 0.2485(19) 0.4349(17) 0.7596(18)
H33 H 0.224(2) 0.5083(11) 0.7513(18)
H34 H 0.1670(19) 0.450(2) 0.7708(16)
C29 C 0.9597(2) 0.9033(2) 1.16270(17)
C30 C 0.9384(3) 0.8437(2) 1.12519(18)
H13 H 0.9445 0.7981 1.1436
C31 C 0.9077(3) 0.8523(2) 1.05986(19)
H14 H 0.8918 0.8121 1.0349
C32 C 0.9000(2) 0.91959(19) 1.03054(17)
C33 C 0.9230(2) 0.9789(2) 1.07010(17)
H15 H 0.9187 1.0247 1.0519
C34 C 0.9521(2) 0.9703(2) 1.13587(18)
H16 H 0.9666 1.0102 1.1618
C35 C 0.8699(2) 0.93006(19) 0.95968(17)
C36 C 0.8857(2) 0.87854(19) 0.91048(17)
H17 H 0.9140 0.8361 0.9227
C37 C 0.8606(2) 0.88905(19) 0.84423(18)
H18 H 0.8724 0.8544 0.8121
C38 C 0.8174(2) 0.95188(19) 0.82621(17)
C39 C 0.8009(2) 1.0037(2) 0.87320(17)
H19 H 0.7726 1.0460 0.8606
C40 C 0.8265(2) 0.9925(2) 0.93913(17)
H20 H 0.8146 1.0276 0.9709
N1 N 0.9931(2) 0.8950(2) 1.23187(16)
H29 H 0.958(2) 0.8678(17) 1.2546(16)
H30 H 1.0448(15) 0.8774(19) 1.2339(18)
H31 H 0.996(2) 0.9373(12) 1.2505(17)
N2 N 0.7919(2) 0.96402(18) 0.75548(17)
H32 H 0.7515(19) 0.9349(17) 0.7404(18)
H33 H 0.776(2) 1.0083(11) 0.7487(18)
H34 H 0.8330(19) 0.950(2) 0.7292(16)
C29 C 0.9597(2) 0.5967(2) 0.66270(17)
C30 C 0.9384(3) 0.6563(2) 0.62519(18)
H13 H 0.9445 0.7019 0.6436
C31 C 0.9077(3) 0.6477(2) 0.55986(19)
H14 H 0.8918 0.6879 0.5349
C32 C 0.9000(2) 0.58041(19) 0.53054(17)
C33 C 0.9230(2) 0.5211(2) 0.57010(17)
H15 H 0.9187 0.4753 0.5519
C34 C 0.9521(2) 0.5297(2) 0.63587(18)
H16 H 0.9666 0.4898 0.6618
C35 C 0.8699(2) 0.56994(19) 0.45968(17)
C36 C 0.8857(2) 0.62146(19) 0.41048(17)
H17 H 0.9140 0.6639 0.4227
C37 C 0.8606(2) 0.61095(19) 0.34423(18)
H18 H 0.8724 0.6456 0.3121
C38 C 0.8174(2) 0.54812(19) 0.32621(17)
C39 C 0.8009(2) 0.4963(2) 0.37320(17)
H19 H 0.7726 0.4540 0.3606
C40 C 0.8265(2) 0.5075(2) 0.43913(17)
H20 H 0.8146 0.4724 0.4709
N1 N 0.9931(2) 0.6050(2) 0.73187(16)
H29 H 0.958(2) 0.6322(17) 0.7546(16)
H30 H 1.0448(15) 0.6226(19) 0.7339(18)
H31 H 0.996(2) 0.5627(12) 0.7505(17)
N2 N 0.7919(2) 0.53598(18) 0.25548(17)
H32 H 0.7515(19) 0.5651(17) 0.2404(18)
H33 H 0.776(2) 0.4917(11) 0.2487(18)
H34 H 0.8330(19) 0.550(2) 0.2292(16)
C29 C 0.0403(2) 0.0967(2) -0.16270(17)
C30 C 0.0616(3) 0.1563(2) -0.12519(18)
H13 H 0.0555 0.2019 -0.1436
C31 C 0.0923(3) 0.1477(2) -0.05986(19)
H14 H 0.1082 0.1879 -0.0349
C32 C 0.1000(2) 0.08041(19) -0.03054(17)
C33 C 0.0770(2) 0.0211(2) -0.07010(17)
H15 H 0.0813 -0.0247 -0.0519
C34 C 0.0479(2) 0.0297(2) -0.13587(18)
H16 H 0.0334 -0.0102 -0.1618
C35 C 0.1301(2) 0.06994(19) 0.04032(17)
C36 C 0.1143(2) 0.12146(19) 0.08952(17)
H17 H 0.0860 0.1639 0.0773
C37 C 0.1394(2) 0.11095(19) 0.15577(18)
H18 H 0.1276 0.1456 0.1879
C38 C 0.1826(2) 0.04812(19) 0.17379(17)
C39 C 0.1991(2) -0.0037(2) 0.12680(17)
H19 H 0.2274 -0.0460 0.1394
C40 C 0.1735(2) 0.0075(2) 0.06087(17)
H20 H 0.1854 -0.0276 0.0291
N1 N 0.0069(2) 0.1050(2) -0.23187(16)
H29 H 0.042(2) 0.1322(17) -0.2546(16)
H30 H -0.0448(15) 0.1226(19) -0.2339(18)
H31 H 0.004(2) 0.0627(12) -0.2505(17)
N2 N 0.2081(2) 0.03598(18) 0.24452(17)
H32 H 0.2485(19) 0.0651(17) 0.2596(18)
H33 H 0.224(2) -0.0083(11) 0.2513(18)
H34 H 0.1670(19) 0.050(2) 0.2708(16)
C41 C 0.3075(2) 0.53242(19) 0.31286(16)
C42 C 0.3002(2) 0.4759(2) 0.35557(18)
H21 H 0.2792 0.4320 0.3398
C43 C 0.3240(2) 0.4842(2) 0.42268(18)
H22 H 0.3178 0.4456 0.4518
C44 C 0.3569(2) 0.54830(19) 0.44746(17)
C45 C 0.3642(3) 0.6049(2) 0.40229(18)
H23 H 0.3856 0.6489 0.4175
C46 C 0.3403(3) 0.5968(2) 0.33545(18)
H24 H 0.3464 0.6349 0.3058
C47 C 0.3834(2) 0.55790(19) 0.51960(17)
C48 C 0.4174(2) 0.50169(19) 0.55751(17)
H25 H 0.4240 0.4570 0.5375
C49 C 0.4415(2) 0.51032(19) 0.62408(18)
H26 H 0.4636 0.4717 0.6488
C50 C 0.4327(2) 0.57585(18) 0.65358(16)
C51 C 0.4007(2) 0.6332(2) 0.61722(18)
H27 H 0.3958 0.6779 0.6373
C52 C 0.3760(2) 0.62386(19) 0.55074(18)
H28 H 0.3539 0.6627 0.5264
N3 N 0.2826(2) 0.52599(18) 0.24137(17)
H35 H 0.270(2) 0.4824(11) 0.2319(18)
H36 H 0.2331(16) 0.5490(18) 0.2383(19)
H37 H 0.3239(19) 0.5442(19) 0.2169(16)
N4 N 0.4590(2) 0.58621(17) 0.72452(16)
H38 H 0.486(2) 0.5495(14) 0.7440(16)
H39 H 0.4977(19) 0.6210(15) 0.7265(18)
H40 H 0.4113(16) 0.5994(18) 0.7451(16)
C41 C 0.6925(2) 0.03242(19) 0.18714(16)
C42 C 0.6998(2) -0.0241(2) 0.14443(18)
H21 H 0.7208 -0.0680 0.1602
C43 C 0.6760(2) -0.0158(2) 0.07732(18)
H22 H 0.6822 -0.0544 0.0482
C44 C 0.6431(2) 0.04830(19) 0.05254(17)
C45 C 0.6358(3) 0.1049(2) 0.09771(18)
H23 H 0.6144 0.1489 0.0825
C46 C 0.6597(3) 0.0968(2) 0.16455(18)
H24 H 0.6536 0.1349 0.1942
C47 C 0.6166(2) 0.05790(19) -0.01960(17)
C48 C 0.5826(2) 0.00169(19) -0.05751(17)
H25 H 0.5760 -0.0430 -0.0375
C49 C 0.5585(2) 0.01032(19) -0.12408(18)
H26 H 0.5364 -0.0283 -0.1488
C50 C 0.5673(2) 0.07585(18) -0.15358(16)
C51 C 0.5993(2) 0.1332(2) -0.11722(18)
H27 H 0.6042 0.1779 -0.1373
C52 C 0.6240(2) 0.12386(19) -0.05074(18)
H28 H 0.6461 0.1627 -0.0264
N3 N 0.7174(2) 0.02599(18) 0.25863(17)
H35 H 0.730(2) -0.0176(11) 0.2681(18)
H36 H 0.7669(16) 0.0490(18) 0.2617(19)
H37 H 0.6761(19) 0.0442(19) 0.2831(16)
N4 N 0.5410(2) 0.08621(17) -0.22452(16)
H38 H 0.514(2) 0.0495(14) -0.2440(16)
H39 H 0.5023(19) 0.1210(15) -0.2265(18)
H40 H 0.5887(16) 0.0994(18) -0.2451(16)
C41 C 0.6925(2) 0.46758(19) 0.68714(16)
C42 C 0.6998(2) 0.5241(2) 0.64443(18)
H21 H 0.7208 0.5680 0.6602
C43 C 0.6760(2) 0.5158(2) 0.57732(18)
H22 H 0.6822 0.5544 0.5482
C44 C 0.6431(2) 0.45170(19) 0.55254(17)
C45 C 0.6358(3) 0.3951(2) 0.59771(18)
H23 H 0.6144 0.3511 0.5825
C46 C 0.6597(3) 0.4032(2) 0.66455(18)
H24 H 0.6536 0.3651 0.6942
C47 C 0.6166(2) 0.44210(19) 0.48040(17)
C48 C 0.5826(2) 0.49831(19) 0.44249(17)
H25 H 0.5760 0.5430 0.4625
C49 C 0.5585(2) 0.48968(19) 0.37592(18)
H26 H 0.5364 0.5283 0.3512
C50 C 0.5673(2) 0.42415(18) 0.34642(16)
C51 C 0.5993(2) 0.3668(2) 0.38278(18)
H27 H 0.6042 0.3221 0.3627
C52 C 0.6240(2) 0.37614(19) 0.44926(18)
H28 H 0.6461 0.3373 0.4736
N3 N 0.7174(2) 0.47401(18) 0.75863(17)
H35 H 0.730(2) 0.5176(11) 0.7681(18)
H36 H 0.7669(16) 0.4510(18) 0.7617(19)
H37 H 0.6761(19) 0.4558(19) 0.7831(16)
N4 N 0.5410(2) 0.41379(17) 0.27548(16)
H38 H 0.514(2) 0.4505(14) 0.2560(16)
H39 H 0.5023(19) 0.3790(15) 0.2735(18)
H40 H 0.5887(16) 0.4006(18) 0.2549(16)
C41 C 0.3075(2) 0.96758(19) 0.81286(16)
C42 C 0.3002(2) 1.0241(2) 0.85557(18)
H21 H 0.2792 1.0680 0.8398
C43 C 0.3240(2) 1.0158(2) 0.92268(18)
H22 H 0.3178 1.0544 0.9518
C44 C 0.3569(2) 0.95170(19) 0.94746(17)
C45 C 0.3642(3) 0.8951(2) 0.90229(18)
H23 H 0.3856 0.8511 0.9175
C46 C 0.3403(3) 0.9032(2) 0.83545(18)
H24 H 0.3464 0.8651 0.8058
C47 C 0.3834(2) 0.94210(19) 1.01960(17)
C48 C 0.4174(2) 0.99831(19) 1.05751(17)
H25 H 0.4240 1.0430 1.0375
C49 C 0.4415(2) 0.98968(19) 1.12408(18)
H26 H 0.4636 1.0283 1.1488
C50 C 0.4327(2) 0.92415(18) 1.15358(16)
C51 C 0.4007(2) 0.8668(2) 1.11722(18)
H27 H 0.3958 0.8221 1.1373
C52 C 0.3760(2) 0.87614(19) 1.05074(18)
H28 H 0.3539 0.8373 1.0264
N3 N 0.2826(2) 0.97401(18) 0.74137(17)
H35 H 0.270(2) 1.0176(11) 0.7319(18)
H36 H 0.2331(16) 0.9510(18) 0.7383(19)
H37 H 0.3239(19) 0.9558(19) 0.7169(16)
N4 N 0.4590(2) 0.91379(17) 1.22452(16)
H38 H 0.486(2) 0.9505(14) 1.2440(16)
H39 H 0.4977(19) 0.8790(15) 1.2265(18)
H40 H 0.4113(16) 0.9006(18) 1.2451(16)
O25 O 0.18352(19) 0.16493(15) 0.32023(14)
H49 H 0.203(3) 0.2021(15) 0.305(2)
H50 H 0.1305(13) 0.162(2) 0.313(2)
O25 O 0.81648(19) 0.66493(15) 0.17977(14)
H49 H 0.797(3) 0.7021(15) 0.195(2)
H50 H 0.8695(13) 0.662(2) 0.187(2)
O25 O 0.81648(19) 0.83507(15) 0.67977(14)
H49 H 0.797(3) 0.7979(15) 0.695(2)
H50 H 0.8695(13) 0.838(2) 0.687(2)
O25 O 0.18352(19) 0.33507(15) 0.82023(14)
H49 H 0.203(3) 0.2979(15) 0.805(2)
H50 H 0.1305(13) 0.338(2) 0.813(2)
O26 O 0.31347(19) 0.65699(16) 0.16198(15)
H51 H 0.291(3) 0.6941(16) 0.176(2)
H52 H 0.3662(13) 0.661(3) 0.169(2)
O26 O 0.68653(19) 0.15699(16) 0.33802(15)
H51 H 0.709(3) 0.1941(16) 0.324(2)
H52 H 0.6338(13) 0.161(3) 0.331(2)
O26 O 0.68653(19) 0.34301(16) 0.83802(15)
H51 H 0.709(3) 0.3059(16) 0.824(2)
H52 H 0.6338(13) 0.339(3) 0.831(2)
O26 O 0.31347(19) 0.84301(16) 0.66198(15)
H51 H 0.291(3) 0.8059(16) 0.676(2)
H52 H 0.3662(13) 0.839(3) 0.669(2)
O27 O 0.44273(19) 0.75037(17) 0.82263(15)
H53 H 0.400(2) 0.735(2) 0.7993(19)
H54 H 0.486(2) 0.747(3) 0.799(2)
O27 O 0.55727(19) 0.25037(17) 0.67737(15)
H53 H 0.600(2) 0.235(2) 0.7007(19)
H54 H 0.514(2) 0.247(3) 0.701(2)
O27 O 0.55727(19) 0.24963(17) 0.17737(15)
H53 H 0.600(2) 0.265(2) 0.2007(19)
H54 H 0.514(2) 0.253(3) 0.201(2)
O27 O 0.44273(19) 0.74963(17) 0.32263(15)
H53 H 0.400(2) 0.765(2) 0.2993(19)
H54 H 0.486(2) 0.753(3) 0.299(2)
O28 O 0.43106(19) 0.20264(16) 0.78836(17)
H55 H 0.3763(14) 0.197(3) 0.792(2)
H56 H 0.444(3) 0.2429(15) 0.805(2)
O28 O 0.56894(19) 0.70264(16) 0.71164(17)
H55 H 0.6237(14) 0.697(3) 0.708(2)
H56 H 0.556(3) 0.7429(15) 0.695(2)
O28 O 0.56894(19) 0.79736(16) 0.21164(17)
H55 H 0.6237(14) 0.803(3) 0.208(2)
H56 H 0.556(3) 0.7571(15) 0.195(2)
O28 O 0.43106(19) 0.29736(16) 0.28836(17)
H55 H 0.3763(14) 0.303(3) 0.292(2)
H56 H 0.444(3) 0.2571(15) 0.305(2)

#END
