./KAHRIW_from_xyz.cif_generated_by_CrystalShift
_symmetry_cell_setting triclinic
_symmetry_space_group_name_H-M 'P 1'
loop_
_symmetry_equiv_pos_site_id
_symmetry_equiv_pos_as_xyz
1 x,y,z
_cell_length_a 15.185100
_cell_length_b 18.658400
_cell_length_c 19.911400
_cell_angle_alpha 90.000000
_cell_angle_beta 91.300000
_cell_angle_gamma 90.000000
_cell_volume 5640.038323
loop_
_atom_site_label
_atom_site_type_symbol
_atom_site_fract_x
_atom_site_fract_y
_atom_site_fract_z
C1 C 0.304200 0.261830 0.026040
C2 C 0.363300 0.206500 0.042530
C3 C 0.373500 0.185610 0.108810
H4 H 0.412100 0.148600 0.119900
C5 C 0.327500 0.218650 0.158450
H6 H 0.334500 0.203600 0.202800
C7 C 0.270500 0.274680 0.142680
C8 C 0.259200 0.295550 0.076750
H9 H 0.220800 0.332900 0.066100
C10 C 0.289800 0.282400 -0.045130
O11 O 0.231500 0.333510 -0.054370
H12 H 0.221000 0.341000 -0.094900
O13 O 0.329580 0.253920 -0.091250
O14 O 0.411400 0.172560 -0.004030
H15 H 0.401000 0.191000 -0.041200
O16 O 0.221680 0.394350 0.195120
O17 O 0.118250 0.297220 0.193460
O18 O 0.244690 0.294090 0.269460
S19 S 0.210360 0.318450 0.204800
C20 C 0.695800 0.761830 0.473960
C21 C 0.636700 0.706500 0.457470
C22 C 0.626500 0.685610 0.391190
H23 H 0.587900 0.648600 0.380100
C24 C 0.672500 0.718650 0.341550
H25 H 0.665500 0.703600 0.297200
C26 C 0.729500 0.774680 0.357320
C27 C 0.740800 0.795550 0.423250
H28 H 0.779200 0.832900 0.433900
C29 C 0.710200 0.782400 0.545130
O30 O 0.768500 0.833510 0.554370
H31 H 0.779000 0.841000 0.594900
O32 O 0.670420 0.753920 0.591250
O33 O 0.588600 0.672560 0.504030
H34 H 0.599000 0.691000 0.541200
O35 O 0.778320 0.894350 0.304880
O36 O 0.881750 0.797220 0.306540
O37 O 0.755310 0.794090 0.230540
S38 S 0.789640 0.818450 0.295200
C39 C 0.695800 0.738170 0.973960
C40 C 0.636700 0.793500 0.957470
C41 C 0.626500 0.814390 0.891190
H42 H 0.587900 0.851400 0.880100
C43 C 0.672500 0.781350 0.841550
H44 H 0.665500 0.796400 0.797200
C45 C 0.729500 0.725320 0.857320
C46 C 0.740800 0.704450 0.923250
H47 H 0.779200 0.667100 0.933900
C48 C 0.710200 0.717600 1.045130
O49 O 0.768500 0.666490 1.054370
H50 H 0.779000 0.659000 1.094900
O51 O 0.670420 0.746080 1.091250
O52 O 0.588600 0.827440 1.004030
H53 H 0.599000 0.809000 1.041200
O54 O 0.778320 0.605650 0.804880
O55 O 0.881750 0.702780 0.806540
O56 O 0.755310 0.705910 0.730540
S57 S 0.789640 0.681550 0.795200
C58 C 0.304200 0.238170 0.526040
C59 C 0.363300 0.293500 0.542530
C60 C 0.373500 0.314390 0.608810
H61 H 0.412100 0.351400 0.619900
C62 C 0.327500 0.281350 0.658450
H63 H 0.334500 0.296400 0.702800
C64 C 0.270500 0.225320 0.642680
C65 C 0.259200 0.204450 0.576750
H66 H 0.220800 0.167100 0.566100
C67 C 0.289800 0.217600 0.454870
O68 O 0.231500 0.166490 0.445630
H69 H 0.221000 0.159000 0.405100
O70 O 0.329580 0.246080 0.408750
O71 O 0.411400 0.327440 0.495970
H72 H 0.401000 0.309000 0.458800
O73 O 0.221680 0.105650 0.695120
O74 O 0.118250 0.202780 0.693460
O75 O 0.244690 0.205910 0.769460
S76 S 0.210360 0.181550 0.704800
C77 C 0.055200 0.589480 -0.016440
C78 C 0.113900 0.532480 -0.025190
C79 C 0.146600 0.495020 0.029880
H80 H 0.185600 0.457200 0.023700
C81 C 0.122100 0.513250 0.093510
H82 H 0.144000 0.487500 0.130200
C83 C 0.064100 0.570360 0.103510
C84 C 0.031000 0.607910 0.049380
H85 H -0.007600 0.645800 0.056100
C86 C 0.018200 0.625540 -0.076370
O87 O -0.040240 0.677070 -0.064380
H88 H -0.060000 0.690000 -0.100900
O89 O 0.038310 0.609810 -0.133070
O90 O 0.141370 0.510980 -0.086180
H91 H 0.116000 0.536000 -0.114800
O92 O -0.004810 0.661030 0.186000
O93 O 0.114770 0.586480 0.227170
O94 O -0.028140 0.535180 0.207150
S95 S 0.034500 0.590400 0.187030
C96 C 0.944800 0.089480 0.516440
C97 C 0.886100 0.032480 0.525190
C98 C 0.853400 -0.004980 0.470120
H99 H 0.814400 -0.042800 0.476300
C100 C 0.877900 0.013250 0.406490
H101 H 0.856000 -0.012500 0.369800
C102 C 0.935900 0.070360 0.396490
C103 C 0.969000 0.107910 0.450620
H104 H 1.007600 0.145800 0.443900
C105 C 0.981800 0.125540 0.576370
O106 O 1.040240 0.177070 0.564380
H107 H 1.060000 0.190000 0.600900
O108 O 0.961690 0.109810 0.633070
O109 O 0.858630 0.010980 0.586180
H110 H 0.884000 0.036000 0.614800
O111 O 1.004810 0.161030 0.314000
O112 O 0.885230 0.086480 0.272830
O113 O 1.028140 0.035180 0.292850
S114 S 0.965500 0.090400 0.312970
C115 C 0.944800 0.410520 1.016440
C116 C 0.886100 0.467520 1.025190
C117 C 0.853400 0.504980 0.970120
H118 H 0.814400 0.542800 0.976300
C119 C 0.877900 0.486750 0.906490
H120 H 0.856000 0.512500 0.869800
C121 C 0.935900 0.429640 0.896490
C122 C 0.969000 0.392090 0.950620
H123 H 1.007600 0.354200 0.943900
C124 C 0.981800 0.374460 1.076370
O125 O 1.040240 0.322930 1.064380
H126 H 1.060000 0.310000 1.100900
O127 O 0.961690 0.390190 1.133070
O128 O 0.858630 0.489020 1.086180
H129 H 0.884000 0.464000 1.114800
O130 O 1.004810 0.338970 0.814000
O131 O 0.885230 0.413520 0.772830
O132 O 1.028140 0.464820 0.792850
S133 S 0.965500 0.409600 0.812970
C134 C 0.055200 0.910520 0.483560
C135 C 0.113900 0.967520 0.474810
C136 C 0.146600 1.004980 0.529880
H137 H 0.185600 1.042800 0.523700
C138 C 0.122100 0.986750 0.593510
H139 H 0.144000 1.012500 0.630200
C140 C 0.064100 0.929640 0.603510
C141 C 0.031000 0.892090 0.549380
H142 H -0.007600 0.854200 0.556100
C143 C 0.018200 0.874460 0.423630
O144 O -0.040240 0.822930 0.435620
H145 H -0.060000 0.810000 0.399100
O146 O 0.038310 0.890190 0.366930
O147 O 0.141370 0.989020 0.413820
H148 H 0.116000 0.964000 0.385200
O149 O -0.004810 0.838970 0.686000
O150 O 0.114770 0.913520 0.727170
O151 O -0.028140 0.964820 0.707150
S152 S 0.034500 0.909600 0.687030
C153 C 0.444000 0.411830 1.016960
C154 C 0.385800 0.469910 1.025490
C155 C 0.353700 0.507000 0.969440
H156 H 0.316000 0.545700 0.975100
C157 C 0.376900 0.487190 0.906120
H158 H 0.354500 0.512200 0.869100
C159 C 0.434000 0.429780 0.896690
C160 C 0.467500 0.392310 0.951740
H161 H 0.505600 0.354100 0.945400
C162 C 0.478000 0.373290 1.076510
O163 O 0.530980 0.319750 1.063600
H164 H 0.546000 0.298000 1.098400
O165 O 0.458320 0.390000 1.133860
O166 O 0.359600 0.491630 1.086490
H167 H 0.388000 0.466000 1.112200
O168 O 0.525870 0.461510 0.791630
O169 O 0.383360 0.408280 0.773190
O170 O 0.504760 0.337080 0.818220
S171 S 0.463530 0.407260 0.813790
C172 C 0.556000 0.911830 0.483040
C173 C 0.614200 0.969910 0.474510
C174 C 0.646300 1.007000 0.530560
H175 H 0.684000 1.045700 0.524900
C176 C 0.623100 0.987190 0.593880
H177 H 0.645500 1.012200 0.630900
C178 C 0.566000 0.929780 0.603310
C179 C 0.532500 0.892310 0.548260
H180 H 0.494400 0.854100 0.554600
C181 C 0.522000 0.873290 0.423490
O182 O 0.469020 0.819750 0.436400
H183 H 0.454000 0.798000 0.401600
O184 O 0.541680 0.890000 0.366140
O185 O 0.640400 0.991630 0.413510
H186 H 0.612000 0.966000 0.387800
O187 O 0.474130 0.961510 0.708370
O188 O 0.616640 0.908280 0.726810
O189 O 0.495240 0.837080 0.681780
S190 S 0.536470 0.907260 0.686210
C191 C 0.556000 0.588170 -0.016960
C192 C 0.614200 0.530090 -0.025490
C193 C 0.646300 0.493000 0.030560
H194 H 0.684000 0.454300 0.024900
C195 C 0.623100 0.512810 0.093880
H196 H 0.645500 0.487800 0.130900
C197 C 0.566000 0.570220 0.103310
C198 C 0.532500 0.607690 0.048260
H199 H 0.494400 0.645900 0.054600
C200 C 0.522000 0.626710 -0.076510
O201 O 0.469020 0.680250 -0.063600
H202 H 0.454000 0.702000 -0.098400
O203 O 0.541680 0.610000 -0.133860
O204 O 0.640400 0.508370 -0.086490
H205 H 0.612000 0.534000 -0.112200
O206 O 0.474130 0.538490 0.208370
O207 O 0.616640 0.591720 0.226810
O208 O 0.495240 0.662920 0.181780
S209 S 0.536470 0.592740 0.186210
C210 C 0.444000 0.088170 0.516960
C211 C 0.385800 0.030090 0.525490
C212 C 0.353700 -0.007000 0.469440
H213 H 0.316000 -0.045700 0.475100
C214 C 0.376900 0.012810 0.406120
H215 H 0.354500 -0.012200 0.369100
C216 C 0.434000 0.070220 0.396690
C217 C 0.467500 0.107690 0.451740
H218 H 0.505600 0.145900 0.445400
C219 C 0.478000 0.126710 0.576510
O220 O 0.530980 0.180250 0.563600
H221 H 0.546000 0.202000 0.598400
O222 O 0.458320 0.110000 0.633860
O223 O 0.359600 0.008370 0.586490
H224 H 0.388000 0.034000 0.612200
O225 O 0.525870 0.038490 0.291630
O226 O 0.383360 0.091720 0.273190
O227 O 0.504760 0.162920 0.318220
S228 S 0.463530 0.092740 0.313790
C229 C 0.194600 0.738130 0.954540
C230 C 0.140400 0.796700 0.940500
C231 C 0.117000 0.812300 0.874100
H232 H 0.080100 0.850900 0.864700
C233 C 0.147600 0.771700 0.822600
H234 H 0.131700 0.782700 0.778500
C235 C 0.202500 0.713730 0.836520
C236 C 0.226000 0.696990 0.901580
H237 H 0.262800 0.658200 0.910400
C238 C 0.217600 0.720900 1.025200
O239 O 0.268400 0.664460 1.033820
H240 H 0.288000 0.660000 1.073400
O241 O 0.190800 0.755780 1.072290
O242 O 0.108200 0.838680 0.989140
H243 H 0.129000 0.825000 1.024800
O244 O 0.288600 0.602810 0.792510
O245 O 0.301010 0.713240 0.733970
O246 O 0.166600 0.646830 0.724400
S247 S 0.241760 0.664870 0.767580
C248 C 0.805400 0.238130 0.545460
C249 C 0.859600 0.296700 0.559500
C250 C 0.883000 0.312300 0.625900
H251 H 0.919900 0.350900 0.635300
C252 C 0.852400 0.271700 0.677400
H253 H 0.868300 0.282700 0.721500
C254 C 0.797500 0.213730 0.663480
C255 C 0.774000 0.196990 0.598420
H256 H 0.737200 0.158200 0.589600
C257 C 0.782400 0.220900 0.474800
O258 O 0.731600 0.164460 0.466180
H259 H 0.712000 0.160000 0.426600
O260 O 0.809200 0.255780 0.427710
O261 O 0.891800 0.338680 0.510860
H262 H 0.871000 0.325000 0.475200
O263 O 0.711400 0.102810 0.707490
O264 O 0.698990 0.213240 0.766030
O265 O 0.833400 0.146830 0.775600
S266 S 0.758240 0.164870 0.732420
C267 C 0.805400 0.261870 0.045460
C268 C 0.859600 0.203300 0.059500
C269 C 0.883000 0.187700 0.125900
H270 H 0.919900 0.149100 0.135300
C271 C 0.852400 0.228300 0.177400
H272 H 0.868300 0.217300 0.221500
C273 C 0.797500 0.286270 0.163480
C274 C 0.774000 0.303010 0.098420
H275 H 0.737200 0.341800 0.089600
C276 C 0.782400 0.279100 -0.025200
O277 O 0.731600 0.335540 -0.033820
H278 H 0.712000 0.340000 -0.073400
O279 O 0.809200 0.244220 -0.072290
O280 O 0.891800 0.161320 0.010860
H281 H 0.871000 0.175000 -0.024800
O282 O 0.711400 0.397190 0.207490
O283 O 0.698990 0.286760 0.266030
O284 O 0.833400 0.353170 0.275600
S285 S 0.758240 0.335130 0.232420
C286 C 0.194600 0.761870 0.454540
C287 C 0.140400 0.703300 0.440500
C288 C 0.117000 0.687700 0.374100
H289 H 0.080100 0.649100 0.364700
C290 C 0.147600 0.728300 0.322600
H291 H 0.131700 0.717300 0.278500
C292 C 0.202500 0.786270 0.336520
C293 C 0.226000 0.803010 0.401580
H294 H 0.262800 0.841800 0.410400
C295 C 0.217600 0.779100 0.525200
O296 O 0.268400 0.835540 0.533820
H297 H 0.288000 0.840000 0.573400
O298 O 0.190800 0.744220 0.572290
O299 O 0.108200 0.661320 0.489140
H300 H 0.129000 0.675000 0.524800
O301 O 0.288600 0.897190 0.292510
O302 O 0.301010 0.786760 0.233970
O303 O 0.166600 0.853170 0.224400
S304 S 0.241760 0.835130 0.267580
C305 C 0.040300 0.403300 0.337300
C306 C 0.061600 0.343700 0.374810
H307 H 0.055500 0.298100 0.356400
C308 C 0.092300 0.352300 0.440140
H309 H 0.108200 0.312100 0.465100
C310 C 0.100000 0.419590 0.469460
C311 C 0.077000 0.478900 0.429900
H312 H 0.081300 0.524700 0.448100
C313 C 0.047900 0.470300 0.364130
H314 H 0.033400 0.510200 0.338200
C315 C 0.130100 0.430060 0.540320
C316 C 0.114300 0.378540 0.589520
H317 H 0.086000 0.336100 0.577300
C318 C 0.139400 0.389050 0.655770
H319 H 0.127600 0.354400 0.687900
C320 C 0.182600 0.451880 0.673790
C321 C 0.199100 0.503700 0.626800
H322 H 0.227400 0.546000 0.639400
C323 C 0.173500 0.492500 0.560870
H324 H 0.185400 0.527600 0.529100
N325 N 0.006900 0.395000 0.268130
H326 H 0.042000 0.367800 0.245400
H327 H -0.044800 0.377400 0.266100
H328 H 0.004000 0.437300 0.249500
N329 N 0.208100 0.464020 0.744520
H330 H 0.248500 0.434900 0.759600
H331 H 0.224000 0.508300 0.751300
H332 H 0.167000 0.450000 0.770800
C333 C 0.959700 0.903300 1.162700
C334 C 0.938400 0.843700 1.125190
H335 H 0.944500 0.798100 1.143600
C336 C 0.907700 0.852300 1.059860
H337 H 0.891800 0.812100 1.034900
C338 C 0.900000 0.919590 1.030540
C339 C 0.923000 0.978900 1.070100
H340 H 0.918700 1.024700 1.051900
C341 C 0.952100 0.970300 1.135870
H342 H 0.966600 1.010200 1.161800
C343 C 0.869900 0.930060 0.959680
C344 C 0.885700 0.878540 0.910480
H345 H 0.914000 0.836100 0.922700
C346 C 0.860600 0.889050 0.844230
H347 H 0.872400 0.854400 0.812100
C348 C 0.817400 0.951880 0.826210
C349 C 0.800900 1.003700 0.873200
H350 H 0.772600 1.046000 0.860600
C351 C 0.826500 0.992500 0.939130
H352 H 0.814600 1.027600 0.970900
N353 N 0.993100 0.895000 1.231870
H354 H 0.958000 0.867800 1.254600
H355 H 1.044800 0.877400 1.233900
H356 H 0.996000 0.937300 1.250500
N357 N 0.791900 0.964020 0.755480
H358 H 0.751500 0.934900 0.740400
H359 H 0.776000 1.008300 0.748700
H360 H 0.833000 0.950000 0.729200
C361 C 0.959700 0.596700 0.662700
C362 C 0.938400 0.656300 0.625190
H363 H 0.944500 0.701900 0.643600
C364 C 0.907700 0.647700 0.559860
H365 H 0.891800 0.687900 0.534900
C366 C 0.900000 0.580410 0.530540
C367 C 0.923000 0.521100 0.570100
H368 H 0.918700 0.475300 0.551900
C369 C 0.952100 0.529700 0.635870
H370 H 0.966600 0.489800 0.661800
C371 C 0.869900 0.569940 0.459680
C372 C 0.885700 0.621460 0.410480
H373 H 0.914000 0.663900 0.422700
C374 C 0.860600 0.610950 0.344230
H375 H 0.872400 0.645600 0.312100
C376 C 0.817400 0.548120 0.326210
C377 C 0.800900 0.496300 0.373200
H378 H 0.772600 0.454000 0.360600
C379 C 0.826500 0.507500 0.439130
H380 H 0.814600 0.472400 0.470900
N381 N 0.993100 0.605000 0.731870
H382 H 0.958000 0.632200 0.754600
H383 H 1.044800 0.622600 0.733900
H384 H 0.996000 0.562700 0.750500
N385 N 0.791900 0.535980 0.255480
H386 H 0.751500 0.565100 0.240400
H387 H 0.776000 0.491700 0.248700
H388 H 0.833000 0.550000 0.229200
C389 C 0.040300 0.096700 -0.162700
C390 C 0.061600 0.156300 -0.125190
H391 H 0.055500 0.201900 -0.143600
C392 C 0.092300 0.147700 -0.059860
H393 H 0.108200 0.187900 -0.034900
C394 C 0.100000 0.080410 -0.030540
C395 C 0.077000 0.021100 -0.070100
H396 H 0.081300 -0.024700 -0.051900
C397 C 0.047900 0.029700 -0.135870
H398 H 0.033400 -0.010200 -0.161800
C399 C 0.130100 0.069940 0.040320
C400 C 0.114300 0.121460 0.089520
H401 H 0.086000 0.163900 0.077300
C402 C 0.139400 0.110950 0.155770
H403 H 0.127600 0.145600 0.187900
C404 C 0.182600 0.048120 0.173790
C405 C 0.199100 -0.003700 0.126800
H406 H 0.227400 -0.046000 0.139400
C407 C 0.173500 0.007500 0.060870
H408 H 0.185400 -0.027600 0.029100
N409 N 0.006900 0.105000 -0.231870
H410 H 0.042000 0.132200 -0.254600
H411 H -0.044800 0.122600 -0.233900
H412 H 0.004000 0.062700 -0.250500
N413 N 0.208100 0.035980 0.244520
H414 H 0.248500 0.065100 0.259600
H415 H 0.224000 -0.008300 0.251300
H416 H 0.167000 0.050000 0.270800
C417 C 0.307500 0.532420 0.312860
C418 C 0.300200 0.475900 0.355570
H419 H 0.279200 0.432000 0.339800
C420 C 0.324000 0.484200 0.422680
H421 H 0.317800 0.445600 0.451800
C422 C 0.356900 0.548300 0.447460
C423 C 0.364200 0.604900 0.402290
H424 H 0.385600 0.648900 0.417500
C425 C 0.340300 0.596800 0.335450
H426 H 0.346400 0.634900 0.305800
C427 C 0.383400 0.557900 0.519600
C428 C 0.417400 0.501690 0.557510
H429 H 0.424000 0.457000 0.537500
C430 C 0.441500 0.510320 0.624080
H431 H 0.463600 0.471700 0.648800
C432 C 0.432700 0.575850 0.653580
C433 C 0.400700 0.633200 0.617220
H434 H 0.395800 0.677900 0.637300
C435 C 0.376000 0.623860 0.550740
H436 H 0.353900 0.662700 0.526400
N437 N 0.282600 0.525990 0.241370
H438 H 0.270000 0.482400 0.231900
H439 H 0.233100 0.549000 0.238300
H440 H 0.323900 0.544200 0.216900
N441 N 0.459000 0.586210 0.724520
H442 H 0.486000 0.549500 0.744000
H443 H 0.497700 0.621000 0.726500
H444 H 0.411300 0.599400 0.745100
C445 C 0.692500 0.032420 0.187140
C446 C 0.699800 -0.024100 0.144430
H447 H 0.720800 -0.068000 0.160200
C448 C 0.676000 -0.015800 0.077320
H449 H 0.682200 -0.054400 0.048200
C450 C 0.643100 0.048300 0.052540
C451 C 0.635800 0.104900 0.097710
H452 H 0.614400 0.148900 0.082500
C453 C 0.659700 0.096800 0.164550
H454 H 0.653600 0.134900 0.194200
C455 C 0.616600 0.057900 -0.019600
C456 C 0.582600 0.001690 -0.057510
H457 H 0.576000 -0.043000 -0.037500
C458 C 0.558500 0.010320 -0.124080
H459 H 0.536400 -0.028300 -0.148800
C460 C 0.567300 0.075850 -0.153580
C461 C 0.599300 0.133200 -0.117220
H462 H 0.604200 0.177900 -0.137300
C463 C 0.624000 0.123860 -0.050740
H464 H 0.646100 0.162700 -0.026400
N465 N 0.717400 0.025990 0.258630
H466 H 0.730000 -0.017600 0.268100
H467 H 0.766900 0.049000 0.261700
H468 H 0.676100 0.044200 0.283100
N469 N 0.541000 0.086210 -0.224520
H470 H 0.514000 0.049500 -0.244000
H471 H 0.502300 0.121000 -0.226500
H472 H 0.588700 0.099400 -0.245100
C473 C 0.692500 0.467580 0.687140
C474 C 0.699800 0.524100 0.644430
H475 H 0.720800 0.568000 0.660200
C476 C 0.676000 0.515800 0.577320
H477 H 0.682200 0.554400 0.548200
C478 C 0.643100 0.451700 0.552540
C479 C 0.635800 0.395100 0.597710
H480 H 0.614400 0.351100 0.582500
C481 C 0.659700 0.403200 0.664550
H482 H 0.653600 0.365100 0.694200
C483 C 0.616600 0.442100 0.480400
C484 C 0.582600 0.498310 0.442490
H485 H 0.576000 0.543000 0.462500
C486 C 0.558500 0.489680 0.375920
H487 H 0.536400 0.528300 0.351200
C488 C 0.567300 0.424150 0.346420
C489 C 0.599300 0.366800 0.382780
H490 H 0.604200 0.322100 0.362700
C491 C 0.624000 0.376140 0.449260
H492 H 0.646100 0.337300 0.473600
N493 N 0.717400 0.474010 0.758630
H494 H 0.730000 0.517600 0.768100
H495 H 0.766900 0.451000 0.761700
H496 H 0.676100 0.455800 0.783100
N497 N 0.541000 0.413790 0.275480
H498 H 0.514000 0.450500 0.256000
H499 H 0.502300 0.379000 0.273500
H500 H 0.588700 0.400600 0.254900
C501 C 0.307500 0.967580 0.812860
C502 C 0.300200 1.024100 0.855570
H503 H 0.279200 1.068000 0.839800
C504 C 0.324000 1.015800 0.922680
H505 H 0.317800 1.054400 0.951800
C506 C 0.356900 0.951700 0.947460
C507 C 0.364200 0.895100 0.902290
H508 H 0.385600 0.851100 0.917500
C509 C 0.340300 0.903200 0.835450
H510 H 0.346400 0.865100 0.805800
C511 C 0.383400 0.942100 1.019600
C512 C 0.417400 0.998310 1.057510
H513 H 0.424000 1.043000 1.037500
C514 C 0.441500 0.989680 1.124080
H515 H 0.463600 1.028300 1.148800
C516 C 0.432700 0.924150 1.153580
C517 C 0.400700 0.866800 1.117220
H518 H 0.395800 0.822100 1.137300
C519 C 0.376000 0.876140 1.050740
H520 H 0.353900 0.837300 1.026400
N521 N 0.282600 0.974010 0.741370
H522 H 0.270000 1.017600 0.731900
H523 H 0.233100 0.951000 0.738300
H524 H 0.323900 0.955800 0.716900
N525 N 0.459000 0.913790 1.224520
H526 H 0.486000 0.950500 1.244000
H527 H 0.497700 0.879000 1.226500
H528 H 0.411300 0.900600 1.245100
O529 O 0.183520 0.164930 0.320230
H530 H 0.203000 0.202100 0.305000
H531 H 0.130500 0.162000 0.313000
O532 O 0.816480 0.664930 0.179770
H533 H 0.797000 0.702100 0.195000
H534 H 0.869500 0.662000 0.187000
O535 O 0.816480 0.835070 0.679770
H536 H 0.797000 0.797900 0.695000
H537 H 0.869500 0.838000 0.687000
O538 O 0.183520 0.335070 0.820230
H539 H 0.203000 0.297900 0.805000
H540 H 0.130500 0.338000 0.813000
O541 O 0.313470 0.656990 0.161980
H542 H 0.291000 0.694100 0.176000
H543 H 0.366200 0.661000 0.169000
O544 O 0.686530 0.156990 0.338020
H545 H 0.709000 0.194100 0.324000
H546 H 0.633800 0.161000 0.331000
O547 O 0.686530 0.343010 0.838020
H548 H 0.709000 0.305900 0.824000
H549 H 0.633800 0.339000 0.831000
O550 O 0.313470 0.843010 0.661980
H551 H 0.291000 0.805900 0.676000
H552 H 0.366200 0.839000 0.669000
O553 O 0.442730 0.750370 0.822630
H554 H 0.400000 0.735000 0.799300
H555 H 0.486000 0.747000 0.799000
O556 O 0.557270 0.250370 0.677370
H557 H 0.600000 0.235000 0.700700
H558 H 0.514000 0.247000 0.701000
O559 O 0.557270 0.249630 0.177370
H560 H 0.600000 0.265000 0.200700
H561 H 0.514000 0.253000 0.201000
O562 O 0.442730 0.749630 0.322630
H563 H 0.400000 0.765000 0.299300
H564 H 0.486000 0.753000 0.299000
O565 O 0.431060 0.202640 0.788360
H566 H 0.376300 0.197000 0.792000
H567 H 0.444000 0.242900 0.805000
O568 O 0.568940 0.702640 0.711640
H569 H 0.623700 0.697000 0.708000
H570 H 0.556000 0.742900 0.695000
O571 O 0.568940 0.797360 0.211640
H572 H 0.623700 0.803000 0.208000
H573 H 0.556000 0.757100 0.195000
O574 O 0.431060 0.297360 0.288360
H575 H 0.376300 0.303000 0.292000
H576 H 0.444000 0.257100 0.305000

#END
