
#######################################################################
#
#                 Cambridge Crystallographic Data Centre
#                                CCDC 
#
#######################################################################
#
# If this CIF has been generated from an entry in the Cambridge 
# Structural Database, then it will include bibliographic, chemical, 
# crystal, experimental, refinement or atomic coordinate data resulting 
# from the CCDC's data processing and validation procedures.
#
#######################################################################

data_KAHSIX
_symmetry_cell_setting           triclinic
_symmetry_space_group_name_H-M   'P -1'
_symmetry_Int_Tables_number      2
_space_group_name_Hall           '-P 1'
loop_
_symmetry_equiv_pos_site_id
_symmetry_equiv_pos_as_xyz
1 x,y,z
2 -x,-y,-z
_cell_length_a                   4.1760(6)
_cell_length_b                   11.296(2)
_cell_length_c                   12.070(3)
_cell_angle_alpha                116.929(15)
_cell_angle_beta                 90.478(13)
_cell_angle_gamma                95.767(15)
_cell_volume                     504.129
loop_
_atom_site_label
_atom_site_type_symbol
_atom_site_fract_x
_atom_site_fract_y
_atom_site_fract_z
N1 N 0.5465(5) 0.3773(2) 0.24882(18)
C1 C 0.4461(6) 0.2993(2) 0.3000(2)
N2 N 0.5053(5) 0.17523(19) 0.26691(18)
C2 C 0.6852(6) 0.1246(2) 0.1696(2)
C3 C 0.8071(6) 0.1937(2) 0.1079(2)
H1 H 0.9377 0.1559 0.0391
C4 C 0.7264(6) 0.3219(2) 0.1530(2)
N3 N 0.2476(5) 0.3594(2) 0.39712(18)
H2 H 0.2078 0.4398 0.4107
C5 C 0.1051(6) 0.3162(2) 0.4742(2)
O1 O -0.0883(4) 0.38088(16) 0.54600(15)
C6 C 0.1928(6) 0.1902(3) 0.4747(2)
H3 H 0.1494 0.1144 0.3903
H4 H 0.4256 0.2008 0.4979
C7 C 0.0062(6) 0.1624(2) 0.5627(2)
N4 N -0.1415(6) 0.1386(2) 0.6301(2)
O2 O 0.7527(4) -0.00101(17) 0.12940(16)
C8 C 0.5930(7) -0.0778(3) 0.1846(2)
H5 H 0.6631 -0.0379 0.2730
H6 H 0.6477 -0.1698 0.1424
H7 H 0.3593 -0.0783 0.1761
O3 O 0.8334(4) 0.39282(17) 0.09430(16)
C9 C 0.7600(8) 0.5286(3) 0.1461(3)
H8 H 0.5263 0.5299 0.1515
H9 H 0.8373 0.5685 0.0927
H10 H 0.8665 0.5800 0.2296
N1 N 0.4535(5) 0.6227(2) 0.75118(18)
C1 C 0.5539(6) 0.7007(2) 0.7000(2)
N2 N 0.4947(5) 0.82477(19) 0.73309(18)
C2 C 0.3148(6) 0.8754(2) 0.8304(2)
C3 C 0.1929(6) 0.8063(2) 0.8921(2)
H1 H 0.0623 0.8441 0.9609
C4 C 0.2736(6) 0.6781(2) 0.8470(2)
N3 N 0.7524(5) 0.6406(2) 0.60288(18)
H2 H 0.7922 0.5602 0.5893
C5 C 0.8949(6) 0.6838(2) 0.5258(2)
O1 O 1.0883(4) 0.61912(16) 0.45400(15)
C6 C 0.8072(6) 0.8098(3) 0.5253(2)
H3 H 0.8506 0.8856 0.6097
H4 H 0.5744 0.7992 0.5021
C7 C 0.9938(6) 0.8376(2) 0.4373(2)
N4 N 1.1415(6) 0.8614(2) 0.3699(2)
O2 O 0.2473(4) 1.00101(17) 0.87060(16)
C8 C 0.4070(7) 1.0778(3) 0.8154(2)
H5 H 0.3369 1.0379 0.7270
H6 H 0.3523 1.1698 0.8576
H7 H 0.6407 1.0783 0.8239
O3 O 0.1666(4) 0.60718(17) 0.90570(16)
C9 C 0.2400(8) 0.4714(3) 0.8539(3)
H8 H 0.4737 0.4701 0.8485
H9 H 0.1627 0.4315 0.9073
H10 H 0.1335 0.4200 0.7704

#END
