./KAHSOD_from_xyz.cif_generated_by_CrystalShift
_symmetry_cell_setting triclinic
_symmetry_space_group_name_H-M 'P 1'
loop_
_symmetry_equiv_pos_site_id
_symmetry_equiv_pos_as_xyz
1 x,y,z
_cell_length_a 17.467000
_cell_length_b 9.205000
_cell_length_c 18.183000
_cell_angle_alpha 90.000000
_cell_angle_beta 90.000000
_cell_angle_gamma 90.000000
_cell_volume 2923.530654
loop_
_atom_site_label
_atom_site_type_symbol
_atom_site_fract_x
_atom_site_fract_y
_atom_site_fract_z
C1 C 0.256740 0.731810 0.333380
C2 C 0.238120 0.799950 0.398220
H3 H 0.191100 0.846500 0.403100
C4 C 0.289250 0.799180 0.456040
H5 H 0.276200 0.843500 0.500300
C6 C 0.359270 0.733210 0.448480
H7 H 0.393800 0.733400 0.487400
C8 C 0.377990 0.667410 0.383690
H9 H 0.425600 0.623400 0.378500
C10 C 0.326890 0.665500 0.325800
H11 H 0.339800 0.619700 0.281900
C12 C 0.123350 0.703560 0.292830
C13 C 0.104240 0.574530 0.327160
H14 H 0.141500 0.504300 0.335700
C15 C 0.029510 0.550860 0.348680
H16 H 0.016600 0.464700 0.372300
C17 C -0.025770 0.653100 0.335570
H18 H -0.076000 0.636100 0.350100
C19 C -0.006970 0.780620 0.300930
H20 H -0.044700 0.849400 0.291400
C21 C 0.067900 0.807240 0.280100
H22 H 0.080800 0.894600 0.257600
C23 C 0.225150 0.773920 0.204990
C24 C 0.170500 0.754850 0.142300
C25 C 0.161740 0.868990 0.093440
H26 H 0.187700 0.955700 0.101500
C27 C 0.115020 0.855200 0.033260
H28 H 0.108100 0.933700 0.001800
C29 C 0.078570 0.726820 0.019230
H30 H 0.047300 0.717800 -0.021900
C31 C 0.088230 0.611050 0.066090
H32 H 0.064100 0.523200 0.056100
C33 C 0.133890 0.624790 0.128220
H34 H 0.139800 0.546800 0.160200
N35 N 0.202320 0.730110 0.273790
O36 O 0.288800 0.823910 0.194180
C37 C 0.243260 0.268190 0.833380
C38 C 0.261880 0.200050 0.898220
H39 H 0.308900 0.153500 0.903100
C40 C 0.210750 0.200820 0.956040
H41 H 0.223800 0.156500 1.000300
C42 C 0.140730 0.266790 0.948480
H43 H 0.106200 0.266600 0.987400
C44 C 0.122010 0.332590 0.883690
H45 H 0.074400 0.376600 0.878500
C46 C 0.173110 0.334500 0.825800
H47 H 0.160200 0.380300 0.781900
C48 C 0.376650 0.296440 0.792830
C49 C 0.395760 0.425470 0.827160
H50 H 0.358500 0.495700 0.835700
C51 C 0.470490 0.449140 0.848680
H52 H 0.483400 0.535300 0.872300
C53 C 0.525770 0.346900 0.835570
H54 H 0.576000 0.363900 0.850100
C55 C 0.506970 0.219380 0.800930
H56 H 0.544700 0.150600 0.791400
C57 C 0.432100 0.192760 0.780100
H58 H 0.419200 0.105400 0.757600
C59 C 0.274850 0.226080 0.704990
C60 C 0.329500 0.245150 0.642300
C61 C 0.338260 0.131010 0.593440
H62 H 0.312300 0.044300 0.601500
C63 C 0.384980 0.144800 0.533260
H64 H 0.391900 0.066300 0.501800
C65 C 0.421430 0.273180 0.519230
H66 H 0.452700 0.282200 0.478100
C67 C 0.411770 0.388950 0.566090
H68 H 0.435900 0.476800 0.556100
C69 C 0.366110 0.375210 0.628220
H70 H 0.360200 0.453200 0.660200
N71 N 0.297680 0.269890 0.773790
O72 O 0.211200 0.176090 0.694180
C73 C 0.743260 0.231810 0.166620
C74 C 0.761880 0.299950 0.101780
H75 H 0.808900 0.346500 0.096900
C76 C 0.710750 0.299180 0.043960
H77 H 0.723800 0.343500 -0.000300
C78 C 0.640730 0.233210 0.051520
H79 H 0.606200 0.233400 0.012600
C80 C 0.622010 0.167410 0.116310
H81 H 0.574400 0.123400 0.121500
C82 C 0.673110 0.165500 0.174200
H83 H 0.660200 0.119700 0.218100
C84 C 0.876650 0.203560 0.207170
C85 C 0.895760 0.074530 0.172840
H86 H 0.858500 0.004300 0.164300
C87 C 0.970490 0.050860 0.151320
H88 H 0.983400 -0.035300 0.127700
C89 C 1.025770 0.153100 0.164430
H90 H 1.076000 0.136100 0.149900
C91 C 1.006970 0.280620 0.199070
H92 H 1.044700 0.349400 0.208600
C93 C 0.932100 0.307240 0.219900
H94 H 0.919200 0.394600 0.242400
C95 C 0.774850 0.273920 0.295010
C96 C 0.829500 0.254850 0.357700
C97 C 0.838260 0.368990 0.406560
H98 H 0.812300 0.455700 0.398500
C99 C 0.884980 0.355200 0.466740
H100 H 0.891900 0.433700 0.498200
C101 C 0.921430 0.226820 0.480770
H102 H 0.952700 0.217800 0.521900
C103 C 0.911770 0.111050 0.433910
H104 H 0.935900 0.023200 0.443900
C105 C 0.866110 0.124790 0.371780
H106 H 0.860200 0.046800 0.339800
N107 N 0.797680 0.230110 0.226210
O108 O 0.711200 0.323910 0.305820
C109 C 0.756740 0.768190 0.666620
C110 C 0.738120 0.700050 0.601780
H111 H 0.691100 0.653500 0.596900
C112 C 0.789250 0.700820 0.543960
H113 H 0.776200 0.656500 0.499700
C114 C 0.859270 0.766790 0.551520
H115 H 0.893800 0.766600 0.512600
C116 C 0.877990 0.832590 0.616310
H117 H 0.925600 0.876600 0.621500
C118 C 0.826890 0.834500 0.674200
H119 H 0.839800 0.880300 0.718100
C120 C 0.623350 0.796440 0.707170
C121 C 0.604240 0.925470 0.672840
H122 H 0.641500 0.995700 0.664300
C123 C 0.529510 0.949140 0.651320
H124 H 0.516600 1.035300 0.627700
C125 C 0.474230 0.846900 0.664430
H126 H 0.424000 0.863900 0.649900
C127 C 0.493030 0.719380 0.699070
H128 H 0.455300 0.650600 0.708600
C129 C 0.567900 0.692760 0.719900
H130 H 0.580800 0.605400 0.742400
C131 C 0.725150 0.726080 0.795010
C132 C 0.670500 0.745150 0.857700
C133 C 0.661740 0.631010 0.906560
H134 H 0.687700 0.544300 0.898500
C135 C 0.615020 0.644800 0.966740
H136 H 0.608100 0.566300 0.998200
C137 C 0.578570 0.773180 0.980770
H138 H 0.547300 0.782200 1.021900
C139 C 0.588230 0.888950 0.933910
H140 H 0.564100 0.976800 0.943900
C141 C 0.633890 0.875210 0.871780
H142 H 0.639800 0.953200 0.839800
N143 N 0.702320 0.769890 0.726210
O144 O 0.788800 0.676090 0.805820
C145 C 0.743260 0.268190 0.666620
C146 C 0.761880 0.200050 0.601780
H147 H 0.808900 0.153500 0.596900
C148 C 0.710750 0.200820 0.543960
H149 H 0.723800 0.156500 0.499700
C150 C 0.640730 0.266790 0.551520
H151 H 0.606200 0.266600 0.512600
C152 C 0.622010 0.332590 0.616310
H153 H 0.574400 0.376600 0.621500
C154 C 0.673110 0.334500 0.674200
H155 H 0.660200 0.380300 0.718100
C156 C 0.876650 0.296440 0.707170
C157 C 0.895760 0.425470 0.672840
H158 H 0.858500 0.495700 0.664300
C159 C 0.970490 0.449140 0.651320
H160 H 0.983400 0.535300 0.627700
C161 C 1.025770 0.346900 0.664430
H162 H 1.076000 0.363900 0.649900
C163 C 1.006970 0.219380 0.699070
H164 H 1.044700 0.150600 0.708600
C165 C 0.932100 0.192760 0.719900
H166 H 0.919200 0.105400 0.742400
C167 C 0.774850 0.226080 0.795010
C168 C 0.829500 0.245150 0.857700
C169 C 0.838260 0.131010 0.906560
H170 H 0.812300 0.044300 0.898500
C171 C 0.884980 0.144800 0.966740
H172 H 0.891900 0.066300 0.998200
C173 C 0.921430 0.273180 0.980770
H174 H 0.952700 0.282200 1.021900
C175 C 0.911770 0.388950 0.933910
H176 H 0.935900 0.476800 0.943900
C177 C 0.866110 0.375210 0.871780
H178 H 0.860200 0.453200 0.839800
N179 N 0.797680 0.269890 0.726210
O180 O 0.711200 0.176090 0.805820
C181 C 0.756740 0.731810 0.166620
C182 C 0.738120 0.799950 0.101780
H183 H 0.691100 0.846500 0.096900
C184 C 0.789250 0.799180 0.043960
H185 H 0.776200 0.843500 -0.000300
C186 C 0.859270 0.733210 0.051520
H187 H 0.893800 0.733400 0.012600
C188 C 0.877990 0.667410 0.116310
H189 H 0.925600 0.623400 0.121500
C190 C 0.826890 0.665500 0.174200
H191 H 0.839800 0.619700 0.218100
C192 C 0.623350 0.703560 0.207170
C193 C 0.604240 0.574530 0.172840
H194 H 0.641500 0.504300 0.164300
C195 C 0.529510 0.550860 0.151320
H196 H 0.516600 0.464700 0.127700
C197 C 0.474230 0.653100 0.164430
H198 H 0.424000 0.636100 0.149900
C199 C 0.493030 0.780620 0.199070
H200 H 0.455300 0.849400 0.208600
C201 C 0.567900 0.807240 0.219900
H202 H 0.580800 0.894600 0.242400
C203 C 0.725150 0.773920 0.295010
C204 C 0.670500 0.754850 0.357700
C205 C 0.661740 0.868990 0.406560
H206 H 0.687700 0.955700 0.398500
C207 C 0.615020 0.855200 0.466740
H208 H 0.608100 0.933700 0.498200
C209 C 0.578570 0.726820 0.480770
H210 H 0.547300 0.717800 0.521900
C211 C 0.588230 0.611050 0.433910
H212 H 0.564100 0.523200 0.443900
C213 C 0.633890 0.624790 0.371780
H214 H 0.639800 0.546800 0.339800
N215 N 0.702320 0.730110 0.226210
O216 O 0.788800 0.823910 0.305820
C217 C 0.256740 0.768190 0.833380
C218 C 0.238120 0.700050 0.898220
H219 H 0.191100 0.653500 0.903100
C220 C 0.289250 0.700820 0.956040
H221 H 0.276200 0.656500 1.000300
C222 C 0.359270 0.766790 0.948480
H223 H 0.393800 0.766600 0.987400
C224 C 0.377990 0.832590 0.883690
H225 H 0.425600 0.876600 0.878500
C226 C 0.326890 0.834500 0.825800
H227 H 0.339800 0.880300 0.781900
C228 C 0.123350 0.796440 0.792830
C229 C 0.104240 0.925470 0.827160
H230 H 0.141500 0.995700 0.835700
C231 C 0.029510 0.949140 0.848680
H232 H 0.016600 1.035300 0.872300
C233 C -0.025770 0.846900 0.835570
H234 H -0.076000 0.863900 0.850100
C235 C -0.006970 0.719380 0.800930
H236 H -0.044700 0.650600 0.791400
C237 C 0.067900 0.692760 0.780100
H238 H 0.080800 0.605400 0.757600
C239 C 0.225150 0.726080 0.704990
C240 C 0.170500 0.745150 0.642300
C241 C 0.161740 0.631010 0.593440
H242 H 0.187700 0.544300 0.601500
C243 C 0.115020 0.644800 0.533260
H244 H 0.108100 0.566300 0.501800
C245 C 0.078570 0.773180 0.519230
H246 H 0.047300 0.782200 0.478100
C247 C 0.088230 0.888950 0.566090
H248 H 0.064100 0.976800 0.556100
C249 C 0.133890 0.875210 0.628220
H250 H 0.139800 0.953200 0.660200
N251 N 0.202320 0.769890 0.773790
O252 O 0.288800 0.676090 0.694180
C253 C 0.243260 0.231810 0.333380
C254 C 0.261880 0.299950 0.398220
H255 H 0.308900 0.346500 0.403100
C256 C 0.210750 0.299180 0.456040
H257 H 0.223800 0.343500 0.500300
C258 C 0.140730 0.233210 0.448480
H259 H 0.106200 0.233400 0.487400
C260 C 0.122010 0.167410 0.383690
H261 H 0.074400 0.123400 0.378500
C262 C 0.173110 0.165500 0.325800
H263 H 0.160200 0.119700 0.281900
C264 C 0.376650 0.203560 0.292830
C265 C 0.395760 0.074530 0.327160
H266 H 0.358500 0.004300 0.335700
C267 C 0.470490 0.050860 0.348680
H268 H 0.483400 -0.035300 0.372300
C269 C 0.525770 0.153100 0.335570
H270 H 0.576000 0.136100 0.350100
C271 C 0.506970 0.280620 0.300930
H272 H 0.544700 0.349400 0.291400
C273 C 0.432100 0.307240 0.280100
H274 H 0.419200 0.394600 0.257600
C275 C 0.274850 0.273920 0.204990
C276 C 0.329500 0.254850 0.142300
C277 C 0.338260 0.368990 0.093440
H278 H 0.312300 0.455700 0.101500
C279 C 0.384980 0.355200 0.033260
H280 H 0.391900 0.433700 0.001800
C281 C 0.421430 0.226820 0.019230
H282 H 0.452700 0.217800 -0.021900
C283 C 0.411770 0.111050 0.066090
H284 H 0.435900 0.023200 0.056100
C285 C 0.366110 0.124790 0.128220
H286 H 0.360200 0.046800 0.160200
N287 N 0.297680 0.230110 0.273790
O288 O 0.211200 0.323910 0.194180

#END
