
#######################################################################
#
#                 Cambridge Crystallographic Data Centre
#                                CCDC 
#
#######################################################################
#
# If this CIF has been generated from an entry in the Cambridge 
# Structural Database, then it will include bibliographic, chemical, 
# crystal, experimental, refinement or atomic coordinate data resulting 
# from the CCDC's data processing and validation procedures.
#
#######################################################################

data_KAHTAO01
_symmetry_cell_setting           monoclinic
_symmetry_space_group_name_H-M   'P 21/n'
_symmetry_Int_Tables_number      14
_space_group_name_Hall           '-P 2yn'
loop_
_symmetry_equiv_pos_site_id
_symmetry_equiv_pos_as_xyz
1 x,y,z
2 1/2-x,1/2+y,1/2-z
3 -x,-y,-z
4 1/2+x,1/2-y,1/2+z
_cell_length_a                   26.345(4)
_cell_length_b                   8.313(6)
_cell_length_c                   9.297(1)
_cell_angle_alpha                90
_cell_angle_beta                 86.33(3)
_cell_angle_gamma                90
_cell_volume                     2031.92
loop_
_atom_site_label
_atom_site_type_symbol
_atom_site_fract_x
_atom_site_fract_y
_atom_site_fract_z
O1 O 0.1295(2) 0.1986(5) 0.3059(4)
O2 O 0.0591(2) 0.0470(5) 0.3468(4)
O3 O 0.1478(1) -0.2603(4) 0.5573(4)
O4 O 0.2255(1) -0.2280(5) 0.6367(5)
C1 C 0.0799(2) 0.0876(6) 0.6776(5)
C2 C 0.0898(2) 0.1916(6) 0.8120(5)
C3 C 0.1159(2) 0.3519(6) 0.7781(6)
C4 C 0.1611(2) 0.3401(6) 0.6702(6)
C5 C 0.1449(2) 0.2583(6) 0.5401(5)
C6 C 0.1605(2) 0.2890(6) 0.3929(6)
C7 C 0.0945(2) 0.1196(6) 0.3967(5)
C8 C 0.1066(2) 0.1492(5) 0.5451(5)
C9 C 0.1958(2) 0.3859(7) 0.3340(7)
C10 C 0.2086(3) 0.4135(9) 0.1807(8)
C11 C 0.2063(4) 0.5870(1) 0.1335(8)
C12 C 0.2150(4) 0.6190(1) -0.011(1)
C13 C 0.1643(2) 0.0135(6) 0.8496(6)
C14 C 0.1191(2) 0.0932(7) 0.9233(5)
C15 C 0.0802(3) -0.0421(8) 0.9792(6)
C16 C 0.0671(2) -0.1422(7) 0.8526(6)
C17 C 0.0969(2) -0.0904(6) 0.7134(5)
C18 C 0.0971(2) -0.2086(6) 0.5937(5)
C19 C 0.1815(2) -0.1902(6) 0.6467(6)
C20 C 0.1526(2) -0.0820(6) 0.7431(5)
C21 C 0.0595(2) -0.2740(7) 0.5283(6)
C22 C 0.0639(2) -0.4029(8) 0.4174(6)
C23 C 0.0371(2) -0.3707(9) 0.2871(7)
C24 C 0.0404(3) -0.4952(9) 0.1731(6)
O1 O 0.3705(2) 0.6986(5) 1.1941(4)
O2 O 0.4409(2) 0.5470(5) 1.1532(4)
O3 O 0.3522(1) 0.2397(4) 0.9427(4)
O4 O 0.2745(1) 0.2720(5) 0.8633(5)
C1 C 0.4201(2) 0.5876(6) 0.8224(5)
C2 C 0.4102(2) 0.6916(6) 0.6880(5)
C3 C 0.3841(2) 0.8519(6) 0.7219(6)
C4 C 0.3389(2) 0.8401(6) 0.8298(6)
C5 C 0.3551(2) 0.7583(6) 0.9599(5)
C6 C 0.3395(2) 0.7890(6) 1.1071(6)
C7 C 0.4055(2) 0.6196(6) 1.1033(5)
C8 C 0.3934(2) 0.6492(5) 0.9549(5)
C9 C 0.3042(2) 0.8859(7) 1.1660(7)
C10 C 0.2914(3) 0.9135(9) 1.3193(8)
C11 C 0.2937(4) 1.0870(1) 1.3665(8)
C12 C 0.2850(4) 1.1190(1) 1.511(1)
C13 C 0.3357(2) 0.5135(6) 0.6504(6)
C14 C 0.3809(2) 0.5932(7) 0.5767(5)
C15 C 0.4198(3) 0.4579(8) 0.5208(6)
C16 C 0.4329(2) 0.3578(7) 0.6474(6)
C17 C 0.4031(2) 0.4096(6) 0.7866(5)
C18 C 0.4029(2) 0.2914(6) 0.9063(5)
C19 C 0.3185(2) 0.3098(6) 0.8533(6)
C20 C 0.3474(2) 0.4180(6) 0.7569(5)
C21 C 0.4405(2) 0.2260(7) 0.9717(6)
C22 C 0.4361(2) 0.0971(8) 1.0826(6)
C23 C 0.4629(2) 0.1293(9) 1.2129(7)
C24 C 0.4596(3) 0.0048(9) 1.3269(6)
O1 O 0.8705(2) 0.8014(5) 0.6941(4)
O2 O 0.9409(2) 0.9530(5) 0.6532(4)
O3 O 0.8522(1) 1.2603(4) 0.4427(4)
O4 O 0.7745(1) 1.2280(5) 0.3633(5)
C1 C 0.9201(2) 0.9124(6) 0.3224(5)
C2 C 0.9102(2) 0.8084(6) 0.1880(5)
C3 C 0.8841(2) 0.6481(6) 0.2219(6)
C4 C 0.8389(2) 0.6599(6) 0.3298(6)
C5 C 0.8551(2) 0.7417(6) 0.4599(5)
C6 C 0.8395(2) 0.7110(6) 0.6071(6)
C7 C 0.9055(2) 0.8804(6) 0.6033(5)
C8 C 0.8934(2) 0.8508(5) 0.4549(5)
C9 C 0.8042(2) 0.6141(7) 0.6660(7)
C10 C 0.7914(3) 0.5865(9) 0.8193(8)
C11 C 0.7937(4) 0.4130(1) 0.8665(8)
C12 C 0.7850(4) 0.3810(1) 1.011(1)
C13 C 0.8357(2) 0.9865(6) 0.1504(6)
C14 C 0.8809(2) 0.9068(7) 0.0767(5)
C15 C 0.9198(3) 1.0421(8) 0.0208(6)
C16 C 0.9329(2) 1.1422(7) 0.1474(6)
C17 C 0.9031(2) 1.0904(6) 0.2866(5)
C18 C 0.9029(2) 1.2086(6) 0.4063(5)
C19 C 0.8185(2) 1.1902(6) 0.3533(6)
C20 C 0.8474(2) 1.0820(6) 0.2569(5)
C21 C 0.9405(2) 1.2740(7) 0.4717(6)
C22 C 0.9361(2) 1.4029(8) 0.5826(6)
C23 C 0.9629(2) 1.3707(9) 0.7129(7)
C24 C 0.9596(3) 1.4952(9) 0.8269(6)
O1 O 0.6295(2) 0.3014(5) -0.1941(4)
O2 O 0.5591(2) 0.4530(5) -0.1532(4)
O3 O 0.6478(1) 0.7603(4) 0.0573(4)
O4 O 0.7255(1) 0.7280(5) 0.1367(5)
C1 C 0.5799(2) 0.4124(6) 0.1776(5)
C2 C 0.5898(2) 0.3084(6) 0.3120(5)
C3 C 0.6159(2) 0.1481(6) 0.2781(6)
C4 C 0.6611(2) 0.1599(6) 0.1702(6)
C5 C 0.6449(2) 0.2417(6) 0.0401(5)
C6 C 0.6605(2) 0.2110(6) -0.1071(6)
C7 C 0.5945(2) 0.3804(6) -0.1033(5)
C8 C 0.6066(2) 0.3508(5) 0.0451(5)
C9 C 0.6958(2) 0.1141(7) -0.1660(7)
C10 C 0.7086(3) 0.0865(9) -0.3193(8)
C11 C 0.7063(4) -0.0870(1) -0.3665(8)
C12 C 0.7150(4) -0.1190(1) -0.511(1)
C13 C 0.6643(2) 0.4865(6) 0.3496(6)
C14 C 0.6191(2) 0.4068(7) 0.4233(5)
C15 C 0.5802(3) 0.5421(8) 0.4792(6)
C16 C 0.5671(2) 0.6422(7) 0.3526(6)
C17 C 0.5969(2) 0.5904(6) 0.2134(5)
C18 C 0.5971(2) 0.7086(6) 0.0937(5)
C19 C 0.6815(2) 0.6902(6) 0.1467(6)
C20 C 0.6526(2) 0.5820(6) 0.2431(5)
C21 C 0.5595(2) 0.7740(7) 0.0283(6)
C22 C 0.5639(2) 0.9029(8) -0.0826(6)
C23 C 0.5371(2) 0.8707(9) -0.2129(7)
C24 C 0.5404(3) 0.9952(9) -0.3269(6)

#END
