./KACHAX_from_xyz.cif_generated_by_CrystalShift
_symmetry_cell_setting triclinic
_symmetry_space_group_name_H-M 'P 1'
loop_
_symmetry_equiv_pos_site_id
_symmetry_equiv_pos_as_xyz
1 x,y,z
_cell_length_a 8.368000
_cell_length_b 17.110000
_cell_length_c 23.020000
_cell_angle_alpha 90.000000
_cell_angle_beta 90.000000
_cell_angle_gamma 90.000000
_cell_volume 3295.922570
loop_
_atom_site_label
_atom_site_type_symbol
_atom_site_fract_x
_atom_site_fract_y
_atom_site_fract_z
O1 O 0.929380 0.038560 0.699180
O2 O 0.555630 0.002840 0.642250
O3 O 0.802720 -0.154640 0.681320
N4 N 0.746650 0.101360 0.646570
C5 C 0.861820 -0.066640 0.559830
H6 H 0.758200 -0.033100 0.546900
H7 H 0.956500 -0.077700 0.529000
H8 H 0.839300 -0.115500 0.570500
C9 C 0.946090 -0.030090 0.612410
H10 H 1.040590 -0.070600 0.620800
C11 C 0.997630 0.055730 0.602500
H12 H 0.953200 0.076100 0.562800
C13 C 1.176110 0.078240 0.607920
H14 H 1.208690 0.107600 0.570400
H15 H 1.247300 0.030600 0.618500
C16 C 1.187340 0.136460 0.659150
H17 H 1.241700 0.107000 0.699100
H18 H 1.275590 0.173500 0.657500
C19 C 1.017300 0.168610 0.668640
H20 H 0.995200 0.211200 0.632300
C21 C 0.987060 0.202650 0.728880
H22 H 0.877900 0.233400 0.733100
H23 H 1.075200 0.231200 0.745700
H24 H 1.014500 0.160200 0.755400
C25 C 0.920360 0.097320 0.654360
C26 C 0.840710 -0.020160 0.667550
C27 C 0.689730 0.027230 0.651080
C28 C 0.805490 -0.091500 0.703800
C29 C 0.770660 -0.079210 0.766490
H30 H 0.694100 -0.039800 0.770400
H31 H 0.857400 -0.050300 0.787400
H32 H 0.721500 -0.120300 0.783700
C33 C 0.656860 0.165060 0.618590
H34 H 0.715200 0.215000 0.634700
H35 H 0.545600 0.155000 0.635000
C36 C 0.586810 0.114480 0.519490
C37 C 0.603290 0.115250 0.459190
C38 C 0.708050 0.167900 0.432890
C39 C 0.796320 0.219780 0.466900
C40 C 0.779840 0.219020 0.527200
C41 C 0.675080 0.166370 0.553500
H42 H 0.507800 0.078700 0.540200
H43 H 0.537500 0.074100 0.438500
H44 H 0.719600 0.161100 0.387600
H45 H 0.857300 0.253700 0.441600
H46 H 0.841900 0.259400 0.553700
O47 O 0.570620 0.538560 0.699180
O48 O 0.944370 0.502840 0.642250
O49 O 0.697280 0.345360 0.681320
N50 N 0.753350 0.601360 0.646570
C51 C 0.638180 0.433360 0.559830
H52 H 0.741800 0.466900 0.546900
H53 H 0.543500 0.422300 0.529000
H54 H 0.660700 0.384500 0.570500
C55 C 0.553910 0.469910 0.612410
H56 H 0.459410 0.429400 0.620800
C57 C 0.502370 0.555730 0.602500
H58 H 0.546800 0.576100 0.562800
C59 C 0.323890 0.578240 0.607920
H60 H 0.291310 0.607600 0.570400
H61 H 0.252700 0.530600 0.618500
C62 C 0.312660 0.636460 0.659150
H63 H 0.258300 0.607000 0.699100
H64 H 0.224410 0.673500 0.657500
C65 C 0.482700 0.668610 0.668640
H66 H 0.504800 0.711200 0.632300
C67 C 0.512940 0.702650 0.728880
H68 H 0.622100 0.733400 0.733100
H69 H 0.424800 0.731200 0.745700
H70 H 0.485500 0.660200 0.755400
C71 C 0.579640 0.597320 0.654360
C72 C 0.659290 0.479840 0.667550
C73 C 0.810270 0.527230 0.651080
C74 C 0.694510 0.408500 0.703800
C75 C 0.729340 0.420790 0.766490
H76 H 0.805900 0.460200 0.770400
H77 H 0.642600 0.449700 0.787400
H78 H 0.778500 0.379700 0.783700
C79 C 0.843140 0.665060 0.618590
H80 H 0.784800 0.715000 0.634700
H81 H 0.954400 0.655000 0.635000
C82 C 0.913190 0.614480 0.519490
C83 C 0.896710 0.615250 0.459190
C84 C 0.791950 0.667900 0.432890
C85 C 0.703680 0.719780 0.466900
C86 C 0.720160 0.719020 0.527200
C87 C 0.824920 0.666370 0.553500
H88 H 0.992200 0.578700 0.540200
H89 H 0.962500 0.574100 0.438500
H90 H 0.780400 0.661100 0.387600
H91 H 0.642700 0.753700 0.441600
H92 H 0.658100 0.759400 0.553700
O93 O 0.929380 0.461440 0.199180
O94 O 0.555630 0.497160 0.142250
O95 O 0.802720 0.654640 0.181320
N96 N 0.746650 0.398640 0.146570
C97 C 0.861820 0.566640 0.059830
H98 H 0.758200 0.533100 0.046900
H99 H 0.956500 0.577700 0.029000
H100 H 0.839300 0.615500 0.070500
C101 C 0.946090 0.530090 0.112410
H102 H 1.040590 0.570600 0.120800
C103 C 0.997630 0.444270 0.102500
H104 H 0.953200 0.423900 0.062800
C105 C 1.176110 0.421760 0.107920
H106 H 1.208690 0.392400 0.070400
H107 H 1.247300 0.469400 0.118500
C108 C 1.187340 0.363540 0.159150
H109 H 1.241700 0.393000 0.199100
H110 H 1.275590 0.326500 0.157500
C111 C 1.017300 0.331390 0.168640
H112 H 0.995200 0.288800 0.132300
C113 C 0.987060 0.297350 0.228880
H114 H 0.877900 0.266600 0.233100
H115 H 1.075200 0.268800 0.245700
H116 H 1.014500 0.339800 0.255400
C117 C 0.920360 0.402680 0.154360
C118 C 0.840710 0.520160 0.167550
C119 C 0.689730 0.472770 0.151080
C120 C 0.805490 0.591500 0.203800
C121 C 0.770660 0.579210 0.266490
H122 H 0.694100 0.539800 0.270400
H123 H 0.857400 0.550300 0.287400
H124 H 0.721500 0.620300 0.283700
C125 C 0.656860 0.334940 0.118590
H126 H 0.715200 0.285000 0.134700
H127 H 0.545600 0.345000 0.135000
C128 C 0.586810 0.385520 0.019490
C129 C 0.603290 0.384750 -0.040810
C130 C 0.708050 0.332100 -0.067110
C131 C 0.796320 0.280220 -0.033100
C132 C 0.779840 0.280980 0.027200
C133 C 0.675080 0.333630 0.053500
H134 H 0.507800 0.421300 0.040200
H135 H 0.537500 0.425900 -0.061500
H136 H 0.719600 0.338900 -0.112400
H137 H 0.857300 0.246300 -0.058400
H138 H 0.841900 0.240600 0.053700
O139 O 0.570620 0.961440 0.199180
O140 O 0.944370 0.997160 0.142250
O141 O 0.697280 1.154640 0.181320
N142 N 0.753350 0.898640 0.146570
C143 C 0.638180 1.066640 0.059830
H144 H 0.741800 1.033100 0.046900
H145 H 0.543500 1.077700 0.029000
H146 H 0.660700 1.115500 0.070500
C147 C 0.553910 1.030090 0.112410
H148 H 0.459410 1.070600 0.120800
C149 C 0.502370 0.944270 0.102500
H150 H 0.546800 0.923900 0.062800
C151 C 0.323890 0.921760 0.107920
H152 H 0.291310 0.892400 0.070400
H153 H 0.252700 0.969400 0.118500
C154 C 0.312660 0.863540 0.159150
H155 H 0.258300 0.893000 0.199100
H156 H 0.224410 0.826500 0.157500
C157 C 0.482700 0.831390 0.168640
H158 H 0.504800 0.788800 0.132300
C159 C 0.512940 0.797350 0.228880
H160 H 0.622100 0.766600 0.233100
H161 H 0.424800 0.768800 0.245700
H162 H 0.485500 0.839800 0.255400
C163 C 0.579640 0.902680 0.154360
C164 C 0.659290 1.020160 0.167550
C165 C 0.810270 0.972770 0.151080
C166 C 0.694510 1.091500 0.203800
C167 C 0.729340 1.079210 0.266490
H168 H 0.805900 1.039800 0.270400
H169 H 0.642600 1.050300 0.287400
H170 H 0.778500 1.120300 0.283700
C171 C 0.843140 0.834940 0.118590
H172 H 0.784800 0.785000 0.134700
H173 H 0.954400 0.845000 0.135000
C174 C 0.913190 0.885520 0.019490
C175 C 0.896710 0.884750 -0.040810
C176 C 0.791950 0.832100 -0.067110
C177 C 0.703680 0.780220 -0.033100
C178 C 0.720160 0.780980 0.027200
C179 C 0.824920 0.833630 0.053500
H180 H 0.992200 0.921300 0.040200
H181 H 0.962500 0.925900 -0.061500
H182 H 0.780400 0.838900 -0.112400
H183 H 0.642700 0.746300 -0.058400
H184 H 0.658100 0.740600 0.053700
O185 O 0.070620 0.961440 0.300820
O186 O 0.444370 0.997160 0.357750
O187 O 0.197280 1.154640 0.318680
N188 N 0.253350 0.898640 0.353430
C189 C 0.138180 1.066640 0.440170
H190 H 0.241800 1.033100 0.453100
H191 H 0.043500 1.077700 0.471000
H192 H 0.160700 1.115500 0.429500
C193 C 0.053910 1.030090 0.387590
H194 H -0.040590 1.070600 0.379200
C195 C 0.002370 0.944270 0.397500
H196 H 0.046800 0.923900 0.437200
C197 C -0.176110 0.921760 0.392080
H198 H -0.208690 0.892400 0.429600
H199 H -0.247300 0.969400 0.381500
C200 C -0.187340 0.863540 0.340850
H201 H -0.241700 0.893000 0.300900
H202 H -0.275590 0.826500 0.342500
C203 C -0.017300 0.831390 0.331360
H204 H 0.004800 0.788800 0.367700
C205 C 0.012940 0.797350 0.271120
H206 H 0.122100 0.766600 0.266900
H207 H -0.075200 0.768800 0.254300
H208 H -0.014500 0.839800 0.244600
C209 C 0.079640 0.902680 0.345640
C210 C 0.159290 1.020160 0.332450
C211 C 0.310270 0.972770 0.348920
C212 C 0.194510 1.091500 0.296200
C213 C 0.229340 1.079210 0.233510
H214 H 0.305900 1.039800 0.229600
H215 H 0.142600 1.050300 0.212600
H216 H 0.278500 1.120300 0.216300
C217 C 0.343140 0.834940 0.381410
H218 H 0.284800 0.785000 0.365300
H219 H 0.454400 0.845000 0.365000
C220 C 0.413190 0.885520 0.480510
C221 C 0.396710 0.884750 0.540810
C222 C 0.291950 0.832100 0.567110
C223 C 0.203680 0.780220 0.533100
C224 C 0.220160 0.780980 0.472800
C225 C 0.324920 0.833630 0.446500
H226 H 0.492200 0.921300 0.459800
H227 H 0.462500 0.925900 0.561500
H228 H 0.280400 0.838900 0.612400
H229 H 0.142700 0.746300 0.558400
H230 H 0.158100 0.740600 0.446300
O231 O 0.429380 0.461440 0.300820
O232 O 0.055630 0.497160 0.357750
O233 O 0.302720 0.654640 0.318680
N234 N 0.246650 0.398640 0.353430
C235 C 0.361820 0.566640 0.440170
H236 H 0.258200 0.533100 0.453100
H237 H 0.456500 0.577700 0.471000
H238 H 0.339300 0.615500 0.429500
C239 C 0.446090 0.530090 0.387590
H240 H 0.540590 0.570600 0.379200
C241 C 0.497630 0.444270 0.397500
H242 H 0.453200 0.423900 0.437200
C243 C 0.676110 0.421760 0.392080
H244 H 0.708690 0.392400 0.429600
H245 H 0.747300 0.469400 0.381500
C246 C 0.687340 0.363540 0.340850
H247 H 0.741700 0.393000 0.300900
H248 H 0.775590 0.326500 0.342500
C249 C 0.517300 0.331390 0.331360
H250 H 0.495200 0.288800 0.367700
C251 C 0.487060 0.297350 0.271120
H252 H 0.377900 0.266600 0.266900
H253 H 0.575200 0.268800 0.254300
H254 H 0.514500 0.339800 0.244600
C255 C 0.420360 0.402680 0.345640
C256 C 0.340710 0.520160 0.332450
C257 C 0.189730 0.472770 0.348920
C258 C 0.305490 0.591500 0.296200
C259 C 0.270660 0.579210 0.233510
H260 H 0.194100 0.539800 0.229600
H261 H 0.357400 0.550300 0.212600
H262 H 0.221500 0.620300 0.216300
C263 C 0.156860 0.334940 0.381410
H264 H 0.215200 0.285000 0.365300
H265 H 0.045600 0.345000 0.365000
C266 C 0.086810 0.385520 0.480510
C267 C 0.103290 0.384750 0.540810
C268 C 0.208050 0.332100 0.567110
C269 C 0.296320 0.280220 0.533100
C270 C 0.279840 0.280980 0.472800
C271 C 0.175080 0.333630 0.446500
H272 H 0.007800 0.421300 0.459800
H273 H 0.037500 0.425900 0.561500
H274 H 0.219600 0.338900 0.612400
H275 H 0.357300 0.246300 0.558400
H276 H 0.341900 0.240600 0.446300
O277 O 0.070620 0.538560 0.800820
O278 O 0.444370 0.502840 0.857750
O279 O 0.197280 0.345360 0.818680
N280 N 0.253350 0.601360 0.853430
C281 C 0.138180 0.433360 0.940170
H282 H 0.241800 0.466900 0.953100
H283 H 0.043500 0.422300 0.971000
H284 H 0.160700 0.384500 0.929500
C285 C 0.053910 0.469910 0.887590
H286 H -0.040590 0.429400 0.879200
C287 C 0.002370 0.555730 0.897500
H288 H 0.046800 0.576100 0.937200
C289 C -0.176110 0.578240 0.892080
H290 H -0.208690 0.607600 0.929600
H291 H -0.247300 0.530600 0.881500
C292 C -0.187340 0.636460 0.840850
H293 H -0.241700 0.607000 0.800900
H294 H -0.275590 0.673500 0.842500
C295 C -0.017300 0.668610 0.831360
H296 H 0.004800 0.711200 0.867700
C297 C 0.012940 0.702650 0.771120
H298 H 0.122100 0.733400 0.766900
H299 H -0.075200 0.731200 0.754300
H300 H -0.014500 0.660200 0.744600
C301 C 0.079640 0.597320 0.845640
C302 C 0.159290 0.479840 0.832450
C303 C 0.310270 0.527230 0.848920
C304 C 0.194510 0.408500 0.796200
C305 C 0.229340 0.420790 0.733510
H306 H 0.305900 0.460200 0.729600
H307 H 0.142600 0.449700 0.712600
H308 H 0.278500 0.379700 0.716300
C309 C 0.343140 0.665060 0.881410
H310 H 0.284800 0.715000 0.865300
H311 H 0.454400 0.655000 0.865000
C312 C 0.413190 0.614480 0.980510
C313 C 0.396710 0.615250 1.040810
C314 C 0.291950 0.667900 1.067110
C315 C 0.203680 0.719780 1.033100
C316 C 0.220160 0.719020 0.972800
C317 C 0.324920 0.666370 0.946500
H318 H 0.492200 0.578700 0.959800
H319 H 0.462500 0.574100 1.061500
H320 H 0.280400 0.661100 1.112400
H321 H 0.142700 0.753700 1.058400
H322 H 0.158100 0.759400 0.946300
O323 O 0.429380 0.038560 0.800820
O324 O 0.055630 0.002840 0.857750
O325 O 0.302720 -0.154640 0.818680
N326 N 0.246650 0.101360 0.853430
C327 C 0.361820 -0.066640 0.940170
H328 H 0.258200 -0.033100 0.953100
H329 H 0.456500 -0.077700 0.971000
H330 H 0.339300 -0.115500 0.929500
C331 C 0.446090 -0.030090 0.887590
H332 H 0.540590 -0.070600 0.879200
C333 C 0.497630 0.055730 0.897500
H334 H 0.453200 0.076100 0.937200
C335 C 0.676110 0.078240 0.892080
H336 H 0.708690 0.107600 0.929600
H337 H 0.747300 0.030600 0.881500
C338 C 0.687340 0.136460 0.840850
H339 H 0.741700 0.107000 0.800900
H340 H 0.775590 0.173500 0.842500
C341 C 0.517300 0.168610 0.831360
H342 H 0.495200 0.211200 0.867700
C343 C 0.487060 0.202650 0.771120
H344 H 0.377900 0.233400 0.766900
H345 H 0.575200 0.231200 0.754300
H346 H 0.514500 0.160200 0.744600
C347 C 0.420360 0.097320 0.845640
C348 C 0.340710 -0.020160 0.832450
C349 C 0.189730 0.027230 0.848920
C350 C 0.305490 -0.091500 0.796200
C351 C 0.270660 -0.079210 0.733510
H352 H 0.194100 -0.039800 0.729600
H353 H 0.357400 -0.050300 0.712600
H354 H 0.221500 -0.120300 0.716300
C355 C 0.156860 0.165060 0.881410
H356 H 0.215200 0.215000 0.865300
H357 H 0.045600 0.155000 0.865000
C358 C 0.086810 0.114480 0.980510
C359 C 0.103290 0.115250 1.040810
C360 C 0.208050 0.167900 1.067110
C361 C 0.296320 0.219780 1.033100
C362 C 0.279840 0.219020 0.972800
C363 C 0.175080 0.166370 0.946500
H364 H 0.007800 0.078700 0.959800
H365 H 0.037500 0.074100 1.061500
H366 H 0.219600 0.161100 1.112400
H367 H 0.357300 0.253700 1.058400
H368 H 0.341900 0.259400 0.946300

#END
