./KACKAD_from_xyz.cif_generated_by_CrystalShift
_symmetry_cell_setting triclinic
_symmetry_space_group_name_H-M 'P 1'
loop_
_symmetry_equiv_pos_site_id
_symmetry_equiv_pos_as_xyz
1 x,y,z
_cell_length_a 8.046200
_cell_length_b 9.233700
_cell_length_c 26.665600
_cell_angle_alpha 90.000000
_cell_angle_beta 90.000000
_cell_angle_gamma 90.000000
_cell_volume 1981.152669
loop_
_atom_site_label
_atom_site_type_symbol
_atom_site_fract_x
_atom_site_fract_y
_atom_site_fract_z
Cl1 Cl 0.372130 0.352950 0.992910
O2 O 0.434200 0.367200 0.604670
O3 O -0.104600 0.158800 0.830990
N4 N 0.496300 0.383400 0.775090
N5 N 0.223200 0.270500 0.651150
C6 C 0.415700 0.498500 0.853640
H7 H 0.396500 0.584200 0.836300
C8 C 0.386600 0.491600 0.904550
H9 H 0.347900 0.572400 0.921800
C10 C 0.415600 0.364000 0.929280
C11 C 0.476900 0.243500 0.904700
H12 H 0.497300 0.158200 0.922100
C13 C 0.507200 0.251900 0.854100
H14 H 0.550500 0.172600 0.837100
C15 C 0.473200 0.378200 0.828670
C16 C 0.639000 0.433200 0.752010
H17 H 0.732800 0.467700 0.768500
C18 C 0.620900 0.423800 0.701670
H19 H 0.698800 0.449900 0.677500
C20 C 0.377000 0.337700 0.646120
C21 C 0.460400 0.366700 0.692930
C22 C 0.385500 0.341200 0.738610
C23 C 0.221500 0.280500 0.743160
C24 C 0.145100 0.242100 0.697310
C25 C -0.008900 0.172200 0.699090
H26 H -0.058900 0.143000 0.669300
C27 C -0.087700 0.145600 0.743620
H28 H -0.190200 0.098900 0.743900
C29 C -0.014700 0.188200 0.788170
C30 C 0.137600 0.254400 0.788130
H31 H 0.185600 0.282400 0.818300
C32 C -0.049700 0.223600 0.875930
H33 H -0.043800 0.326600 0.871600
H34 H 0.058300 0.186900 0.884400
H35 H -0.126400 0.201300 0.902400
C36 C 0.134500 0.237500 0.605450
C37 C 0.017800 0.332100 0.588650
H38 H -0.003700 0.417000 0.606300
C39 C -0.068700 0.301100 0.545070
H40 H -0.149300 0.364900 0.533400
C41 C -0.035600 0.176200 0.519190
H42 H -0.091500 0.156500 0.489400
C43 C 0.077200 0.082700 0.536750
H44 H 0.096600 -0.003200 0.519500
C45 C 0.166300 0.111800 0.580540
H46 H 0.245400 0.046800 0.592400
Cl47 Cl 0.127870 0.647050 0.492910
O48 O 0.065800 0.632800 0.104670
O49 O 0.604600 0.841200 0.330990
N50 N 0.003700 0.616600 0.275090
N51 N 0.276800 0.729500 0.151150
C52 C 0.084300 0.501500 0.353640
H53 H 0.103500 0.415800 0.336300
C54 C 0.113400 0.508400 0.404550
H55 H 0.152100 0.427600 0.421800
C56 C 0.084400 0.636000 0.429280
C57 C 0.023100 0.756500 0.404700
H58 H 0.002700 0.841800 0.422100
C59 C -0.007200 0.748100 0.354100
H60 H -0.050500 0.827400 0.337100
C61 C 0.026800 0.621800 0.328670
C62 C -0.139000 0.566800 0.252010
H63 H -0.232800 0.532300 0.268500
C64 C -0.120900 0.576200 0.201670
H65 H -0.198800 0.550100 0.177500
C66 C 0.123000 0.662300 0.146120
C67 C 0.039600 0.633300 0.192930
C68 C 0.114500 0.658800 0.238610
C69 C 0.278500 0.719500 0.243160
C70 C 0.354900 0.757900 0.197310
C71 C 0.508900 0.827800 0.199090
H72 H 0.558900 0.857000 0.169300
C73 C 0.587700 0.854400 0.243620
H74 H 0.690200 0.901100 0.243900
C75 C 0.514700 0.811800 0.288170
C76 C 0.362400 0.745600 0.288130
H77 H 0.314400 0.717600 0.318300
C78 C 0.549700 0.776400 0.375930
H79 H 0.543800 0.673400 0.371600
H80 H 0.441700 0.813100 0.384400
H81 H 0.626400 0.798700 0.402400
C82 C 0.365500 0.762500 0.105450
C83 C 0.482200 0.667900 0.088650
H84 H 0.503700 0.583000 0.106300
C85 C 0.568700 0.698900 0.045070
H86 H 0.649300 0.635100 0.033400
C87 C 0.535600 0.823800 0.019190
H88 H 0.591500 0.843500 -0.010600
C89 C 0.422800 0.917300 0.036750
H90 H 0.403400 1.003200 0.019500
C91 C 0.333700 0.888200 0.080540
H92 H 0.254600 0.953200 0.092400
Cl93 Cl 0.872130 0.147050 0.007090
O94 O 0.934200 0.132800 0.395330
O95 O 0.395400 0.341200 0.169010
N96 N 0.996300 0.116600 0.224910
N97 N 0.723200 0.229500 0.348850
C98 C 0.915700 0.001500 0.146360
H99 H 0.896500 -0.084200 0.163700
C100 C 0.886600 0.008400 0.095450
H101 H 0.847900 -0.072400 0.078200
C102 C 0.915600 0.136000 0.070720
C103 C 0.976900 0.256500 0.095300
H104 H 0.997300 0.341800 0.077900
C105 C 1.007200 0.248100 0.145900
H106 H 1.050500 0.327400 0.162900
C107 C 0.973200 0.121800 0.171330
C108 C 1.139000 0.066800 0.247990
H109 H 1.232800 0.032300 0.231500
C110 C 1.120900 0.076200 0.298330
H111 H 1.198800 0.050100 0.322500
C112 C 0.877000 0.162300 0.353880
C113 C 0.960400 0.133300 0.307070
C114 C 0.885500 0.158800 0.261390
C115 C 0.721500 0.219500 0.256840
C116 C 0.645100 0.257900 0.302690
C117 C 0.491100 0.327800 0.300910
H118 H 0.441100 0.357000 0.330700
C119 C 0.412300 0.354400 0.256380
H120 H 0.309800 0.401100 0.256100
C121 C 0.485300 0.311800 0.211830
C122 C 0.637600 0.245600 0.211870
H123 H 0.685600 0.217600 0.181700
C124 C 0.450300 0.276400 0.124070
H125 H 0.456200 0.173400 0.128400
H126 H 0.558300 0.313100 0.115600
H127 H 0.373600 0.298700 0.097600
C128 C 0.634500 0.262500 0.394550
C129 C 0.517800 0.167900 0.411350
H130 H 0.496300 0.083000 0.393700
C131 C 0.431300 0.198900 0.454930
H132 H 0.350700 0.135100 0.466600
C133 C 0.464400 0.323800 0.480810
H134 H 0.408500 0.343500 0.510600
C135 C 0.577200 0.417300 0.463250
H136 H 0.596600 0.503200 0.480500
C137 C 0.666300 0.388200 0.419460
H138 H 0.745400 0.453200 0.407600
Cl139 Cl 0.627870 0.852950 0.507090
O140 O 0.565800 0.867200 0.895330
O141 O 1.104600 0.658800 0.669010
N142 N 0.503700 0.883400 0.724910
N143 N 0.776800 0.770500 0.848850
C144 C 0.584300 0.998500 0.646360
H145 H 0.603500 1.084200 0.663700
C146 C 0.613400 0.991600 0.595450
H147 H 0.652100 1.072400 0.578200
C148 C 0.584400 0.864000 0.570720
C149 C 0.523100 0.743500 0.595300
H150 H 0.502700 0.658200 0.577900
C151 C 0.492800 0.751900 0.645900
H152 H 0.449500 0.672600 0.662900
C153 C 0.526800 0.878200 0.671330
C154 C 0.361000 0.933200 0.747990
H155 H 0.267200 0.967700 0.731500
C156 C 0.379100 0.923800 0.798330
H157 H 0.301200 0.949900 0.822500
C158 C 0.623000 0.837700 0.853880
C159 C 0.539600 0.866700 0.807070
C160 C 0.614500 0.841200 0.761390
C161 C 0.778500 0.780500 0.756840
C162 C 0.854900 0.742100 0.802690
C163 C 1.008900 0.672200 0.800910
H164 H 1.058900 0.643000 0.830700
C165 C 1.087700 0.645600 0.756380
H166 H 1.190200 0.598900 0.756100
C167 C 1.014700 0.688200 0.711830
C168 C 0.862400 0.754400 0.711870
H169 H 0.814400 0.782400 0.681700
C170 C 1.049700 0.723600 0.624070
H171 H 1.043800 0.826600 0.628400
H172 H 0.941700 0.686900 0.615600
H173 H 1.126400 0.701300 0.597600
C174 C 0.865500 0.737500 0.894550
C175 C 0.982200 0.832100 0.911350
H176 H 1.003700 0.917000 0.893700
C177 C 1.068700 0.801100 0.954930
H178 H 1.149300 0.864900 0.966600
C179 C 1.035600 0.676200 0.980810
H180 H 1.091500 0.656500 1.010600
C181 C 0.922800 0.582700 0.963250
H182 H 0.903400 0.496800 0.980500
C183 C 0.833700 0.611800 0.919460
H184 H 0.754600 0.546800 0.907600

#END
