
#######################################################################
#
#                 Cambridge Crystallographic Data Centre
#                                CCDC 
#
#######################################################################
#
# If this CIF has been generated from an entry in the Cambridge 
# Structural Database, then it will include bibliographic, chemical, 
# crystal, experimental, refinement or atomic coordinate data resulting 
# from the CCDC's data processing and validation procedures.
#
#######################################################################

data_KACNEJ
_symmetry_cell_setting           monoclinic
_symmetry_space_group_name_H-M   'P 21/c'
_symmetry_Int_Tables_number      14
_space_group_name_Hall           '-P 2ybc'
loop_
_symmetry_equiv_pos_site_id
_symmetry_equiv_pos_as_xyz
1 x,y,z
2 -x,1/2+y,1/2-z
3 -x,-y,-z
4 x,1/2-y,1/2+z
_cell_length_a                   8.7018(2)
_cell_length_b                   10.9178(3)
_cell_length_c                   13.1787(3)
_cell_angle_alpha                90
_cell_angle_beta                 92.257(2)
_cell_angle_gamma                90
_cell_volume                     1251.06
loop_
_atom_site_label
_atom_site_type_symbol
_atom_site_fract_x
_atom_site_fract_y
_atom_site_fract_z
O1 O 0.46709(16) 0.92741(14) 1.29780(10)
O2 O 0.58433(19) 0.75681(18) 1.32743(12)
O3 O 1.00189(12) 0.82272(9) 0.89730(7)
O4 O 1.33262(14) 0.77931(12) 0.62082(8)
N1 N 0.55979(17) 0.84828(16) 1.27614(11)
C1 C 0.64454(17) 0.86333(16) 1.18304(11)
C2 C 0.74453(19) 0.77281(17) 1.15621(13)
H1 H 0.7574 0.7030 1.1961
C3 C 0.82588(19) 0.78692(16) 1.06896(13)
H2 H 0.8948 0.7266 1.0503
C4 C 0.80509(16) 0.89102(14) 1.00884(11)
C5 C 0.70175(18) 0.98049(15) 1.03846(12)
H3 H 0.6871 1.0503 0.9988
C6 C 0.62095(17) 0.96704(15) 1.12565(12)
H4 H 0.5520 1.0269 1.1452
C7 C 0.88857(17) 0.90845(14) 0.91636(11)
C8 C 0.87690(19) 0.99208(14) 0.84199(12)
H5 H 0.8092 1.0580 0.8386
C9 C 0.98793(18) 0.96124(14) 0.76877(11)
C10 C 1.06119(17) 0.85654(14) 0.80636(11)
C11 C 1.17682(18) 0.79641(15) 0.75897(11)
H6 H 1.2241 0.7274 0.7874
C12 C 1.21958(18) 0.84360(15) 0.66686(11)
C13 C 1.1493(2) 0.94850(16) 0.62592(12)
H7 H 1.1802 0.9790 0.5641
C14 C 1.0348(2) 1.00715(16) 0.67622(12)
H8 H 0.9888 1.0771 0.6486
C15 C 1.3869(2) 0.82452(19) 0.52769(14)
H9 H 1.4652 0.7708 0.5040
H10 H 1.4291 0.9050 0.5381
H11 H 1.3032 0.8282 0.4781
O1 O 0.53291(16) 0.42741(14) 0.20220(10)
O2 O 0.41567(19) 0.25681(18) 0.17257(12)
O3 O -0.00189(12) 0.32272(9) 0.60270(7)
O4 O -0.33262(14) 0.27931(12) 0.87918(8)
N1 N 0.44021(17) 0.34828(16) 0.22386(11)
C1 C 0.35546(17) 0.36333(16) 0.31696(11)
C2 C 0.25547(19) 0.27281(17) 0.34379(13)
H1 H 0.2426 0.2030 0.3039
C3 C 0.17412(19) 0.28692(16) 0.43104(13)
H2 H 0.1052 0.2266 0.4497
C4 C 0.19491(16) 0.39102(14) 0.49116(11)
C5 C 0.29825(18) 0.48049(15) 0.46154(12)
H3 H 0.3129 0.5503 0.5012
C6 C 0.37905(17) 0.46704(15) 0.37435(12)
H4 H 0.4480 0.5269 0.3548
C7 C 0.11143(17) 0.40845(14) 0.58364(11)
C8 C 0.12310(19) 0.49208(14) 0.65801(12)
H5 H 0.1908 0.5580 0.6614
C9 C 0.01207(18) 0.46124(14) 0.73123(11)
C10 C -0.06119(17) 0.35654(14) 0.69364(11)
C11 C -0.17682(18) 0.29641(15) 0.74103(11)
H6 H -0.2241 0.2274 0.7126
C12 C -0.21958(18) 0.34360(15) 0.83314(11)
C13 C -0.1493(2) 0.44850(16) 0.87408(12)
H7 H -0.1802 0.4790 0.9359
C14 C -0.0348(2) 0.50715(16) 0.82378(12)
H8 H 0.0112 0.5771 0.8514
C15 C -0.3869(2) 0.32452(19) 0.97231(14)
H9 H -0.4652 0.2708 0.9960
H10 H -0.4291 0.4050 0.9619
H11 H -0.3032 0.3282 1.0219
O1 O 0.53291(16) 0.07259(14) -0.29780(10)
O2 O 0.41567(19) 0.24319(18) -0.32743(12)
O3 O -0.00189(12) 0.17728(9) 0.10270(7)
O4 O -0.33262(14) 0.22069(12) 0.37918(8)
N1 N 0.44021(17) 0.15172(16) -0.27614(11)
C1 C 0.35546(17) 0.13667(16) -0.18304(11)
C2 C 0.25547(19) 0.22719(17) -0.15621(13)
H1 H 0.2426 0.2970 -0.1961
C3 C 0.17412(19) 0.21308(16) -0.06896(13)
H2 H 0.1052 0.2734 -0.0503
C4 C 0.19491(16) 0.10898(14) -0.00884(11)
C5 C 0.29825(18) 0.01951(15) -0.03846(12)
H3 H 0.3129 -0.0503 0.0012
C6 C 0.37905(17) 0.03296(15) -0.12565(12)
H4 H 0.4480 -0.0269 -0.1452
C7 C 0.11143(17) 0.09155(14) 0.08364(11)
C8 C 0.12310(19) 0.00792(14) 0.15801(12)
H5 H 0.1908 -0.0580 0.1614
C9 C 0.01207(18) 0.03876(14) 0.23123(11)
C10 C -0.06119(17) 0.14346(14) 0.19364(11)
C11 C -0.17682(18) 0.20359(15) 0.24103(11)
H6 H -0.2241 0.2726 0.2126
C12 C -0.21958(18) 0.15640(15) 0.33314(11)
C13 C -0.1493(2) 0.05150(16) 0.37408(12)
H7 H -0.1802 0.0210 0.4359
C14 C -0.0348(2) -0.00715(16) 0.32378(12)
H8 H 0.0112 -0.0771 0.3514
C15 C -0.3869(2) 0.17548(19) 0.47231(14)
H9 H -0.4652 0.2292 0.4960
H10 H -0.4291 0.0950 0.4619
H11 H -0.3032 0.1718 0.5219
O1 O 0.46709(16) 0.57259(14) 0.79780(10)
O2 O 0.58433(19) 0.74319(18) 0.82743(12)
O3 O 1.00189(12) 0.67728(9) 0.39730(7)
O4 O 1.33262(14) 0.72069(12) 0.12082(8)
N1 N 0.55979(17) 0.65172(16) 0.77614(11)
C1 C 0.64454(17) 0.63667(16) 0.68304(11)
C2 C 0.74453(19) 0.72719(17) 0.65621(13)
H1 H 0.7574 0.7970 0.6961
C3 C 0.82588(19) 0.71308(16) 0.56896(13)
H2 H 0.8948 0.7734 0.5503
C4 C 0.80509(16) 0.60898(14) 0.50884(11)
C5 C 0.70175(18) 0.51951(15) 0.53846(12)
H3 H 0.6871 0.4497 0.4988
C6 C 0.62095(17) 0.53296(15) 0.62565(12)
H4 H 0.5520 0.4731 0.6452
C7 C 0.88857(17) 0.59155(14) 0.41636(11)
C8 C 0.87690(19) 0.50792(14) 0.34199(12)
H5 H 0.8092 0.4420 0.3386
C9 C 0.98793(18) 0.53876(14) 0.26877(11)
C10 C 1.06119(17) 0.64346(14) 0.30636(11)
C11 C 1.17682(18) 0.70359(15) 0.25897(11)
H6 H 1.2241 0.7726 0.2874
C12 C 1.21958(18) 0.65640(15) 0.16686(11)
C13 C 1.1493(2) 0.55150(16) 0.12592(12)
H7 H 1.1802 0.5210 0.0641
C14 C 1.0348(2) 0.49285(16) 0.17622(12)
H8 H 0.9888 0.4229 0.1486
C15 C 1.3869(2) 0.67548(19) 0.02769(14)
H9 H 1.4652 0.7292 0.0040
H10 H 1.4291 0.5950 0.0381
H11 H 1.3032 0.6718 -0.0219

#END
