./KACPAI_from_xyz.cif_generated_by_CrystalShift
_symmetry_cell_setting triclinic
_symmetry_space_group_name_H-M 'P 1'
loop_
_symmetry_equiv_pos_site_id
_symmetry_equiv_pos_as_xyz
1 x,y,z
_cell_length_a 13.698000
_cell_length_b 7.626000
_cell_length_c 38.908000
_cell_angle_alpha 90.000000
_cell_angle_beta 90.000000
_cell_angle_gamma 90.000000
_cell_volume 4064.366565
loop_
_atom_site_label
_atom_site_type_symbol
_atom_site_fract_x
_atom_site_fract_y
_atom_site_fract_z
Cl1 Cl 0.694450 0.627900 0.003070
S2 S 0.799770 0.084100 0.292280
S3 S 0.950650 0.223600 0.337000
O4 O 0.768500 0.423700 0.199790
N5 N 0.924400 0.348200 0.132310
C6 C 1.170800 0.162900 0.120920
H7 H 1.230600 0.160800 0.132200
N8 N 0.898600 0.318000 0.165680
O9 O 0.917400 0.554800 0.234420
C10 C 1.161600 0.076200 0.090750
H11 H 1.214400 0.015100 0.081600
N12 N 0.922400 0.355600 0.277300
C13 C 1.073200 0.079000 0.073610
H14 H 1.066700 0.021200 0.052700
C15 C 0.994800 0.167400 0.087460
H16 H 0.934900 0.167300 0.076200
C17 C 1.005500 0.255100 0.117770
C18 C 1.093500 0.255200 0.135540
H19 H 1.100500 0.314300 0.156300
C20 C 0.873600 0.530900 0.081480
C21 C 0.962800 0.583900 0.068390
H22 H 1.018500 0.576700 0.081900
C23 C 0.969200 0.648400 0.034800
H24 H 1.029200 0.683000 0.025900
C25 C 0.886100 0.660600 0.014940
H26 H 0.890000 0.703000 -0.007400
C27 C 0.798200 0.610300 0.028160
C28 C 0.791300 0.543000 0.061020
H29 H 0.731200 0.505800 0.069400
C30 C 0.862500 0.467000 0.117100
C31 C 0.794100 0.510300 0.140910
H32 H 0.741300 0.585800 0.138200
C33 C 0.820400 0.416900 0.170290
C34 C 0.803500 0.321500 0.227810
H35 H 0.828300 0.210300 0.219400
H36 H 0.750600 0.297800 0.243700
C37 C 0.884000 0.420000 0.246070
C38 C 0.887900 0.224900 0.298710
C39 C 1.043900 0.370200 0.322340
H40 H 1.060800 0.453600 0.340200
H41 H 1.102200 0.305600 0.316000
C42 C 1.002200 0.462900 0.291740
H43 H 0.977400 0.576900 0.298500
H44 H 1.052600 0.480300 0.274600
Cl45 Cl 0.805550 0.372100 0.503070
S46 S 0.700230 0.915900 0.792280
S47 S 0.549350 0.776400 0.837000
O48 O 0.731500 0.576300 0.699790
N49 N 0.575600 0.651800 0.632310
C50 C 0.329200 0.837100 0.620920
H51 H 0.269400 0.839200 0.632200
N52 N 0.601400 0.682000 0.665680
O53 O 0.582600 0.445200 0.734420
C54 C 0.338400 0.923800 0.590750
H55 H 0.285600 0.984900 0.581600
N56 N 0.577600 0.644400 0.777300
C57 C 0.426800 0.921000 0.573610
H58 H 0.433300 0.978800 0.552700
C59 C 0.505200 0.832600 0.587460
H60 H 0.565100 0.832700 0.576200
C61 C 0.494500 0.744900 0.617770
C62 C 0.406500 0.744800 0.635540
H63 H 0.399500 0.685700 0.656300
C64 C 0.626400 0.469100 0.581480
C65 C 0.537200 0.416100 0.568390
H66 H 0.481500 0.423300 0.581900
C67 C 0.530800 0.351600 0.534800
H68 H 0.470800 0.317000 0.525900
C69 C 0.613900 0.339400 0.514940
H70 H 0.610000 0.297000 0.492600
C71 C 0.701800 0.389700 0.528160
C72 C 0.708700 0.457000 0.561020
H73 H 0.768800 0.494200 0.569400
C74 C 0.637500 0.533000 0.617100
C75 C 0.705900 0.489700 0.640910
H76 H 0.758700 0.414200 0.638200
C77 C 0.679600 0.583100 0.670290
C78 C 0.696500 0.678500 0.727810
H79 H 0.671700 0.789700 0.719400
H80 H 0.749400 0.702200 0.743700
C81 C 0.616000 0.580000 0.746070
C82 C 0.612100 0.775100 0.798710
C83 C 0.456100 0.629800 0.822340
H84 H 0.439200 0.546400 0.840200
H85 H 0.397800 0.694400 0.816000
C86 C 0.497800 0.537100 0.791740
H87 H 0.522600 0.423100 0.798500
H88 H 0.447400 0.519700 0.774600
Cl89 Cl 0.305550 1.127900 0.496930
S90 S 0.200230 0.584100 0.207720
S91 S 0.049350 0.723600 0.163000
O92 O 0.231500 0.923700 0.300210
N93 N 0.075600 0.848200 0.367690
C94 C -0.170800 0.662900 0.379080
H95 H -0.230600 0.660800 0.367800
N96 N 0.101400 0.818000 0.334320
O97 O 0.082600 1.054800 0.265580
C98 C -0.161600 0.576200 0.409250
H99 H -0.214400 0.515100 0.418400
N100 N 0.077600 0.855600 0.222700
C101 C -0.073200 0.579000 0.426390
H102 H -0.066700 0.521200 0.447300
C103 C 0.005200 0.667400 0.412540
H104 H 0.065100 0.667300 0.423800
C105 C -0.005500 0.755100 0.382230
C106 C -0.093500 0.755200 0.364460
H107 H -0.100500 0.814300 0.343700
C108 C 0.126400 1.030900 0.418520
C109 C 0.037200 1.083900 0.431610
H110 H -0.018500 1.076700 0.418100
C111 C 0.030800 1.148400 0.465200
H112 H -0.029200 1.183000 0.474100
C113 C 0.113900 1.160600 0.485060
H114 H 0.110000 1.203000 0.507400
C115 C 0.201800 1.110300 0.471840
C116 C 0.208700 1.043000 0.438980
H117 H 0.268800 1.005800 0.430600
C118 C 0.137500 0.967000 0.382900
C119 C 0.205900 1.010300 0.359090
H120 H 0.258700 1.085800 0.361800
C121 C 0.179600 0.916900 0.329710
C122 C 0.196500 0.821500 0.272190
H123 H 0.171700 0.710300 0.280600
H124 H 0.249400 0.797800 0.256300
C125 C 0.116000 0.920000 0.253930
C126 C 0.112100 0.724900 0.201290
C127 C -0.043900 0.870200 0.177660
H128 H -0.060800 0.953600 0.159800
H129 H -0.102200 0.805600 0.184000
C130 C -0.002200 0.962900 0.208260
H131 H 0.022600 1.076900 0.201500
H132 H -0.052600 0.980300 0.225400
Cl133 Cl 0.194450 -0.127900 0.996930
S134 S 0.299770 0.415900 0.707720
S135 S 0.450650 0.276400 0.663000
O136 O 0.268500 0.076300 0.800210
N137 N 0.424400 0.151800 0.867690
C138 C 0.670800 0.337100 0.879080
H139 H 0.730600 0.339200 0.867800
N140 N 0.398600 0.182000 0.834320
O141 O 0.417400 -0.054800 0.765580
C142 C 0.661600 0.423800 0.909250
H143 H 0.714400 0.484900 0.918400
N144 N 0.422400 0.144400 0.722700
C145 C 0.573200 0.421000 0.926390
H146 H 0.566700 0.478800 0.947300
C147 C 0.494800 0.332600 0.912540
H148 H 0.434900 0.332700 0.923800
C149 C 0.505500 0.244900 0.882230
C150 C 0.593500 0.244800 0.864460
H151 H 0.600500 0.185700 0.843700
C152 C 0.373600 -0.030900 0.918520
C153 C 0.462800 -0.083900 0.931610
H154 H 0.518500 -0.076700 0.918100
C155 C 0.469200 -0.148400 0.965200
H156 H 0.529200 -0.183000 0.974100
C157 C 0.386100 -0.160600 0.985060
H158 H 0.390000 -0.203000 1.007400
C159 C 0.298200 -0.110300 0.971840
C160 C 0.291300 -0.043000 0.938980
H161 H 0.231200 -0.005800 0.930600
C162 C 0.362500 0.033000 0.882900
C163 C 0.294100 -0.010300 0.859090
H164 H 0.241300 -0.085800 0.861800
C165 C 0.320400 0.083100 0.829710
C166 C 0.303500 0.178500 0.772190
H167 H 0.328300 0.289700 0.780600
H168 H 0.250600 0.202200 0.756300
C169 C 0.384000 0.080000 0.753930
C170 C 0.387900 0.275100 0.701290
C171 C 0.543900 0.129800 0.677660
H172 H 0.560800 0.046400 0.659800
H173 H 0.602200 0.194400 0.684000
C174 C 0.502200 0.037100 0.708260
H175 H 0.477400 -0.076900 0.701500
H176 H 0.552600 0.019700 0.725400
Cl177 Cl 0.305550 0.372100 0.996930
S178 S 0.200230 0.915900 0.707720
S179 S 0.049350 0.776400 0.663000
O180 O 0.231500 0.576300 0.800210
N181 N 0.075600 0.651800 0.867690
C182 C -0.170800 0.837100 0.879080
H183 H -0.230600 0.839200 0.867800
N184 N 0.101400 0.682000 0.834320
O185 O 0.082600 0.445200 0.765580
C186 C -0.161600 0.923800 0.909250
H187 H -0.214400 0.984900 0.918400
N188 N 0.077600 0.644400 0.722700
C189 C -0.073200 0.921000 0.926390
H190 H -0.066700 0.978800 0.947300
C191 C 0.005200 0.832600 0.912540
H192 H 0.065100 0.832700 0.923800
C193 C -0.005500 0.744900 0.882230
C194 C -0.093500 0.744800 0.864460
H195 H -0.100500 0.685700 0.843700
C196 C 0.126400 0.469100 0.918520
C197 C 0.037200 0.416100 0.931610
H198 H -0.018500 0.423300 0.918100
C199 C 0.030800 0.351600 0.965200
H200 H -0.029200 0.317000 0.974100
C201 C 0.113900 0.339400 0.985060
H202 H 0.110000 0.297000 1.007400
C203 C 0.201800 0.389700 0.971840
C204 C 0.208700 0.457000 0.938980
H205 H 0.268800 0.494200 0.930600
C206 C 0.137500 0.533000 0.882900
C207 C 0.205900 0.489700 0.859090
H208 H 0.258700 0.414200 0.861800
C209 C 0.179600 0.583100 0.829710
C210 C 0.196500 0.678500 0.772190
H211 H 0.171700 0.789700 0.780600
H212 H 0.249400 0.702200 0.756300
C213 C 0.116000 0.580000 0.753930
C214 C 0.112100 0.775100 0.701290
C215 C -0.043900 0.629800 0.677660
H216 H -0.060800 0.546400 0.659800
H217 H -0.102200 0.694400 0.684000
C218 C -0.002200 0.537100 0.708260
H219 H 0.022600 0.423100 0.701500
H220 H -0.052600 0.519700 0.725400
Cl221 Cl 0.194450 0.627900 0.496930
S222 S 0.299770 0.084100 0.207720
S223 S 0.450650 0.223600 0.163000
O224 O 0.268500 0.423700 0.300210
N225 N 0.424400 0.348200 0.367690
C226 C 0.670800 0.162900 0.379080
H227 H 0.730600 0.160800 0.367800
N228 N 0.398600 0.318000 0.334320
O229 O 0.417400 0.554800 0.265580
C230 C 0.661600 0.076200 0.409250
H231 H 0.714400 0.015100 0.418400
N232 N 0.422400 0.355600 0.222700
C233 C 0.573200 0.079000 0.426390
H234 H 0.566700 0.021200 0.447300
C235 C 0.494800 0.167400 0.412540
H236 H 0.434900 0.167300 0.423800
C237 C 0.505500 0.255100 0.382230
C238 C 0.593500 0.255200 0.364460
H239 H 0.600500 0.314300 0.343700
C240 C 0.373600 0.530900 0.418520
C241 C 0.462800 0.583900 0.431610
H242 H 0.518500 0.576700 0.418100
C243 C 0.469200 0.648400 0.465200
H244 H 0.529200 0.683000 0.474100
C245 C 0.386100 0.660600 0.485060
H246 H 0.390000 0.703000 0.507400
C247 C 0.298200 0.610300 0.471840
C248 C 0.291300 0.543000 0.438980
H249 H 0.231200 0.505800 0.430600
C250 C 0.362500 0.467000 0.382900
C251 C 0.294100 0.510300 0.359090
H252 H 0.241300 0.585800 0.361800
C253 C 0.320400 0.416900 0.329710
C254 C 0.303500 0.321500 0.272190
H255 H 0.328300 0.210300 0.280600
H256 H 0.250600 0.297800 0.256300
C257 C 0.384000 0.420000 0.253930
C258 C 0.387900 0.224900 0.201290
C259 C 0.543900 0.370200 0.177660
H260 H 0.560800 0.453600 0.159800
H261 H 0.602200 0.305600 0.184000
C262 C 0.502200 0.462900 0.208260
H263 H 0.477400 0.576900 0.201500
H264 H 0.552600 0.480300 0.225400
Cl265 Cl 0.694450 -0.127900 0.503070
S266 S 0.799770 0.415900 0.792280
S267 S 0.950650 0.276400 0.837000
O268 O 0.768500 0.076300 0.699790
N269 N 0.924400 0.151800 0.632310
C270 C 1.170800 0.337100 0.620920
H271 H 1.230600 0.339200 0.632200
N272 N 0.898600 0.182000 0.665680
O273 O 0.917400 -0.054800 0.734420
C274 C 1.161600 0.423800 0.590750
H275 H 1.214400 0.484900 0.581600
N276 N 0.922400 0.144400 0.777300
C277 C 1.073200 0.421000 0.573610
H278 H 1.066700 0.478800 0.552700
C279 C 0.994800 0.332600 0.587460
H280 H 0.934900 0.332700 0.576200
C281 C 1.005500 0.244900 0.617770
C282 C 1.093500 0.244800 0.635540
H283 H 1.100500 0.185700 0.656300
C284 C 0.873600 -0.030900 0.581480
C285 C 0.962800 -0.083900 0.568390
H286 H 1.018500 -0.076700 0.581900
C287 C 0.969200 -0.148400 0.534800
H288 H 1.029200 -0.183000 0.525900
C289 C 0.886100 -0.160600 0.514940
H290 H 0.890000 -0.203000 0.492600
C291 C 0.798200 -0.110300 0.528160
C292 C 0.791300 -0.043000 0.561020
H293 H 0.731200 -0.005800 0.569400
C294 C 0.862500 0.033000 0.617100
C295 C 0.794100 -0.010300 0.640910
H296 H 0.741300 -0.085800 0.638200
C297 C 0.820400 0.083100 0.670290
C298 C 0.803500 0.178500 0.727810
H299 H 0.828300 0.289700 0.719400
H300 H 0.750600 0.202200 0.743700
C301 C 0.884000 0.080000 0.746070
C302 C 0.887900 0.275100 0.798710
C303 C 1.043900 0.129800 0.822340
H304 H 1.060800 0.046400 0.840200
H305 H 1.102200 0.194400 0.816000
C306 C 1.002200 0.037100 0.791740
H307 H 0.977400 -0.076900 0.798500
H308 H 1.052600 0.019700 0.774600
Cl309 Cl 0.805550 1.127900 0.003070
S310 S 0.700230 0.584100 0.292280
S311 S 0.549350 0.723600 0.337000
O312 O 0.731500 0.923700 0.199790
N313 N 0.575600 0.848200 0.132310
C314 C 0.329200 0.662900 0.120920
H315 H 0.269400 0.660800 0.132200
N316 N 0.601400 0.818000 0.165680
O317 O 0.582600 1.054800 0.234420
C318 C 0.338400 0.576200 0.090750
H319 H 0.285600 0.515100 0.081600
N320 N 0.577600 0.855600 0.277300
C321 C 0.426800 0.579000 0.073610
H322 H 0.433300 0.521200 0.052700
C323 C 0.505200 0.667400 0.087460
H324 H 0.565100 0.667300 0.076200
C325 C 0.494500 0.755100 0.117770
C326 C 0.406500 0.755200 0.135540
H327 H 0.399500 0.814300 0.156300
C328 C 0.626400 1.030900 0.081480
C329 C 0.537200 1.083900 0.068390
H330 H 0.481500 1.076700 0.081900
C331 C 0.530800 1.148400 0.034800
H332 H 0.470800 1.183000 0.025900
C333 C 0.613900 1.160600 0.014940
H334 H 0.610000 1.203000 -0.007400
C335 C 0.701800 1.110300 0.028160
C336 C 0.708700 1.043000 0.061020
H337 H 0.768800 1.005800 0.069400
C338 C 0.637500 0.967000 0.117100
C339 C 0.705900 1.010300 0.140910
H340 H 0.758700 1.085800 0.138200
C341 C 0.679600 0.916900 0.170290
C342 C 0.696500 0.821500 0.227810
H343 H 0.671700 0.710300 0.219400
H344 H 0.749400 0.797800 0.243700
C345 C 0.616000 0.920000 0.246070
C346 C 0.612100 0.724900 0.298710
C347 C 0.456100 0.870200 0.322340
H348 H 0.439200 0.953600 0.340200
H349 H 0.397800 0.805600 0.316000
C350 C 0.497800 0.962900 0.291740
H351 H 0.522600 1.076900 0.298500
H352 H 0.447400 0.980300 0.274600

#END
