./KACRUB03_from_xyz.cif_generated_by_CrystalShift
_symmetry_cell_setting triclinic
_symmetry_space_group_name_H-M 'P 1'
loop_
_symmetry_equiv_pos_site_id
_symmetry_equiv_pos_as_xyz
1 x,y,z
_cell_length_a 10.229000
_cell_length_b 10.967000
_cell_length_c 10.547000
_cell_angle_alpha 90.000000
_cell_angle_beta 92.152000
_cell_angle_gamma 90.000000
_cell_volume 1182.343162
loop_
_atom_site_label
_atom_site_type_symbol
_atom_site_fract_x
_atom_site_fract_y
_atom_site_fract_z
V1 V -0.072150 -0.072540 0.101980
N2 N -0.253400 0.016100 0.138300
N3 N -0.011400 0.072100 0.236700
O4 O -0.076560 -0.167490 0.217870
O5 O 0.075460 -0.086250 0.038770
O6 O -0.174640 -0.156280 -0.023300
O7 O 0.261100 -0.068900 0.229400
H8 H 0.226200 -0.065600 0.158200
C9 C -0.294100 -0.201600 -0.015200
C10 C -0.390000 -0.146900 0.059600
C11 C -0.513900 -0.200300 0.064900
H12 H -0.576800 -0.164700 0.114500
C13 C -0.543700 -0.304000 -0.001900
H14 H -0.625300 -0.340400 0.004300
C15 C -0.451200 -0.354600 -0.079000
H16 H -0.472500 -0.423600 -0.126700
C17 C -0.328800 -0.304400 -0.086100
H18 H -0.268400 -0.339500 -0.138900
C19 C -0.365700 -0.032100 0.122500
H20 H -0.437000 0.009500 0.153500
C21 C -0.238800 0.133900 0.200300
H22 H -0.319100 0.156800 0.240200
H23 H -0.217400 0.196300 0.139300
C24 C -0.129200 0.119000 0.298200
H25 H -0.109600 0.197000 0.338000
H26 H -0.155300 0.062600 0.363400
C27 C 0.087100 0.039100 0.338500
H28 H 0.064500 -0.040200 0.372000
H29 H 0.081000 0.097700 0.407000
C30 C 0.226700 0.034900 0.299100
H31 H 0.243400 0.106700 0.248500
H32 H 0.283400 0.039300 0.374700
V33 V 0.072150 0.072540 -0.101980
N34 N 0.253400 -0.016100 -0.138300
N35 N 0.011400 -0.072100 -0.236700
O36 O 0.076560 0.167490 -0.217870
O37 O -0.075460 0.086250 -0.038770
O38 O 0.174640 0.156280 0.023300
O39 O -0.261100 0.068900 -0.229400
H40 H -0.226200 0.065600 -0.158200
C41 C 0.294100 0.201600 0.015200
C42 C 0.390000 0.146900 -0.059600
C43 C 0.513900 0.200300 -0.064900
H44 H 0.576800 0.164700 -0.114500
C45 C 0.543700 0.304000 0.001900
H46 H 0.625300 0.340400 -0.004300
C47 C 0.451200 0.354600 0.079000
H48 H 0.472500 0.423600 0.126700
C49 C 0.328800 0.304400 0.086100
H50 H 0.268400 0.339500 0.138900
C51 C 0.365700 0.032100 -0.122500
H52 H 0.437000 -0.009500 -0.153500
C53 C 0.238800 -0.133900 -0.200300
H54 H 0.319100 -0.156800 -0.240200
H55 H 0.217400 -0.196300 -0.139300
C56 C 0.129200 -0.119000 -0.298200
H57 H 0.109600 -0.197000 -0.338000
H58 H 0.155300 -0.062600 -0.363400
C59 C -0.087100 -0.039100 -0.338500
H60 H -0.064500 0.040200 -0.372000
H61 H -0.081000 -0.097700 -0.407000
C62 C -0.226700 -0.034900 -0.299100
H63 H -0.243400 -0.106700 -0.248500
H64 H -0.283400 -0.039300 -0.374700
V65 V -0.072150 -0.072540 1.101980
N66 N -0.253400 0.016100 1.138300
N67 N -0.011400 0.072100 1.236700
O68 O -0.076560 -0.167490 1.217870
O69 O 0.075460 -0.086250 1.038770
O70 O -0.174640 -0.156280 0.976700
O71 O 0.261100 -0.068900 1.229400
H72 H 0.226200 -0.065600 1.158200
C73 C -0.294100 -0.201600 0.984800
C74 C -0.390000 -0.146900 1.059600
C75 C -0.513900 -0.200300 1.064900
H76 H -0.576800 -0.164700 1.114500
C77 C -0.543700 -0.304000 0.998100
H78 H -0.625300 -0.340400 1.004300
C79 C -0.451200 -0.354600 0.921000
H80 H -0.472500 -0.423600 0.873300
C81 C -0.328800 -0.304400 0.913900
H82 H -0.268400 -0.339500 0.861100
C83 C -0.365700 -0.032100 1.122500
H84 H -0.437000 0.009500 1.153500
C85 C -0.238800 0.133900 1.200300
H86 H -0.319100 0.156800 1.240200
H87 H -0.217400 0.196300 1.139300
C88 C -0.129200 0.119000 1.298200
H89 H -0.109600 0.197000 1.338000
H90 H -0.155300 0.062600 1.363400
C91 C 0.087100 0.039100 1.338500
H92 H 0.064500 -0.040200 1.372000
H93 H 0.081000 0.097700 1.407000
C94 C 0.226700 0.034900 1.299100
H95 H 0.243400 0.106700 1.248500
H96 H 0.283400 0.039300 1.374700
V97 V 0.072150 0.072540 0.898020
N98 N 0.253400 -0.016100 0.861700
N99 N 0.011400 -0.072100 0.763300
O100 O 0.076560 0.167490 0.782130
O101 O -0.075460 0.086250 0.961230
O102 O 0.174640 0.156280 1.023300
O103 O -0.261100 0.068900 0.770600
H104 H -0.226200 0.065600 0.841800
C105 C 0.294100 0.201600 1.015200
C106 C 0.390000 0.146900 0.940400
C107 C 0.513900 0.200300 0.935100
H108 H 0.576800 0.164700 0.885500
C109 C 0.543700 0.304000 1.001900
H110 H 0.625300 0.340400 0.995700
C111 C 0.451200 0.354600 1.079000
H112 H 0.472500 0.423600 1.126700
C113 C 0.328800 0.304400 1.086100
H114 H 0.268400 0.339500 1.138900
C115 C 0.365700 0.032100 0.877500
H116 H 0.437000 -0.009500 0.846500
C117 C 0.238800 -0.133900 0.799700
H118 H 0.319100 -0.156800 0.759800
H119 H 0.217400 -0.196300 0.860700
C120 C 0.129200 -0.119000 0.701800
H121 H 0.109600 -0.197000 0.662000
H122 H 0.155300 -0.062600 0.636600
C123 C -0.087100 -0.039100 0.661500
H124 H -0.064500 0.040200 0.628000
H125 H -0.081000 -0.097700 0.593000
C126 C -0.226700 -0.034900 0.700900
H127 H -0.243400 -0.106700 0.751500
H128 H -0.283400 -0.039300 0.625300
V129 V -0.072150 0.927460 0.101980
N130 N -0.253400 1.016100 0.138300
N131 N -0.011400 1.072100 0.236700
O132 O -0.076560 0.832510 0.217870
O133 O 0.075460 0.913750 0.038770
O134 O -0.174640 0.843720 -0.023300
O135 O 0.261100 0.931100 0.229400
H136 H 0.226200 0.934400 0.158200
C137 C -0.294100 0.798400 -0.015200
C138 C -0.390000 0.853100 0.059600
C139 C -0.513900 0.799700 0.064900
H140 H -0.576800 0.835300 0.114500
C141 C -0.543700 0.696000 -0.001900
H142 H -0.625300 0.659600 0.004300
C143 C -0.451200 0.645400 -0.079000
H144 H -0.472500 0.576400 -0.126700
C145 C -0.328800 0.695600 -0.086100
H146 H -0.268400 0.660500 -0.138900
C147 C -0.365700 0.967900 0.122500
H148 H -0.437000 1.009500 0.153500
C149 C -0.238800 1.133900 0.200300
H150 H -0.319100 1.156800 0.240200
H151 H -0.217400 1.196300 0.139300
C152 C -0.129200 1.119000 0.298200
H153 H -0.109600 1.197000 0.338000
H154 H -0.155300 1.062600 0.363400
C155 C 0.087100 1.039100 0.338500
H156 H 0.064500 0.959800 0.372000
H157 H 0.081000 1.097700 0.407000
C158 C 0.226700 1.034900 0.299100
H159 H 0.243400 1.106700 0.248500
H160 H 0.283400 1.039300 0.374700
V161 V 0.072150 1.072540 -0.101980
N162 N 0.253400 0.983900 -0.138300
N163 N 0.011400 0.927900 -0.236700
O164 O 0.076560 1.167490 -0.217870
O165 O -0.075460 1.086250 -0.038770
O166 O 0.174640 1.156280 0.023300
O167 O -0.261100 1.068900 -0.229400
H168 H -0.226200 1.065600 -0.158200
C169 C 0.294100 1.201600 0.015200
C170 C 0.390000 1.146900 -0.059600
C171 C 0.513900 1.200300 -0.064900
H172 H 0.576800 1.164700 -0.114500
C173 C 0.543700 1.304000 0.001900
H174 H 0.625300 1.340400 -0.004300
C175 C 0.451200 1.354600 0.079000
H176 H 0.472500 1.423600 0.126700
C177 C 0.328800 1.304400 0.086100
H178 H 0.268400 1.339500 0.138900
C179 C 0.365700 1.032100 -0.122500
H180 H 0.437000 0.990500 -0.153500
C181 C 0.238800 0.866100 -0.200300
H182 H 0.319100 0.843200 -0.240200
H183 H 0.217400 0.803700 -0.139300
C184 C 0.129200 0.881000 -0.298200
H185 H 0.109600 0.803000 -0.338000
H186 H 0.155300 0.937400 -0.363400
C187 C -0.087100 0.960900 -0.338500
H188 H -0.064500 1.040200 -0.372000
H189 H -0.081000 0.902300 -0.407000
C190 C -0.226700 0.965100 -0.299100
H191 H -0.243400 0.893300 -0.248500
H192 H -0.283400 0.960700 -0.374700
V193 V -0.072150 0.927460 1.101980
N194 N -0.253400 1.016100 1.138300
N195 N -0.011400 1.072100 1.236700
O196 O -0.076560 0.832510 1.217870
O197 O 0.075460 0.913750 1.038770
O198 O -0.174640 0.843720 0.976700
O199 O 0.261100 0.931100 1.229400
H200 H 0.226200 0.934400 1.158200
C201 C -0.294100 0.798400 0.984800
C202 C -0.390000 0.853100 1.059600
C203 C -0.513900 0.799700 1.064900
H204 H -0.576800 0.835300 1.114500
C205 C -0.543700 0.696000 0.998100
H206 H -0.625300 0.659600 1.004300
C207 C -0.451200 0.645400 0.921000
H208 H -0.472500 0.576400 0.873300
C209 C -0.328800 0.695600 0.913900
H210 H -0.268400 0.660500 0.861100
C211 C -0.365700 0.967900 1.122500
H212 H -0.437000 1.009500 1.153500
C213 C -0.238800 1.133900 1.200300
H214 H -0.319100 1.156800 1.240200
H215 H -0.217400 1.196300 1.139300
C216 C -0.129200 1.119000 1.298200
H217 H -0.109600 1.197000 1.338000
H218 H -0.155300 1.062600 1.363400
C219 C 0.087100 1.039100 1.338500
H220 H 0.064500 0.959800 1.372000
H221 H 0.081000 1.097700 1.407000
C222 C 0.226700 1.034900 1.299100
H223 H 0.243400 1.106700 1.248500
H224 H 0.283400 1.039300 1.374700
V225 V 0.072150 1.072540 0.898020
N226 N 0.253400 0.983900 0.861700
N227 N 0.011400 0.927900 0.763300
O228 O 0.076560 1.167490 0.782130
O229 O -0.075460 1.086250 0.961230
O230 O 0.174640 1.156280 1.023300
O231 O -0.261100 1.068900 0.770600
H232 H -0.226200 1.065600 0.841800
C233 C 0.294100 1.201600 1.015200
C234 C 0.390000 1.146900 0.940400
C235 C 0.513900 1.200300 0.935100
H236 H 0.576800 1.164700 0.885500
C237 C 0.543700 1.304000 1.001900
H238 H 0.625300 1.340400 0.995700
C239 C 0.451200 1.354600 1.079000
H240 H 0.472500 1.423600 1.126700
C241 C 0.328800 1.304400 1.086100
H242 H 0.268400 1.339500 1.138900
C243 C 0.365700 1.032100 0.877500
H244 H 0.437000 0.990500 0.846500
C245 C 0.238800 0.866100 0.799700
H246 H 0.319100 0.843200 0.759800
H247 H 0.217400 0.803700 0.860700
C248 C 0.129200 0.881000 0.701800
H249 H 0.109600 0.803000 0.662000
H250 H 0.155300 0.937400 0.636600
C251 C -0.087100 0.960900 0.661500
H252 H -0.064500 1.040200 0.628000
H253 H -0.081000 0.902300 0.593000
C254 C -0.226700 0.965100 0.700900
H255 H -0.243400 0.893300 0.751500
H256 H -0.283400 0.960700 0.625300
V257 V 0.927850 -0.072540 0.101980
N258 N 0.746600 0.016100 0.138300
N259 N 0.988600 0.072100 0.236700
O260 O 0.923440 -0.167490 0.217870
O261 O 1.075460 -0.086250 0.038770
O262 O 0.825360 -0.156280 -0.023300
O263 O 1.261100 -0.068900 0.229400
H264 H 1.226200 -0.065600 0.158200
C265 C 0.705900 -0.201600 -0.015200
C266 C 0.610000 -0.146900 0.059600
C267 C 0.486100 -0.200300 0.064900
H268 H 0.423200 -0.164700 0.114500
C269 C 0.456300 -0.304000 -0.001900
H270 H 0.374700 -0.340400 0.004300
C271 C 0.548800 -0.354600 -0.079000
H272 H 0.527500 -0.423600 -0.126700
C273 C 0.671200 -0.304400 -0.086100
H274 H 0.731600 -0.339500 -0.138900
C275 C 0.634300 -0.032100 0.122500
H276 H 0.563000 0.009500 0.153500
C277 C 0.761200 0.133900 0.200300
H278 H 0.680900 0.156800 0.240200
H279 H 0.782600 0.196300 0.139300
C280 C 0.870800 0.119000 0.298200
H281 H 0.890400 0.197000 0.338000
H282 H 0.844700 0.062600 0.363400
C283 C 1.087100 0.039100 0.338500
H284 H 1.064500 -0.040200 0.372000
H285 H 1.081000 0.097700 0.407000
C286 C 1.226700 0.034900 0.299100
H287 H 1.243400 0.106700 0.248500
H288 H 1.283400 0.039300 0.374700
V289 V 1.072150 0.072540 -0.101980
N290 N 1.253400 -0.016100 -0.138300
N291 N 1.011400 -0.072100 -0.236700
O292 O 1.076560 0.167490 -0.217870
O293 O 0.924540 0.086250 -0.038770
O294 O 1.174640 0.156280 0.023300
O295 O 0.738900 0.068900 -0.229400
H296 H 0.773800 0.065600 -0.158200
C297 C 1.294100 0.201600 0.015200
C298 C 1.390000 0.146900 -0.059600
C299 C 1.513900 0.200300 -0.064900
H300 H 1.576800 0.164700 -0.114500
C301 C 1.543700 0.304000 0.001900
H302 H 1.625300 0.340400 -0.004300
C303 C 1.451200 0.354600 0.079000
H304 H 1.472500 0.423600 0.126700
C305 C 1.328800 0.304400 0.086100
H306 H 1.268400 0.339500 0.138900
C307 C 1.365700 0.032100 -0.122500
H308 H 1.437000 -0.009500 -0.153500
C309 C 1.238800 -0.133900 -0.200300
H310 H 1.319100 -0.156800 -0.240200
H311 H 1.217400 -0.196300 -0.139300
C312 C 1.129200 -0.119000 -0.298200
H313 H 1.109600 -0.197000 -0.338000
H314 H 1.155300 -0.062600 -0.363400
C315 C 0.912900 -0.039100 -0.338500
H316 H 0.935500 0.040200 -0.372000
H317 H 0.919000 -0.097700 -0.407000
C318 C 0.773300 -0.034900 -0.299100
H319 H 0.756600 -0.106700 -0.248500
H320 H 0.716600 -0.039300 -0.374700
V321 V 0.927850 -0.072540 1.101980
N322 N 0.746600 0.016100 1.138300
N323 N 0.988600 0.072100 1.236700
O324 O 0.923440 -0.167490 1.217870
O325 O 1.075460 -0.086250 1.038770
O326 O 0.825360 -0.156280 0.976700
O327 O 1.261100 -0.068900 1.229400
H328 H 1.226200 -0.065600 1.158200
C329 C 0.705900 -0.201600 0.984800
C330 C 0.610000 -0.146900 1.059600
C331 C 0.486100 -0.200300 1.064900
H332 H 0.423200 -0.164700 1.114500
C333 C 0.456300 -0.304000 0.998100
H334 H 0.374700 -0.340400 1.004300
C335 C 0.548800 -0.354600 0.921000
H336 H 0.527500 -0.423600 0.873300
C337 C 0.671200 -0.304400 0.913900
H338 H 0.731600 -0.339500 0.861100
C339 C 0.634300 -0.032100 1.122500
H340 H 0.563000 0.009500 1.153500
C341 C 0.761200 0.133900 1.200300
H342 H 0.680900 0.156800 1.240200
H343 H 0.782600 0.196300 1.139300
C344 C 0.870800 0.119000 1.298200
H345 H 0.890400 0.197000 1.338000
H346 H 0.844700 0.062600 1.363400
C347 C 1.087100 0.039100 1.338500
H348 H 1.064500 -0.040200 1.372000
H349 H 1.081000 0.097700 1.407000
C350 C 1.226700 0.034900 1.299100
H351 H 1.243400 0.106700 1.248500
H352 H 1.283400 0.039300 1.374700
V353 V 1.072150 0.072540 0.898020
N354 N 1.253400 -0.016100 0.861700
N355 N 1.011400 -0.072100 0.763300
O356 O 1.076560 0.167490 0.782130
O357 O 0.924540 0.086250 0.961230
O358 O 1.174640 0.156280 1.023300
O359 O 0.738900 0.068900 0.770600
H360 H 0.773800 0.065600 0.841800
C361 C 1.294100 0.201600 1.015200
C362 C 1.390000 0.146900 0.940400
C363 C 1.513900 0.200300 0.935100
H364 H 1.576800 0.164700 0.885500
C365 C 1.543700 0.304000 1.001900
H366 H 1.625300 0.340400 0.995700
C367 C 1.451200 0.354600 1.079000
H368 H 1.472500 0.423600 1.126700
C369 C 1.328800 0.304400 1.086100
H370 H 1.268400 0.339500 1.138900
C371 C 1.365700 0.032100 0.877500
H372 H 1.437000 -0.009500 0.846500
C373 C 1.238800 -0.133900 0.799700
H374 H 1.319100 -0.156800 0.759800
H375 H 1.217400 -0.196300 0.860700
C376 C 1.129200 -0.119000 0.701800
H377 H 1.109600 -0.197000 0.662000
H378 H 1.155300 -0.062600 0.636600
C379 C 0.912900 -0.039100 0.661500
H380 H 0.935500 0.040200 0.628000
H381 H 0.919000 -0.097700 0.593000
C382 C 0.773300 -0.034900 0.700900
H383 H 0.756600 -0.106700 0.751500
H384 H 0.716600 -0.039300 0.625300
V385 V 0.927850 0.927460 0.101980
N386 N 0.746600 1.016100 0.138300
N387 N 0.988600 1.072100 0.236700
O388 O 0.923440 0.832510 0.217870
O389 O 1.075460 0.913750 0.038770
O390 O 0.825360 0.843720 -0.023300
O391 O 1.261100 0.931100 0.229400
H392 H 1.226200 0.934400 0.158200
C393 C 0.705900 0.798400 -0.015200
C394 C 0.610000 0.853100 0.059600
C395 C 0.486100 0.799700 0.064900
H396 H 0.423200 0.835300 0.114500
C397 C 0.456300 0.696000 -0.001900
H398 H 0.374700 0.659600 0.004300
C399 C 0.548800 0.645400 -0.079000
H400 H 0.527500 0.576400 -0.126700
C401 C 0.671200 0.695600 -0.086100
H402 H 0.731600 0.660500 -0.138900
C403 C 0.634300 0.967900 0.122500
H404 H 0.563000 1.009500 0.153500
C405 C 0.761200 1.133900 0.200300
H406 H 0.680900 1.156800 0.240200
H407 H 0.782600 1.196300 0.139300
C408 C 0.870800 1.119000 0.298200
H409 H 0.890400 1.197000 0.338000
H410 H 0.844700 1.062600 0.363400
C411 C 1.087100 1.039100 0.338500
H412 H 1.064500 0.959800 0.372000
H413 H 1.081000 1.097700 0.407000
C414 C 1.226700 1.034900 0.299100
H415 H 1.243400 1.106700 0.248500
H416 H 1.283400 1.039300 0.374700
V417 V 1.072150 1.072540 -0.101980
N418 N 1.253400 0.983900 -0.138300
N419 N 1.011400 0.927900 -0.236700
O420 O 1.076560 1.167490 -0.217870
O421 O 0.924540 1.086250 -0.038770
O422 O 1.174640 1.156280 0.023300
O423 O 0.738900 1.068900 -0.229400
H424 H 0.773800 1.065600 -0.158200
C425 C 1.294100 1.201600 0.015200
C426 C 1.390000 1.146900 -0.059600
C427 C 1.513900 1.200300 -0.064900
H428 H 1.576800 1.164700 -0.114500
C429 C 1.543700 1.304000 0.001900
H430 H 1.625300 1.340400 -0.004300
C431 C 1.451200 1.354600 0.079000
H432 H 1.472500 1.423600 0.126700
C433 C 1.328800 1.304400 0.086100
H434 H 1.268400 1.339500 0.138900
C435 C 1.365700 1.032100 -0.122500
H436 H 1.437000 0.990500 -0.153500
C437 C 1.238800 0.866100 -0.200300
H438 H 1.319100 0.843200 -0.240200
H439 H 1.217400 0.803700 -0.139300
C440 C 1.129200 0.881000 -0.298200
H441 H 1.109600 0.803000 -0.338000
H442 H 1.155300 0.937400 -0.363400
C443 C 0.912900 0.960900 -0.338500
H444 H 0.935500 1.040200 -0.372000
H445 H 0.919000 0.902300 -0.407000
C446 C 0.773300 0.965100 -0.299100
H447 H 0.756600 0.893300 -0.248500
H448 H 0.716600 0.960700 -0.374700
V449 V 0.927850 0.927460 1.101980
N450 N 0.746600 1.016100 1.138300
N451 N 0.988600 1.072100 1.236700
O452 O 0.923440 0.832510 1.217870
O453 O 1.075460 0.913750 1.038770
O454 O 0.825360 0.843720 0.976700
O455 O 1.261100 0.931100 1.229400
H456 H 1.226200 0.934400 1.158200
C457 C 0.705900 0.798400 0.984800
C458 C 0.610000 0.853100 1.059600
C459 C 0.486100 0.799700 1.064900
H460 H 0.423200 0.835300 1.114500
C461 C 0.456300 0.696000 0.998100
H462 H 0.374700 0.659600 1.004300
C463 C 0.548800 0.645400 0.921000
H464 H 0.527500 0.576400 0.873300
C465 C 0.671200 0.695600 0.913900
H466 H 0.731600 0.660500 0.861100
C467 C 0.634300 0.967900 1.122500
H468 H 0.563000 1.009500 1.153500
C469 C 0.761200 1.133900 1.200300
H470 H 0.680900 1.156800 1.240200
H471 H 0.782600 1.196300 1.139300
C472 C 0.870800 1.119000 1.298200
H473 H 0.890400 1.197000 1.338000
H474 H 0.844700 1.062600 1.363400
C475 C 1.087100 1.039100 1.338500
H476 H 1.064500 0.959800 1.372000
H477 H 1.081000 1.097700 1.407000
C478 C 1.226700 1.034900 1.299100
H479 H 1.243400 1.106700 1.248500
H480 H 1.283400 1.039300 1.374700
V481 V 1.072150 1.072540 0.898020
N482 N 1.253400 0.983900 0.861700
N483 N 1.011400 0.927900 0.763300
O484 O 1.076560 1.167490 0.782130
O485 O 0.924540 1.086250 0.961230
O486 O 1.174640 1.156280 1.023300
O487 O 0.738900 1.068900 0.770600
H488 H 0.773800 1.065600 0.841800
C489 C 1.294100 1.201600 1.015200
C490 C 1.390000 1.146900 0.940400
C491 C 1.513900 1.200300 0.935100
H492 H 1.576800 1.164700 0.885500
C493 C 1.543700 1.304000 1.001900
H494 H 1.625300 1.340400 0.995700
C495 C 1.451200 1.354600 1.079000
H496 H 1.472500 1.423600 1.126700
C497 C 1.328800 1.304400 1.086100
H498 H 1.268400 1.339500 1.138900
C499 C 1.365700 1.032100 0.877500
H500 H 1.437000 0.990500 0.846500
C501 C 1.238800 0.866100 0.799700
H502 H 1.319100 0.843200 0.759800
H503 H 1.217400 0.803700 0.860700
C504 C 1.129200 0.881000 0.701800
H505 H 1.109600 0.803000 0.662000
H506 H 1.155300 0.937400 0.636600
C507 C 0.912900 0.960900 0.661500
H508 H 0.935500 1.040200 0.628000
H509 H 0.919000 0.902300 0.593000
C510 C 0.773300 0.965100 0.700900
H511 H 0.756600 0.893300 0.751500
H512 H 0.716600 0.960700 0.625300
V513 V 0.072150 0.427460 0.398020
N514 N 0.253400 0.516100 0.361700
N515 N 0.011400 0.572100 0.263300
O516 O 0.076560 0.332510 0.282130
O517 O -0.075460 0.413750 0.461230
O518 O 0.174640 0.343720 0.523300
O519 O -0.261100 0.431100 0.270600
H520 H -0.226200 0.434400 0.341800
C521 C 0.294100 0.298400 0.515200
C522 C 0.390000 0.353100 0.440400
C523 C 0.513900 0.299700 0.435100
H524 H 0.576800 0.335300 0.385500
C525 C 0.543700 0.196000 0.501900
H526 H 0.625300 0.159600 0.495700
C527 C 0.451200 0.145400 0.579000
H528 H 0.472500 0.076400 0.626700
C529 C 0.328800 0.195600 0.586100
H530 H 0.268400 0.160500 0.638900
C531 C 0.365700 0.467900 0.377500
H532 H 0.437000 0.509500 0.346500
C533 C 0.238800 0.633900 0.299700
H534 H 0.319100 0.656800 0.259800
H535 H 0.217400 0.696300 0.360700
C536 C 0.129200 0.619000 0.201800
H537 H 0.109600 0.697000 0.162000
H538 H 0.155300 0.562600 0.136600
C539 C -0.087100 0.539100 0.161500
H540 H -0.064500 0.459800 0.128000
H541 H -0.081000 0.597700 0.093000
C542 C -0.226700 0.534900 0.200900
H543 H -0.243400 0.606700 0.251500
H544 H -0.283400 0.539300 0.125300
V545 V -0.072150 0.572540 0.601980
N546 N -0.253400 0.483900 0.638300
N547 N -0.011400 0.427900 0.736700
O548 O -0.076560 0.667490 0.717870
O549 O 0.075460 0.586250 0.538770
O550 O -0.174640 0.656280 0.476700
O551 O 0.261100 0.568900 0.729400
H552 H 0.226200 0.565600 0.658200
C553 C -0.294100 0.701600 0.484800
C554 C -0.390000 0.646900 0.559600
C555 C -0.513900 0.700300 0.564900
H556 H -0.576800 0.664700 0.614500
C557 C -0.543700 0.804000 0.498100
H558 H -0.625300 0.840400 0.504300
C559 C -0.451200 0.854600 0.421000
H560 H -0.472500 0.923600 0.373300
C561 C -0.328800 0.804400 0.413900
H562 H -0.268400 0.839500 0.361100
C563 C -0.365700 0.532100 0.622500
H564 H -0.437000 0.490500 0.653500
C565 C -0.238800 0.366100 0.700300
H566 H -0.319100 0.343200 0.740200
H567 H -0.217400 0.303700 0.639300
C568 C -0.129200 0.381000 0.798200
H569 H -0.109600 0.303000 0.838000
H570 H -0.155300 0.437400 0.863400
C571 C 0.087100 0.460900 0.838500
H572 H 0.064500 0.540200 0.872000
H573 H 0.081000 0.402300 0.907000
C574 C 0.226700 0.465100 0.799100
H575 H 0.243400 0.393300 0.748500
H576 H 0.283400 0.460700 0.874700
V577 V 1.072150 0.427460 0.398020
N578 N 1.253400 0.516100 0.361700
N579 N 1.011400 0.572100 0.263300
O580 O 1.076560 0.332510 0.282130
O581 O 0.924540 0.413750 0.461230
O582 O 1.174640 0.343720 0.523300
O583 O 0.738900 0.431100 0.270600
H584 H 0.773800 0.434400 0.341800
C585 C 1.294100 0.298400 0.515200
C586 C 1.390000 0.353100 0.440400
C587 C 1.513900 0.299700 0.435100
H588 H 1.576800 0.335300 0.385500
C589 C 1.543700 0.196000 0.501900
H590 H 1.625300 0.159600 0.495700
C591 C 1.451200 0.145400 0.579000
H592 H 1.472500 0.076400 0.626700
C593 C 1.328800 0.195600 0.586100
H594 H 1.268400 0.160500 0.638900
C595 C 1.365700 0.467900 0.377500
H596 H 1.437000 0.509500 0.346500
C597 C 1.238800 0.633900 0.299700
H598 H 1.319100 0.656800 0.259800
H599 H 1.217400 0.696300 0.360700
C600 C 1.129200 0.619000 0.201800
H601 H 1.109600 0.697000 0.162000
H602 H 1.155300 0.562600 0.136600
C603 C 0.912900 0.539100 0.161500
H604 H 0.935500 0.459800 0.128000
H605 H 0.919000 0.597700 0.093000
C606 C 0.773300 0.534900 0.200900
H607 H 0.756600 0.606700 0.251500
H608 H 0.716600 0.539300 0.125300
V609 V 0.927850 0.572540 0.601980
N610 N 0.746600 0.483900 0.638300
N611 N 0.988600 0.427900 0.736700
O612 O 0.923440 0.667490 0.717870
O613 O 1.075460 0.586250 0.538770
O614 O 0.825360 0.656280 0.476700
O615 O 1.261100 0.568900 0.729400
H616 H 1.226200 0.565600 0.658200
C617 C 0.705900 0.701600 0.484800
C618 C 0.610000 0.646900 0.559600
C619 C 0.486100 0.700300 0.564900
H620 H 0.423200 0.664700 0.614500
C621 C 0.456300 0.804000 0.498100
H622 H 0.374700 0.840400 0.504300
C623 C 0.548800 0.854600 0.421000
H624 H 0.527500 0.923600 0.373300
C625 C 0.671200 0.804400 0.413900
H626 H 0.731600 0.839500 0.361100
C627 C 0.634300 0.532100 0.622500
H628 H 0.563000 0.490500 0.653500
C629 C 0.761200 0.366100 0.700300
H630 H 0.680900 0.343200 0.740200
H631 H 0.782600 0.303700 0.639300
C632 C 0.870800 0.381000 0.798200
H633 H 0.890400 0.303000 0.838000
H634 H 0.844700 0.437400 0.863400
C635 C 1.087100 0.460900 0.838500
H636 H 1.064500 0.540200 0.872000
H637 H 1.081000 0.402300 0.907000
C638 C 1.226700 0.465100 0.799100
H639 H 1.243400 0.393300 0.748500
H640 H 1.283400 0.460700 0.874700

#END
