
#######################################################################
#
#                 Cambridge Crystallographic Data Centre
#                                CCDC 
#
#######################################################################
#
# If this CIF has been generated from an entry in the Cambridge 
# Structural Database, then it will include bibliographic, chemical, 
# crystal, experimental, refinement or atomic coordinate data resulting 
# from the CCDC's data processing and validation procedures.
#
#######################################################################

data_KACRUB
_symmetry_cell_setting           monoclinic
_symmetry_space_group_name_H-M   'P 21/c'
_symmetry_Int_Tables_number      14
_space_group_name_Hall           '-P 2ybc'
loop_
_symmetry_equiv_pos_site_id
_symmetry_equiv_pos_as_xyz
1 x,y,z
2 -x,1/2+y,1/2-z
3 -x,-y,-z
4 x,1/2-y,1/2+z
_cell_length_a                   11.246(3)
_cell_length_b                   6.842(2)
_cell_length_c                   17.022(5)
_cell_angle_alpha                90
_cell_angle_beta                 114.38(4)
_cell_angle_gamma                90
_cell_volume                     1192.97
loop_
_atom_site_label
_atom_site_type_symbol
_atom_site_fract_x
_atom_site_fract_y
_atom_site_fract_z
V1 V -0.1563 0.0155 0.4728
O1 O -0.0301(1) 0.1541(2) 0.5363(1)
O2 O -0.2849(2) 0.0964(2) 0.4808(1)
O3 O -0.1800(2) 0.1119(2) 0.3621(1)
O4 O -0.0742(2) -0.1246(3) 0.8005(1)
N1 N -0.2360(2) -0.2496(3) 0.4045(1)
N2 N -0.1170(2) -0.1970(3) 0.5747(1)
C1 C -0.2761(2) 0.0770(3) 0.2847(1)
C2 C -0.3047(3) 0.2189(4) 0.2201(2)
C3 C -0.3967(3) 0.1825(5) 0.1376(2)
C4 C -0.4627(2) 0.0073(5) 0.1175(2)
C5 C -0.4377(2) -0.1340(4) 0.1791(1)
C6 C -0.3443(2) -0.1025(4) 0.2643(1)
C7 C -0.3130(2) -0.2619(3) 0.3242(1)
C8 C -0.1989(2) -0.4284(3) 0.4561(1)
C9 C -0.1939(3) -0.3793(3) 0.5435(2)
C10 C -0.1339(2) -0.1111(3) 0.6498(1)
C11 C -0.0659(3) -0.2287(4) 0.7308(2)
H1 H -0.2600(27) 0.3330(43) 0.2364(17)
H2 H -0.4150(27) 0.2792(41) 0.0960(18)
H3 H -0.5234(27) -0.0157(38) 0.0620(19)
H4 H -0.4788(27) -0.2642(42) 0.1635(17)
H5 H -0.3496(26) -0.3878(42) 0.3010(17)
H6 H -0.1111(29) -0.4662(38) 0.4603(18)
H7 H -0.2600(27) -0.5304(40) 0.4304(18)
H8 H -0.1622(27) -0.4930(41) 0.5796(18)
H9 H -0.2772(27) -0.3565(41) 0.5423(17)
H10 H -0.0393(28) -0.2197(42) 0.5877(18)
H11 H -0.2300(27) -0.1037(41) 0.6341(16)
H12 H -0.1005(27) 0.0231(40) 0.6585(17)
H13 H 0.0207(28) -0.2422(39) 0.7370(17)
H14 H -0.1043(26) -0.3612(44) 0.7263(16)
H15 H -0.0486(28) -0.1930(44) 0.8423(18)
V1B V 0.1563 -0.0155 0.5272
O1B O 0.0301(1) -0.1541(2) 0.4637(1)
O2B O 0.2849(2) -0.0964(2) 0.5192(1)
O3B O 0.1800(2) -0.1119(2) 0.6379(1)
O4B O 0.0742(2) 0.1246(3) 0.1995(1)
N1B N 0.2360(2) 0.2496(3) 0.5955(1)
N2B N 0.1170(2) 0.1970(3) 0.4253(1)
C1B C 0.2761(2) -0.0770(3) 0.7153(1)
C2B C 0.3047(3) -0.2189(4) 0.7799(2)
C3B C 0.3967(3) -0.1825(5) 0.8624(2)
C4B C 0.4627(2) -0.0073(5) 0.8825(2)
C5B C 0.4377(2) 0.1340(4) 0.8209(1)
C6B C 0.3443(2) 0.1025(4) 0.7357(1)
C7B C 0.3130(2) 0.2619(3) 0.6758(1)
C8B C 0.1989(2) 0.4284(3) 0.5439(1)
C9B C 0.1939(3) 0.3793(3) 0.4565(2)
C10B C 0.1339(2) 0.1111(3) 0.3502(1)
C11B C 0.0659(3) 0.2287(4) 0.2692(2)
H1B H 0.2600(27) -0.3330(43) 0.7636(17)
H2B H 0.4150(27) -0.2792(41) 0.9040(18)
H3B H 0.5234(27) 0.0157(38) 0.9380(19)
H4B H 0.4788(27) 0.2642(42) 0.8365(17)
H5B H 0.3496(26) 0.3878(42) 0.6990(17)
H6B H 0.1111(29) 0.4662(38) 0.5397(18)
H7B H 0.2600(27) 0.5304(40) 0.5696(18)
H8B H 0.1622(27) 0.4930(41) 0.4204(18)
H9B H 0.2772(27) 0.3565(41) 0.4577(17)
H10B H 0.0393(28) 0.2197(42) 0.4123(18)
H11B H 0.2300(27) 0.1037(41) 0.3659(16)
H12B H 0.1005(27) -0.0231(40) 0.3415(17)
H13B H -0.0207(28) 0.2422(39) 0.2630(17)
H14B H 0.1043(26) 0.3612(44) 0.2737(16)
H15B H 0.0486(28) 0.1930(44) 0.1577(18)
V1 V -0.1563 1.0155 0.4728
O1 O -0.0301(1) 1.1541(2) 0.5363(1)
O2 O -0.2849(2) 1.0964(2) 0.4808(1)
O3 O -0.1800(2) 1.1119(2) 0.3621(1)
O4 O -0.0742(2) 0.8754(3) 0.8005(1)
N1 N -0.2360(2) 0.7504(3) 0.4045(1)
N2 N -0.1170(2) 0.8030(3) 0.5747(1)
C1 C -0.2761(2) 1.0770(3) 0.2847(1)
C2 C -0.3047(3) 1.2189(4) 0.2201(2)
C3 C -0.3967(3) 1.1825(5) 0.1376(2)
C4 C -0.4627(2) 1.0073(5) 0.1175(2)
C5 C -0.4377(2) 0.8660(4) 0.1791(1)
C6 C -0.3443(2) 0.8975(4) 0.2643(1)
C7 C -0.3130(2) 0.7381(3) 0.3242(1)
C8 C -0.1989(2) 0.5716(3) 0.4561(1)
C9 C -0.1939(3) 0.6207(3) 0.5435(2)
C10 C -0.1339(2) 0.8889(3) 0.6498(1)
C11 C -0.0659(3) 0.7713(4) 0.7308(2)
H1 H -0.2600(27) 1.3330(43) 0.2364(17)
H2 H -0.4150(27) 1.2792(41) 0.0960(18)
H3 H -0.5234(27) 0.9843(38) 0.0620(19)
H4 H -0.4788(27) 0.7358(42) 0.1635(17)
H5 H -0.3496(26) 0.6122(42) 0.3010(17)
H6 H -0.1111(29) 0.5338(38) 0.4603(18)
H7 H -0.2600(27) 0.4696(40) 0.4304(18)
H8 H -0.1622(27) 0.5070(41) 0.5796(18)
H9 H -0.2772(27) 0.6435(41) 0.5423(17)
H10 H -0.0393(28) 0.7803(42) 0.5877(18)
H11 H -0.2300(27) 0.8963(41) 0.6341(16)
H12 H -0.1005(27) 1.0231(40) 0.6585(17)
H13 H 0.0207(28) 0.7578(39) 0.7370(17)
H14 H -0.1043(26) 0.6388(44) 0.7263(16)
H15 H -0.0486(28) 0.8070(44) 0.8423(18)
V1B V 0.1563 0.9845 0.5272
O1B O 0.0301(1) 0.8459(2) 0.4637(1)
O2B O 0.2849(2) 0.9036(2) 0.5192(1)
O3B O 0.1800(2) 0.8881(2) 0.6379(1)
O4B O 0.0742(2) 1.1246(3) 0.1995(1)
N1B N 0.2360(2) 1.2496(3) 0.5955(1)
N2B N 0.1170(2) 1.1970(3) 0.4253(1)
C1B C 0.2761(2) 0.9230(3) 0.7153(1)
C2B C 0.3047(3) 0.7811(4) 0.7799(2)
C3B C 0.3967(3) 0.8175(5) 0.8624(2)
C4B C 0.4627(2) 0.9927(5) 0.8825(2)
C5B C 0.4377(2) 1.1340(4) 0.8209(1)
C6B C 0.3443(2) 1.1025(4) 0.7357(1)
C7B C 0.3130(2) 1.2619(3) 0.6758(1)
C8B C 0.1989(2) 1.4284(3) 0.5439(1)
C9B C 0.1939(3) 1.3793(3) 0.4565(2)
C10B C 0.1339(2) 1.1111(3) 0.3502(1)
C11B C 0.0659(3) 1.2287(4) 0.2692(2)
H1B H 0.2600(27) 0.6670(43) 0.7636(17)
H2B H 0.4150(27) 0.7208(41) 0.9040(18)
H3B H 0.5234(27) 1.0157(38) 0.9380(19)
H4B H 0.4788(27) 1.2642(42) 0.8365(17)
H5B H 0.3496(26) 1.3878(42) 0.6990(17)
H6B H 0.1111(29) 1.4662(38) 0.5397(18)
H7B H 0.2600(27) 1.5304(40) 0.5696(18)
H8B H 0.1622(27) 1.4930(41) 0.4204(18)
H9B H 0.2772(27) 1.3565(41) 0.4577(17)
H10B H 0.0393(28) 1.2197(42) 0.4123(18)
H11B H 0.2300(27) 1.1037(41) 0.3659(16)
H12B H 0.1005(27) 0.9769(40) 0.3415(17)
H13B H -0.0207(28) 1.2422(39) 0.2630(17)
H14B H 0.1043(26) 1.3612(44) 0.2737(16)
H15B H 0.0486(28) 1.1930(44) 0.1577(18)
V1 V 0.8437 0.0155 0.4728
O1 O 0.9699(1) 0.1541(2) 0.5363(1)
O2 O 0.7151(2) 0.0964(2) 0.4808(1)
O3 O 0.8200(2) 0.1119(2) 0.3621(1)
O4 O 0.9258(2) -0.1246(3) 0.8005(1)
N1 N 0.7640(2) -0.2496(3) 0.4045(1)
N2 N 0.8830(2) -0.1970(3) 0.5747(1)
C1 C 0.7239(2) 0.0770(3) 0.2847(1)
C2 C 0.6953(3) 0.2189(4) 0.2201(2)
C3 C 0.6033(3) 0.1825(5) 0.1376(2)
C4 C 0.5373(2) 0.0073(5) 0.1175(2)
C5 C 0.5623(2) -0.1340(4) 0.1791(1)
C6 C 0.6557(2) -0.1025(4) 0.2643(1)
C7 C 0.6870(2) -0.2619(3) 0.3242(1)
C8 C 0.8011(2) -0.4284(3) 0.4561(1)
C9 C 0.8061(3) -0.3793(3) 0.5435(2)
C10 C 0.8661(2) -0.1111(3) 0.6498(1)
C11 C 0.9341(3) -0.2287(4) 0.7308(2)
H1 H 0.7400(27) 0.3330(43) 0.2364(17)
H2 H 0.5850(27) 0.2792(41) 0.0960(18)
H3 H 0.4766(27) -0.0157(38) 0.0620(19)
H4 H 0.5212(27) -0.2642(42) 0.1635(17)
H5 H 0.6504(26) -0.3878(42) 0.3010(17)
H6 H 0.8889(29) -0.4662(38) 0.4603(18)
H7 H 0.7400(27) -0.5304(40) 0.4304(18)
H8 H 0.8378(27) -0.4930(41) 0.5796(18)
H9 H 0.7228(27) -0.3565(41) 0.5423(17)
H10 H 0.9607(28) -0.2197(42) 0.5877(18)
H11 H 0.7700(27) -0.1037(41) 0.6341(16)
H12 H 0.8995(27) 0.0231(40) 0.6585(17)
H13 H 1.0207(28) -0.2422(39) 0.7370(17)
H14 H 0.8957(26) -0.3612(44) 0.7263(16)
H15 H 0.9514(28) -0.1930(44) 0.8423(18)
V1B V 1.1563 -0.0155 0.5272
O1B O 1.0301(1) -0.1541(2) 0.4637(1)
O2B O 1.2849(2) -0.0964(2) 0.5192(1)
O3B O 1.1800(2) -0.1119(2) 0.6379(1)
O4B O 1.0742(2) 0.1246(3) 0.1995(1)
N1B N 1.2360(2) 0.2496(3) 0.5955(1)
N2B N 1.1170(2) 0.1970(3) 0.4253(1)
C1B C 1.2761(2) -0.0770(3) 0.7153(1)
C2B C 1.3047(3) -0.2189(4) 0.7799(2)
C3B C 1.3967(3) -0.1825(5) 0.8624(2)
C4B C 1.4627(2) -0.0073(5) 0.8825(2)
C5B C 1.4377(2) 0.1340(4) 0.8209(1)
C6B C 1.3443(2) 0.1025(4) 0.7357(1)
C7B C 1.3130(2) 0.2619(3) 0.6758(1)
C8B C 1.1989(2) 0.4284(3) 0.5439(1)
C9B C 1.1939(3) 0.3793(3) 0.4565(2)
C10B C 1.1339(2) 0.1111(3) 0.3502(1)
C11B C 1.0659(3) 0.2287(4) 0.2692(2)
H1B H 1.2600(27) -0.3330(43) 0.7636(17)
H2B H 1.4150(27) -0.2792(41) 0.9040(18)
H3B H 1.5234(27) 0.0157(38) 0.9380(19)
H4B H 1.4788(27) 0.2642(42) 0.8365(17)
H5B H 1.3496(26) 0.3878(42) 0.6990(17)
H6B H 1.1111(29) 0.4662(38) 0.5397(18)
H7B H 1.2600(27) 0.5304(40) 0.5696(18)
H8B H 1.1622(27) 0.4930(41) 0.4204(18)
H9B H 1.2772(27) 0.3565(41) 0.4577(17)
H10B H 1.0393(28) 0.2197(42) 0.4123(18)
H11B H 1.2300(27) 0.1037(41) 0.3659(16)
H12B H 1.1005(27) -0.0231(40) 0.3415(17)
H13B H 0.9793(28) 0.2422(39) 0.2630(17)
H14B H 1.1043(26) 0.3612(44) 0.2737(16)
H15B H 1.0486(28) 0.1930(44) 0.1577(18)
V1 V 0.8437 1.0155 0.4728
O1 O 0.9699(1) 1.1541(2) 0.5363(1)
O2 O 0.7151(2) 1.0964(2) 0.4808(1)
O3 O 0.8200(2) 1.1119(2) 0.3621(1)
O4 O 0.9258(2) 0.8754(3) 0.8005(1)
N1 N 0.7640(2) 0.7504(3) 0.4045(1)
N2 N 0.8830(2) 0.8030(3) 0.5747(1)
C1 C 0.7239(2) 1.0770(3) 0.2847(1)
C2 C 0.6953(3) 1.2189(4) 0.2201(2)
C3 C 0.6033(3) 1.1825(5) 0.1376(2)
C4 C 0.5373(2) 1.0073(5) 0.1175(2)
C5 C 0.5623(2) 0.8660(4) 0.1791(1)
C6 C 0.6557(2) 0.8975(4) 0.2643(1)
C7 C 0.6870(2) 0.7381(3) 0.3242(1)
C8 C 0.8011(2) 0.5716(3) 0.4561(1)
C9 C 0.8061(3) 0.6207(3) 0.5435(2)
C10 C 0.8661(2) 0.8889(3) 0.6498(1)
C11 C 0.9341(3) 0.7713(4) 0.7308(2)
H1 H 0.7400(27) 1.3330(43) 0.2364(17)
H2 H 0.5850(27) 1.2792(41) 0.0960(18)
H3 H 0.4766(27) 0.9843(38) 0.0620(19)
H4 H 0.5212(27) 0.7358(42) 0.1635(17)
H5 H 0.6504(26) 0.6122(42) 0.3010(17)
H6 H 0.8889(29) 0.5338(38) 0.4603(18)
H7 H 0.7400(27) 0.4696(40) 0.4304(18)
H8 H 0.8378(27) 0.5070(41) 0.5796(18)
H9 H 0.7228(27) 0.6435(41) 0.5423(17)
H10 H 0.9607(28) 0.7803(42) 0.5877(18)
H11 H 0.7700(27) 0.8963(41) 0.6341(16)
H12 H 0.8995(27) 1.0231(40) 0.6585(17)
H13 H 1.0207(28) 0.7578(39) 0.7370(17)
H14 H 0.8957(26) 0.6388(44) 0.7263(16)
H15 H 0.9514(28) 0.8070(44) 0.8423(18)
V1B V 1.1563 0.9845 0.5272
O1B O 1.0301(1) 0.8459(2) 0.4637(1)
O2B O 1.2849(2) 0.9036(2) 0.5192(1)
O3B O 1.1800(2) 0.8881(2) 0.6379(1)
O4B O 1.0742(2) 1.1246(3) 0.1995(1)
N1B N 1.2360(2) 1.2496(3) 0.5955(1)
N2B N 1.1170(2) 1.1970(3) 0.4253(1)
C1B C 1.2761(2) 0.9230(3) 0.7153(1)
C2B C 1.3047(3) 0.7811(4) 0.7799(2)
C3B C 1.3967(3) 0.8175(5) 0.8624(2)
C4B C 1.4627(2) 0.9927(5) 0.8825(2)
C5B C 1.4377(2) 1.1340(4) 0.8209(1)
C6B C 1.3443(2) 1.1025(4) 0.7357(1)
C7B C 1.3130(2) 1.2619(3) 0.6758(1)
C8B C 1.1989(2) 1.4284(3) 0.5439(1)
C9B C 1.1939(3) 1.3793(3) 0.4565(2)
C10B C 1.1339(2) 1.1111(3) 0.3502(1)
C11B C 1.0659(3) 1.2287(4) 0.2692(2)
H1B H 1.2600(27) 0.6670(43) 0.7636(17)
H2B H 1.4150(27) 0.7208(41) 0.9040(18)
H3B H 1.5234(27) 1.0157(38) 0.9380(19)
H4B H 1.4788(27) 1.2642(42) 0.8365(17)
H5B H 1.3496(26) 1.3878(42) 0.6990(17)
H6B H 1.1111(29) 1.4662(38) 0.5397(18)
H7B H 1.2600(27) 1.5304(40) 0.5696(18)
H8B H 1.1622(27) 1.4930(41) 0.4204(18)
H9B H 1.2772(27) 1.3565(41) 0.4577(17)
H10B H 1.0393(28) 1.2197(42) 0.4123(18)
H11B H 1.2300(27) 1.1037(41) 0.3659(16)
H12B H 1.1005(27) 0.9769(40) 0.3415(17)
H13B H 0.9793(28) 1.2422(39) 0.2630(17)
H14B H 1.1043(26) 1.3612(44) 0.2737(16)
H15B H 1.0486(28) 1.1930(44) 0.1577(18)
V1 V 0.1563 0.5155 0.0272
O1 O 0.0301(1) 0.6541(2) -0.0363(1)
O2 O 0.2849(2) 0.5964(2) 0.0192(1)
O3 O 0.1800(2) 0.6119(2) 0.1379(1)
O4 O 0.0742(2) 0.3754(3) -0.3005(1)
N1 N 0.2360(2) 0.2504(3) 0.0955(1)
N2 N 0.1170(2) 0.3030(3) -0.0747(1)
C1 C 0.2761(2) 0.5770(3) 0.2153(1)
C2 C 0.3047(3) 0.7189(4) 0.2799(2)
C3 C 0.3967(3) 0.6825(5) 0.3624(2)
C4 C 0.4627(2) 0.5073(5) 0.3825(2)
C5 C 0.4377(2) 0.3660(4) 0.3209(1)
C6 C 0.3443(2) 0.3975(4) 0.2357(1)
C7 C 0.3130(2) 0.2381(3) 0.1758(1)
C8 C 0.1989(2) 0.0716(3) 0.0439(1)
C9 C 0.1939(3) 0.1207(3) -0.0435(2)
C10 C 0.1339(2) 0.3889(3) -0.1498(1)
C11 C 0.0659(3) 0.2713(4) -0.2308(2)
H1 H 0.2600(27) 0.8330(43) 0.2636(17)
H2 H 0.4150(27) 0.7792(41) 0.4040(18)
H3 H 0.5234(27) 0.4843(38) 0.4380(19)
H4 H 0.4788(27) 0.2358(42) 0.3365(17)
H5 H 0.3496(26) 0.1122(42) 0.1990(17)
H6 H 0.1111(29) 0.0338(38) 0.0397(18)
H7 H 0.2600(27) -0.0304(40) 0.0696(18)
H8 H 0.1622(27) 0.0070(41) -0.0796(18)
H9 H 0.2772(27) 0.1435(41) -0.0423(17)
H10 H 0.0393(28) 0.2803(42) -0.0877(18)
H11 H 0.2300(27) 0.3963(41) -0.1341(16)
H12 H 0.1005(27) 0.5231(40) -0.1585(17)
H13 H -0.0207(28) 0.2578(39) -0.2370(17)
H14 H 0.1043(26) 0.1388(44) -0.2263(16)
H15 H 0.0486(28) 0.3070(44) -0.3423(18)
V1B V -0.1563 0.4845 -0.0272
O1B O -0.0301(1) 0.3459(2) 0.0363(1)
O2B O -0.2849(2) 0.4036(2) -0.0192(1)
O3B O -0.1800(2) 0.3881(2) -0.1379(1)
O4B O -0.0742(2) 0.6246(3) 0.3005(1)
N1B N -0.2360(2) 0.7496(3) -0.0955(1)
N2B N -0.1170(2) 0.6970(3) 0.0747(1)
C1B C -0.2761(2) 0.4230(3) -0.2153(1)
C2B C -0.3047(3) 0.2811(4) -0.2799(2)
C3B C -0.3967(3) 0.3175(5) -0.3624(2)
C4B C -0.4627(2) 0.4927(5) -0.3825(2)
C5B C -0.4377(2) 0.6340(4) -0.3209(1)
C6B C -0.3443(2) 0.6025(4) -0.2357(1)
C7B C -0.3130(2) 0.7619(3) -0.1758(1)
C8B C -0.1989(2) 0.9284(3) -0.0439(1)
C9B C -0.1939(3) 0.8793(3) 0.0435(2)
C10B C -0.1339(2) 0.6111(3) 0.1498(1)
C11B C -0.0659(3) 0.7287(4) 0.2308(2)
H1B H -0.2600(27) 0.1670(43) -0.2636(17)
H2B H -0.4150(27) 0.2208(41) -0.4040(18)
H3B H -0.5234(27) 0.5157(38) -0.4380(19)
H4B H -0.4788(27) 0.7642(42) -0.3365(17)
H5B H -0.3496(26) 0.8878(42) -0.1990(17)
H6B H -0.1111(29) 0.9662(38) -0.0397(18)
H7B H -0.2600(27) 1.0304(40) -0.0696(18)
H8B H -0.1622(27) 0.9930(41) 0.0796(18)
H9B H -0.2772(27) 0.8565(41) 0.0423(17)
H10B H -0.0393(28) 0.7197(42) 0.0877(18)
H11B H -0.2300(27) 0.6037(41) 0.1341(16)
H12B H -0.1005(27) 0.4769(40) 0.1585(17)
H13B H 0.0207(28) 0.7422(39) 0.2370(17)
H14B H -0.1043(26) 0.8612(44) 0.2263(16)
H15B H -0.0486(28) 0.6930(44) 0.3423(18)
V1 V 0.1563 0.5155 1.0272
O1 O 0.0301(1) 0.6541(2) 0.9637(1)
O2 O 0.2849(2) 0.5964(2) 1.0192(1)
O3 O 0.1800(2) 0.6119(2) 1.1379(1)
O4 O 0.0742(2) 0.3754(3) 0.6995(1)
N1 N 0.2360(2) 0.2504(3) 1.0955(1)
N2 N 0.1170(2) 0.3030(3) 0.9253(1)
C1 C 0.2761(2) 0.5770(3) 1.2153(1)
C2 C 0.3047(3) 0.7189(4) 1.2799(2)
C3 C 0.3967(3) 0.6825(5) 1.3624(2)
C4 C 0.4627(2) 0.5073(5) 1.3825(2)
C5 C 0.4377(2) 0.3660(4) 1.3209(1)
C6 C 0.3443(2) 0.3975(4) 1.2357(1)
C7 C 0.3130(2) 0.2381(3) 1.1758(1)
C8 C 0.1989(2) 0.0716(3) 1.0439(1)
C9 C 0.1939(3) 0.1207(3) 0.9565(2)
C10 C 0.1339(2) 0.3889(3) 0.8502(1)
C11 C 0.0659(3) 0.2713(4) 0.7692(2)
H1 H 0.2600(27) 0.8330(43) 1.2636(17)
H2 H 0.4150(27) 0.7792(41) 1.4040(18)
H3 H 0.5234(27) 0.4843(38) 1.4380(19)
H4 H 0.4788(27) 0.2358(42) 1.3365(17)
H5 H 0.3496(26) 0.1122(42) 1.1990(17)
H6 H 0.1111(29) 0.0338(38) 1.0397(18)
H7 H 0.2600(27) -0.0304(40) 1.0696(18)
H8 H 0.1622(27) 0.0070(41) 0.9204(18)
H9 H 0.2772(27) 0.1435(41) 0.9577(17)
H10 H 0.0393(28) 0.2803(42) 0.9123(18)
H11 H 0.2300(27) 0.3963(41) 0.8659(16)
H12 H 0.1005(27) 0.5231(40) 0.8415(17)
H13 H -0.0207(28) 0.2578(39) 0.7630(17)
H14 H 0.1043(26) 0.1388(44) 0.7737(16)
H15 H 0.0486(28) 0.3070(44) 0.6577(18)
V1B V -0.1563 0.4845 0.9728
O1B O -0.0301(1) 0.3459(2) 1.0363(1)
O2B O -0.2849(2) 0.4036(2) 0.9808(1)
O3B O -0.1800(2) 0.3881(2) 0.8621(1)
O4B O -0.0742(2) 0.6246(3) 1.3005(1)
N1B N -0.2360(2) 0.7496(3) 0.9045(1)
N2B N -0.1170(2) 0.6970(3) 1.0747(1)
C1B C -0.2761(2) 0.4230(3) 0.7847(1)
C2B C -0.3047(3) 0.2811(4) 0.7201(2)
C3B C -0.3967(3) 0.3175(5) 0.6376(2)
C4B C -0.4627(2) 0.4927(5) 0.6175(2)
C5B C -0.4377(2) 0.6340(4) 0.6791(1)
C6B C -0.3443(2) 0.6025(4) 0.7643(1)
C7B C -0.3130(2) 0.7619(3) 0.8242(1)
C8B C -0.1989(2) 0.9284(3) 0.9561(1)
C9B C -0.1939(3) 0.8793(3) 1.0435(2)
C10B C -0.1339(2) 0.6111(3) 1.1498(1)
C11B C -0.0659(3) 0.7287(4) 1.2308(2)
H1B H -0.2600(27) 0.1670(43) 0.7364(17)
H2B H -0.4150(27) 0.2208(41) 0.5960(18)
H3B H -0.5234(27) 0.5157(38) 0.5620(19)
H4B H -0.4788(27) 0.7642(42) 0.6635(17)
H5B H -0.3496(26) 0.8878(42) 0.8010(17)
H6B H -0.1111(29) 0.9662(38) 0.9603(18)
H7B H -0.2600(27) 1.0304(40) 0.9304(18)
H8B H -0.1622(27) 0.9930(41) 1.0796(18)
H9B H -0.2772(27) 0.8565(41) 1.0423(17)
H10B H -0.0393(28) 0.7197(42) 1.0877(18)
H11B H -0.2300(27) 0.6037(41) 1.1341(16)
H12B H -0.1005(27) 0.4769(40) 1.1585(17)
H13B H 0.0207(28) 0.7422(39) 1.2370(17)
H14B H -0.1043(26) 0.8612(44) 1.2263(16)
H15B H -0.0486(28) 0.6930(44) 1.3423(18)
V1 V 1.1563 0.5155 0.0272
O1 O 1.0301(1) 0.6541(2) -0.0363(1)
O2 O 1.2849(2) 0.5964(2) 0.0192(1)
O3 O 1.1800(2) 0.6119(2) 0.1379(1)
O4 O 1.0742(2) 0.3754(3) -0.3005(1)
N1 N 1.2360(2) 0.2504(3) 0.0955(1)
N2 N 1.1170(2) 0.3030(3) -0.0747(1)
C1 C 1.2761(2) 0.5770(3) 0.2153(1)
C2 C 1.3047(3) 0.7189(4) 0.2799(2)
C3 C 1.3967(3) 0.6825(5) 0.3624(2)
C4 C 1.4627(2) 0.5073(5) 0.3825(2)
C5 C 1.4377(2) 0.3660(4) 0.3209(1)
C6 C 1.3443(2) 0.3975(4) 0.2357(1)
C7 C 1.3130(2) 0.2381(3) 0.1758(1)
C8 C 1.1989(2) 0.0716(3) 0.0439(1)
C9 C 1.1939(3) 0.1207(3) -0.0435(2)
C10 C 1.1339(2) 0.3889(3) -0.1498(1)
C11 C 1.0659(3) 0.2713(4) -0.2308(2)
H1 H 1.2600(27) 0.8330(43) 0.2636(17)
H2 H 1.4150(27) 0.7792(41) 0.4040(18)
H3 H 1.5234(27) 0.4843(38) 0.4380(19)
H4 H 1.4788(27) 0.2358(42) 0.3365(17)
H5 H 1.3496(26) 0.1122(42) 0.1990(17)
H6 H 1.1111(29) 0.0338(38) 0.0397(18)
H7 H 1.2600(27) -0.0304(40) 0.0696(18)
H8 H 1.1622(27) 0.0070(41) -0.0796(18)
H9 H 1.2772(27) 0.1435(41) -0.0423(17)
H10 H 1.0393(28) 0.2803(42) -0.0877(18)
H11 H 1.2300(27) 0.3963(41) -0.1341(16)
H12 H 1.1005(27) 0.5231(40) -0.1585(17)
H13 H 0.9793(28) 0.2578(39) -0.2370(17)
H14 H 1.1043(26) 0.1388(44) -0.2263(16)
H15 H 1.0486(28) 0.3070(44) -0.3423(18)
V1B V 0.8437 0.4845 -0.0272
O1B O 0.9699(1) 0.3459(2) 0.0363(1)
O2B O 0.7151(2) 0.4036(2) -0.0192(1)
O3B O 0.8200(2) 0.3881(2) -0.1379(1)
O4B O 0.9258(2) 0.6246(3) 0.3005(1)
N1B N 0.7640(2) 0.7496(3) -0.0955(1)
N2B N 0.8830(2) 0.6970(3) 0.0747(1)
C1B C 0.7239(2) 0.4230(3) -0.2153(1)
C2B C 0.6953(3) 0.2811(4) -0.2799(2)
C3B C 0.6033(3) 0.3175(5) -0.3624(2)
C4B C 0.5373(2) 0.4927(5) -0.3825(2)
C5B C 0.5623(2) 0.6340(4) -0.3209(1)
C6B C 0.6557(2) 0.6025(4) -0.2357(1)
C7B C 0.6870(2) 0.7619(3) -0.1758(1)
C8B C 0.8011(2) 0.9284(3) -0.0439(1)
C9B C 0.8061(3) 0.8793(3) 0.0435(2)
C10B C 0.8661(2) 0.6111(3) 0.1498(1)
C11B C 0.9341(3) 0.7287(4) 0.2308(2)
H1B H 0.7400(27) 0.1670(43) -0.2636(17)
H2B H 0.5850(27) 0.2208(41) -0.4040(18)
H3B H 0.4766(27) 0.5157(38) -0.4380(19)
H4B H 0.5212(27) 0.7642(42) -0.3365(17)
H5B H 0.6504(26) 0.8878(42) -0.1990(17)
H6B H 0.8889(29) 0.9662(38) -0.0397(18)
H7B H 0.7400(27) 1.0304(40) -0.0696(18)
H8B H 0.8378(27) 0.9930(41) 0.0796(18)
H9B H 0.7228(27) 0.8565(41) 0.0423(17)
H10B H 0.9607(28) 0.7197(42) 0.0877(18)
H11B H 0.7700(27) 0.6037(41) 0.1341(16)
H12B H 0.8995(27) 0.4769(40) 0.1585(17)
H13B H 1.0207(28) 0.7422(39) 0.2370(17)
H14B H 0.8957(26) 0.8612(44) 0.2263(16)
H15B H 0.9514(28) 0.6930(44) 0.3423(18)
V1 V 1.1563 0.5155 1.0272
O1 O 1.0301(1) 0.6541(2) 0.9637(1)
O2 O 1.2849(2) 0.5964(2) 1.0192(1)
O3 O 1.1800(2) 0.6119(2) 1.1379(1)
O4 O 1.0742(2) 0.3754(3) 0.6995(1)
N1 N 1.2360(2) 0.2504(3) 1.0955(1)
N2 N 1.1170(2) 0.3030(3) 0.9253(1)
C1 C 1.2761(2) 0.5770(3) 1.2153(1)
C2 C 1.3047(3) 0.7189(4) 1.2799(2)
C3 C 1.3967(3) 0.6825(5) 1.3624(2)
C4 C 1.4627(2) 0.5073(5) 1.3825(2)
C5 C 1.4377(2) 0.3660(4) 1.3209(1)
C6 C 1.3443(2) 0.3975(4) 1.2357(1)
C7 C 1.3130(2) 0.2381(3) 1.1758(1)
C8 C 1.1989(2) 0.0716(3) 1.0439(1)
C9 C 1.1939(3) 0.1207(3) 0.9565(2)
C10 C 1.1339(2) 0.3889(3) 0.8502(1)
C11 C 1.0659(3) 0.2713(4) 0.7692(2)
H1 H 1.2600(27) 0.8330(43) 1.2636(17)
H2 H 1.4150(27) 0.7792(41) 1.4040(18)
H3 H 1.5234(27) 0.4843(38) 1.4380(19)
H4 H 1.4788(27) 0.2358(42) 1.3365(17)
H5 H 1.3496(26) 0.1122(42) 1.1990(17)
H6 H 1.1111(29) 0.0338(38) 1.0397(18)
H7 H 1.2600(27) -0.0304(40) 1.0696(18)
H8 H 1.1622(27) 0.0070(41) 0.9204(18)
H9 H 1.2772(27) 0.1435(41) 0.9577(17)
H10 H 1.0393(28) 0.2803(42) 0.9123(18)
H11 H 1.2300(27) 0.3963(41) 0.8659(16)
H12 H 1.1005(27) 0.5231(40) 0.8415(17)
H13 H 0.9793(28) 0.2578(39) 0.7630(17)
H14 H 1.1043(26) 0.1388(44) 0.7737(16)
H15 H 1.0486(28) 0.3070(44) 0.6577(18)
V1B V 0.8437 0.4845 0.9728
O1B O 0.9699(1) 0.3459(2) 1.0363(1)
O2B O 0.7151(2) 0.4036(2) 0.9808(1)
O3B O 0.8200(2) 0.3881(2) 0.8621(1)
O4B O 0.9258(2) 0.6246(3) 1.3005(1)
N1B N 0.7640(2) 0.7496(3) 0.9045(1)
N2B N 0.8830(2) 0.6970(3) 1.0747(1)
C1B C 0.7239(2) 0.4230(3) 0.7847(1)
C2B C 0.6953(3) 0.2811(4) 0.7201(2)
C3B C 0.6033(3) 0.3175(5) 0.6376(2)
C4B C 0.5373(2) 0.4927(5) 0.6175(2)
C5B C 0.5623(2) 0.6340(4) 0.6791(1)
C6B C 0.6557(2) 0.6025(4) 0.7643(1)
C7B C 0.6870(2) 0.7619(3) 0.8242(1)
C8B C 0.8011(2) 0.9284(3) 0.9561(1)
C9B C 0.8061(3) 0.8793(3) 1.0435(2)
C10B C 0.8661(2) 0.6111(3) 1.1498(1)
C11B C 0.9341(3) 0.7287(4) 1.2308(2)
H1B H 0.7400(27) 0.1670(43) 0.7364(17)
H2B H 0.5850(27) 0.2208(41) 0.5960(18)
H3B H 0.4766(27) 0.5157(38) 0.5620(19)
H4B H 0.5212(27) 0.7642(42) 0.6635(17)
H5B H 0.6504(26) 0.8878(42) 0.8010(17)
H6B H 0.8889(29) 0.9662(38) 0.9603(18)
H7B H 0.7400(27) 1.0304(40) 0.9304(18)
H8B H 0.8378(27) 0.9930(41) 1.0796(18)
H9B H 0.7228(27) 0.8565(41) 1.0423(17)
H10B H 0.9607(28) 0.7197(42) 1.0877(18)
H11B H 0.7700(27) 0.6037(41) 1.1341(16)
H12B H 0.8995(27) 0.4769(40) 1.1585(17)
H13B H 1.0207(28) 0.7422(39) 1.2370(17)
H14B H 0.8957(26) 0.8612(44) 1.2263(16)
H15B H 0.9514(28) 0.6930(44) 1.3423(18)

#END
