./KACSAJ_from_xyz.cif_generated_by_CrystalShift
_symmetry_cell_setting triclinic
_symmetry_space_group_name_H-M 'P 1'
loop_
_symmetry_equiv_pos_site_id
_symmetry_equiv_pos_as_xyz
1 x,y,z
_cell_length_a 14.185000
_cell_length_b 4.105000
_cell_length_c 15.598000
_cell_angle_alpha 90.000000
_cell_angle_beta 98.590000
_cell_angle_gamma 90.000000
_cell_volume 898.074110
loop_
_atom_site_label
_atom_site_type_symbol
_atom_site_fract_x
_atom_site_fract_y
_atom_site_fract_z
O1 O 0.697680 0.003800 0.319810
O2 O 0.578140 0.102500 0.217850
O3 O 0.448970 0.169800 0.112960
H4 H 0.410600 0.245300 0.142000
O5 O 0.918630 0.711500 0.047010
C6 C 0.670790 0.128900 0.249260
C7 C 0.538130 0.297300 0.141200
H8 H 0.534700 0.536000 0.166600
C9 C 0.601020 0.263500 0.072770
H10 H 0.599300 0.040400 0.052100
H11 H 0.578100 0.404000 0.024100
C12 C 0.701070 0.354100 0.108990
C13 C 0.761580 0.492700 0.056990
H14 H 0.739800 0.532400 -0.001300
C15 C 0.854070 0.571700 0.091600
C16 C 0.887470 0.504400 0.178850
H17 H 0.950100 0.553600 0.202100
C18 C 0.827700 0.366000 0.229860
H19 H 0.849900 0.322300 0.287900
C20 C 0.733830 0.290100 0.195510
C21 C 0.888400 0.787000 -0.041870
H22 H 0.940300 0.882400 -0.066000
H23 H 0.836200 0.938300 -0.046600
H24 H 0.868100 0.591200 -0.072900
O25 O 0.697680 0.496200 0.819810
O26 O 0.578140 0.397500 0.717850
O27 O 0.448970 0.330200 0.612960
H28 H 0.410600 0.254700 0.642000
O29 O 0.918630 -0.211500 0.547010
C30 C 0.670790 0.371100 0.749260
C31 C 0.538130 0.202700 0.641200
H32 H 0.534700 -0.036000 0.666600
C33 C 0.601020 0.236500 0.572770
H34 H 0.599300 0.459600 0.552100
H35 H 0.578100 0.096000 0.524100
C36 C 0.701070 0.145900 0.608990
C37 C 0.761580 0.007300 0.556990
H38 H 0.739800 -0.032400 0.498700
C39 C 0.854070 -0.071700 0.591600
C40 C 0.887470 -0.004400 0.678850
H41 H 0.950100 -0.053600 0.702100
C42 C 0.827700 0.134000 0.729860
H43 H 0.849900 0.177700 0.787900
C44 C 0.733830 0.209900 0.695510
C45 C 0.888400 -0.287000 0.458130
H46 H 0.940300 -0.382400 0.434000
H47 H 0.836200 -0.438300 0.453400
H48 H 0.868100 -0.091200 0.427100
O49 O 0.302320 0.996200 0.680190
O50 O 0.421860 0.897500 0.782150
O51 O 0.551030 0.830200 0.887040
H52 H 0.589400 0.754700 0.858000
O53 O 0.081370 0.288500 0.952990
C54 C 0.329210 0.871100 0.750740
C55 C 0.461870 0.702700 0.858800
H56 H 0.465300 0.464000 0.833400
C57 C 0.398980 0.736500 0.927230
H58 H 0.400700 0.959600 0.947900
H59 H 0.421900 0.596000 0.975900
C60 C 0.298930 0.645900 0.891010
C61 C 0.238420 0.507300 0.943010
H62 H 0.260200 0.467600 1.001300
C63 C 0.145930 0.428300 0.908400
C64 C 0.112530 0.495600 0.821150
H65 H 0.049900 0.446400 0.797900
C66 C 0.172300 0.634000 0.770140
H67 H 0.150100 0.677700 0.712100
C68 C 0.266170 0.709900 0.804490
C69 C 0.111600 0.213000 1.041870
H70 H 0.059700 0.117600 1.066000
H71 H 0.163800 0.061700 1.046600
H72 H 0.131900 0.408800 1.072900
O73 O 0.302320 0.503800 0.180190
O74 O 0.421860 0.602500 0.282150
O75 O 0.551030 0.669800 0.387040
H76 H 0.589400 0.745300 0.358000
O77 O 0.081370 1.211500 0.452990
C78 C 0.329210 0.628900 0.250740
C79 C 0.461870 0.797300 0.358800
H80 H 0.465300 1.036000 0.333400
C81 C 0.398980 0.763500 0.427230
H82 H 0.400700 0.540400 0.447900
H83 H 0.421900 0.904000 0.475900
C84 C 0.298930 0.854100 0.391010
C85 C 0.238420 0.992700 0.443010
H86 H 0.260200 1.032400 0.501300
C87 C 0.145930 1.071700 0.408400
C88 C 0.112530 1.004400 0.321150
H89 H 0.049900 1.053600 0.297900
C90 C 0.172300 0.866000 0.270140
H91 H 0.150100 0.822300 0.212100
C92 C 0.266170 0.790100 0.304490
C93 C 0.111600 1.287000 0.541870
H94 H 0.059700 1.382400 0.566000
H95 H 0.163800 1.438300 0.546600
H96 H 0.131900 1.091200 0.572900

#END
