./LABBAS_from_POSCAR.cif_generated_by_CrystalShift
_symmetry_cell_setting triclinic
_symmetry_space_group_name_H-M 'P 1'
loop_
_symmetry_equiv_pos_site_id
_symmetry_equiv_pos_as_xyz
1 x,y,z
_cell_length_a 9.074000
_cell_length_b 20.222000
_cell_length_c 16.503000
_cell_angle_alpha 90.000000
_cell_angle_beta 104.870000
_cell_angle_gamma 90.000000
_cell_volume 2926.795601
loop_
_atom_site_label
_atom_site_type_symbol
_atom_site_fract_x
_atom_site_fract_y
_atom_site_fract_z
H1 H 0.838000 0.636500 1.022800
H2 H 0.779000 0.598100 1.174700
H3 H 0.650000 0.616400 1.097700
H4 H 0.731000 0.527500 1.025100
H5 H 0.861000 0.507800 1.103200
H6 H 0.638000 0.439900 1.087000
H7 H 0.529000 0.500800 1.089500
H8 H 0.660000 0.481500 1.176000
H9 H 1.156000 0.735900 1.256700
H10 H 1.087000 0.669800 1.226700
H11 H 0.967000 0.746800 1.339900
H12 H 0.918000 0.677400 1.311400
H13 H 1.216000 0.709600 1.410000
H14 H 1.081000 0.679300 1.446900
H15 H 1.250000 0.592900 1.438500
H16 H 1.219000 0.605600 1.343000
H17 H 1.084000 0.581400 1.371400
H18 H 0.379000 0.676400 0.833900
H19 H 0.579000 0.651500 0.959300
H20 H 0.002000 0.797500 0.559800
H21 H -0.045000 0.870400 0.565500
H22 H 0.081000 0.842000 0.452300
H23 H 0.250000 0.844000 0.516400
H24 H 0.216000 0.947400 0.571000
H25 H 0.075000 0.953500 0.479800
H26 H 0.326000 0.986300 0.455000
H27 H 0.389000 0.919000 0.480900
H28 H 0.263000 0.921200 0.398300
H29 H 0.232700 0.730200 0.607400
H30 H 0.353000 0.709700 0.691600
H31 H 0.029000 0.689700 0.650200
H32 H 0.135000 0.677700 0.743900
H33 H 0.272000 0.595700 0.690200
H34 H 0.155000 0.602100 0.602200
H35 H 0.081000 0.511000 0.677200
H36 H 0.147000 0.209700 0.308400
H37 H 0.267300 0.230200 0.392600
H38 H -0.467000 0.126700 -0.105100
H39 H -0.338000 0.136500 -0.022800
H40 H 0.365000 0.177700 0.256100
H41 H 0.471000 0.189700 0.349800
H42 H -0.079000 0.151500 0.040700
H43 H -0.587000 0.169800 -0.226700
H44 H -0.150000 0.116400 -0.097700
H45 H 0.121000 0.176400 0.166100
H46 H -0.656000 0.235900 -0.256700
H47 H 0.545000 0.370400 0.434500
H48 H -0.279000 0.098100 -0.174700
H49 H 0.345000 0.102100 0.397800
H50 H -0.418000 0.177400 -0.311400
H51 H 0.228000 0.095700 0.309800
H52 H 0.498000 0.297500 0.440200
H53 H -0.361000 0.007800 -0.103200
H54 H 0.551000 0.065600 0.342000
H55 H 0.237000 0.421200 0.601700
H56 H 0.250000 0.344000 0.483600
H57 H -0.581000 0.179300 -0.446900
H58 H 0.434000 0.059900 0.252000
H59 H -0.467000 0.246800 -0.339900
H60 H 0.425000 0.453500 0.520200
H61 H -0.716000 0.209600 -0.410000
H62 H -0.231000 0.027500 -0.025100
H63 H -0.160000 -0.018500 -0.176000
H64 H -0.584000 0.081400 -0.371400
H65 H -0.029000 0.000800 -0.089500
H66 H 0.111000 0.419000 0.519100
H67 H -0.719000 0.105600 -0.343000
H68 H -0.750000 0.092900 -0.438500
H69 H 0.284000 0.447400 0.429000
H70 H -0.138000 -0.060100 -0.087000
H71 H 0.174000 0.486300 0.545000
H72 H 0.419000 0.342000 0.547700
H73 H 0.419000 0.011000 0.322800
H74 H 0.066000 0.559900 0.748000
H75 H -0.051000 0.565600 0.658000
H76 H 0.919000 1.489000 1.322800
H77 H 0.919000 1.158000 1.547700
H78 H 0.674000 1.013700 1.545000
H79 H 0.362000 1.560100 0.913000
H80 H 0.784000 1.052600 1.429000
H81 H -0.250000 1.407100 0.561500
H82 H -0.219000 1.394400 0.657000
H83 H 0.611000 1.081000 1.519100
H84 H 0.471000 1.499200 0.910500
H85 H -0.084000 1.418600 0.628600
H86 H 0.340000 1.518500 0.824000
H87 H 0.269000 1.472500 0.974900
H88 H -0.216000 1.290400 0.590000
H89 H 0.925000 1.046500 1.520200
H90 H 0.033000 1.253200 0.660100
H91 H 0.934000 1.440100 1.252000
H92 H -0.551000 0.934400 -0.342000
H93 H -0.434000 0.940100 -0.252000
H94 H -0.419000 0.989000 -0.322800
H95 H -0.345000 0.897900 -0.397800
H96 H -0.228000 0.904300 -0.309800
H97 H -0.365000 0.822300 -0.256100
H98 H -0.471000 0.810300 -0.349800
H99 H -0.147000 0.790300 -0.308400
H100 H -0.267300 0.769800 -0.392600
H101 H -0.081000 1.320700 0.553100
H102 H 0.750000 1.156000 1.483600
H103 H 0.737000 1.078800 1.601700
H104 H 1.051000 1.434400 1.342000
H105 H -0.237000 0.578800 -0.601700
H106 H -0.111000 0.581000 -0.519100
H107 H -0.174000 0.513700 -0.545000
H108 H -0.425000 0.546500 -0.520200
H109 H -0.284000 0.552600 -0.429000
H110 H -0.250000 0.656000 -0.483600
H111 H -0.419000 0.658000 -0.547700
H112 H -0.545000 0.629600 -0.434500
H113 H -0.498000 0.702500 -0.440200
H114 H 0.139000 1.492200 0.896800
H115 H 0.998000 1.202500 1.440200
H116 H 0.728000 1.404300 1.309800
H117 H 0.079000 0.848500 -0.040700
H118 H -0.121000 0.823600 -0.166100
H119 H 0.082000 1.322600 0.688600
H120 H 0.845000 1.397900 1.397800
H121 H 0.221000 1.401900 0.825300
H122 H 1.045000 1.129600 1.434500
H123 H -0.156000 1.264100 0.743300
H124 H 0.621000 1.323600 1.166100
H125 H 0.584000 0.918600 0.371400
H126 H 0.719000 0.894400 0.343000
H127 H 0.750000 0.907100 0.438500
H128 H 0.581000 0.820700 0.446900
H129 H 0.716000 0.790400 0.410000
H130 H 0.418000 0.822600 0.311400
H131 H 0.467000 0.753200 0.339900
H132 H 0.587000 0.830200 0.226700
H133 H 0.656000 0.764100 0.256700
H134 H 0.350000 1.383600 0.902300
H135 H -0.087000 1.330200 0.773300
H136 H 0.421000 1.348500 1.040700
H137 H 0.971000 1.310300 1.349800
H138 H 0.160000 1.018500 0.176000
H139 H 0.029000 0.999200 0.089500
H140 H 0.138000 1.060100 0.087000
H141 H 0.361000 0.992200 0.103200
H142 H 0.231000 0.972500 0.025100
H143 H 0.150000 0.883600 0.097700
H144 H 0.279000 0.901900 0.174700
H145 H 0.467000 0.873300 0.105100
H146 H 0.338000 0.863500 0.022800
H147 H 0.865000 1.322300 1.256100
H148 H 0.162000 1.363500 0.977200
H149 H 0.033000 1.373300 0.894900
H150 H 0.767300 1.269800 1.392600
H151 H 0.647000 1.290300 1.308400
H152 H 0.838000 0.636500 0.022800
H153 H 0.967000 0.626700 0.105100
H154 H 0.779000 0.598100 0.174700
H155 H 0.650000 0.616400 0.097700
H156 H 0.731000 0.527500 0.025100
H157 H 0.861000 0.507800 0.103200
H158 H 0.638000 0.439900 0.087000
H159 H 0.529000 0.500800 0.089500
H160 H 0.660000 0.481500 0.176000
H161 H 1.156000 0.735900 0.256700
H162 H 1.087000 0.669800 0.226700
H163 H 0.967000 0.746800 0.339900
H164 H 0.918000 0.677400 0.311400
H165 H 1.216000 0.709600 0.410000
H166 H 1.081000 0.679300 0.446900
H167 H 1.250000 0.592900 0.438500
H168 H 1.219000 0.605600 0.343000
H169 H 1.084000 0.581400 0.371400
H170 H 0.379000 0.676400 -0.166100
H171 H 0.579000 0.651500 -0.040700
H172 H 0.002000 0.797500 -0.440200
H173 H -0.045000 0.870400 -0.434500
H174 H 0.081000 0.842000 -0.547700
H175 H 0.250000 0.844000 -0.483600
H176 H 0.216000 0.947400 -0.429000
H177 H 0.075000 0.953500 -0.520200
H178 H 0.326000 0.986300 -0.545000
H179 H 0.389000 0.919000 -0.519100
H180 H 0.263000 0.921200 -0.601700
H181 H 0.232700 0.730200 -0.392600
H182 H 0.147000 0.209700 1.308400
H183 H 0.267300 0.230200 1.392600
H184 H -0.467000 0.126700 0.894900
H185 H -0.338000 0.136500 0.977200
H186 H 0.365000 0.177700 1.256100
H187 H 0.471000 0.189700 1.349800
H188 H -0.079000 0.151500 1.040700
H189 H -0.587000 0.169800 0.773300
H190 H -0.150000 0.116400 0.902300
H191 H 0.121000 0.176400 1.166100
H192 H -0.656000 0.235900 0.743300
H193 H 0.545000 0.370400 1.434500
H194 H -0.279000 0.098100 0.825300
H195 H 0.345000 0.102100 1.397800
H196 H -0.418000 0.177400 0.688600
H197 H 0.228000 0.095700 1.309800
H198 H 0.498000 0.297500 1.440200
H199 H -0.361000 0.007800 0.896800
H200 H 0.551000 0.065600 1.342000
H201 H 0.237000 0.421200 1.601700
H202 H 0.250000 0.344000 1.483600
H203 H -0.581000 0.179300 0.553100
H204 H 0.434000 0.059900 1.252000
H205 H -0.467000 0.246800 0.660100
H206 H 0.425000 0.453500 1.520200
H207 H -0.716000 0.209600 0.590000
H208 H -0.231000 0.027500 0.974900
H209 H -0.160000 -0.018500 0.824000
H210 H -0.584000 0.081400 0.628600
H211 H -0.029000 0.000800 0.910500
H212 H 0.111000 0.419000 1.519100
H213 H -0.719000 0.105600 0.657000
H214 H -0.750000 0.092900 0.561500
H215 H 0.284000 0.447400 1.429000
H216 H -0.138000 -0.060100 0.913000
H217 H 0.174000 0.486300 1.545000
H218 H 0.419000 0.342000 1.547700
H219 H 0.419000 0.011000 1.322800
H220 H 0.353000 0.709700 -0.308400
H221 H 0.029000 0.689700 -0.349800
H222 H 0.135000 0.677700 -0.256100
H223 H 0.272000 0.595700 -0.309800
H224 H 0.155000 0.602100 -0.397800
H225 H 0.081000 0.511000 -0.322800
H226 H 0.066000 0.559900 -0.252000
H227 H -0.051000 0.565600 -0.342000
H228 H 0.919000 1.489000 0.322800
H229 H 0.919000 1.158000 0.547700
H230 H 0.674000 1.013700 0.545000
H231 H 0.362000 1.560100 -0.087000
H232 H 0.784000 1.052600 0.429000
H233 H -0.250000 1.407100 -0.438500
H234 H -0.219000 1.394400 -0.343000
H235 H 0.611000 1.081000 0.519100
H236 H 0.471000 1.499200 -0.089500
H237 H -0.084000 1.418600 -0.371400
H238 H -0.551000 0.934400 0.658000
H239 H -0.434000 0.940100 0.748000
H240 H -0.419000 0.989000 0.677200
H241 H -0.345000 0.897900 0.602200
H242 H -0.228000 0.904300 0.690200
H243 H -0.365000 0.822300 0.743900
H244 H -0.471000 0.810300 0.650200
H245 H -0.147000 0.790300 0.691600
H246 H -0.267300 0.769800 0.607400
H247 H 0.340000 1.518500 -0.176000
H248 H 0.269000 1.472500 -0.025100
H249 H -0.216000 1.290400 -0.410000
H250 H 0.925000 1.046500 0.520200
H251 H -0.237000 0.578800 0.398300
H252 H -0.111000 0.581000 0.480900
H253 H -0.174000 0.513700 0.455000
H254 H -0.425000 0.546500 0.479800
H255 H -0.284000 0.552600 0.571000
H256 H -0.250000 0.656000 0.516400
H257 H -0.419000 0.658000 0.452300
H258 H -0.545000 0.629600 0.565500
H259 H -0.498000 0.702500 0.559800
H260 H 0.033000 1.253200 -0.339900
H261 H 0.934000 1.440100 0.252000
H262 H -0.081000 1.320700 -0.446900
H263 H 0.079000 0.848500 0.959300
H264 H -0.121000 0.823600 0.833900
H265 H 0.750000 1.156000 0.483600
H266 H 0.737000 1.078800 0.601700
H267 H 1.051000 1.434400 0.342000
H268 H 0.139000 1.492200 -0.103200
H269 H 0.998000 1.202500 0.440200
H270 H 0.728000 1.404300 0.309800
H271 H 0.584000 0.918600 1.371400
H272 H 0.719000 0.894400 1.343000
H273 H 0.750000 0.907100 1.438500
H274 H 0.581000 0.820700 1.446900
H275 H 0.716000 0.790400 1.410000
H276 H 0.418000 0.822600 1.311400
H277 H 0.467000 0.753200 1.339900
H278 H 0.587000 0.830200 1.226700
H279 H 0.656000 0.764100 1.256700
H280 H 0.082000 1.322600 -0.311400
H281 H 0.845000 1.397900 0.397800
H282 H 0.221000 1.401900 -0.174700
H283 H 1.045000 1.129600 0.434500
H284 H 0.160000 1.018500 1.176000
H285 H 0.029000 0.999200 1.089500
H286 H 0.138000 1.060100 1.087000
H287 H 0.361000 0.992200 1.103200
H288 H 0.231000 0.972500 1.025100
H289 H 0.150000 0.883600 1.097700
H290 H 0.279000 0.901900 1.174700
H291 H 0.467000 0.873300 1.105100
H292 H 0.338000 0.863500 1.022800
H293 H -0.156000 1.264100 -0.256700
H294 H 0.621000 1.323600 0.166100
H295 H 0.350000 1.383600 -0.097700
H296 H -0.087000 1.330200 -0.226700
H297 H 0.421000 1.348500 0.040700
H298 H 0.971000 1.310300 0.349800
H299 H 0.865000 1.322300 0.256100
H300 H 0.162000 1.363500 -0.022800
H301 H 0.033000 1.373300 -0.105100
H302 H 0.767300 1.269800 0.392600
H303 H 0.647000 1.290300 0.308400
H304 H 0.838000 -0.363500 1.022800
H305 H 0.967000 -0.373300 1.105100
H306 H 0.779000 -0.401900 1.174700
H307 H 0.650000 -0.383600 1.097700
H308 H 0.731000 -0.472500 1.025100
H309 H 0.861000 -0.492200 1.103200
H310 H 0.638000 -0.560100 1.087000
H311 H 0.529000 -0.499200 1.089500
H312 H 0.660000 -0.518500 1.176000
H313 H 1.156000 -0.264100 1.256700
H314 H 1.087000 -0.330200 1.226700
H315 H 0.967000 -0.253200 1.339900
H316 H 0.918000 -0.322600 1.311400
H317 H 1.216000 -0.290400 1.410000
H318 H 1.081000 -0.320700 1.446900
H319 H 1.250000 -0.407100 1.438500
H320 H 1.219000 -0.394400 1.343000
H321 H 1.084000 -0.418600 1.371400
H322 H 0.379000 -0.323600 0.833900
H323 H 0.579000 -0.348500 0.959300
H324 H 0.002000 -0.202500 0.559800
H325 H -0.045000 -0.129600 0.565500
H326 H 0.081000 -0.158000 0.452300
H327 H 0.250000 -0.156000 0.516400
H328 H 1.147000 0.209700 0.308400
H329 H 1.267300 0.230200 0.392600
H330 H 0.533000 0.126700 -0.105100
H331 H 0.662000 0.136500 -0.022800
H332 H 1.365000 0.177700 0.256100
H333 H 1.471000 0.189700 0.349800
H334 H 0.921000 0.151500 0.040700
H335 H 0.413000 0.169800 -0.226700
H336 H 0.850000 0.116400 -0.097700
H337 H 1.121000 0.176400 0.166100
H338 H 0.344000 0.235900 -0.256700
H339 H 1.545000 0.370400 0.434500
H340 H 0.721000 0.098100 -0.174700
H341 H 1.345000 0.102100 0.397800
H342 H 0.582000 0.177400 -0.311400
H343 H 1.228000 0.095700 0.309800
H344 H 1.498000 0.297500 0.440200
H345 H 0.639000 0.007800 -0.103200
H346 H 1.551000 0.065600 0.342000
H347 H 1.237000 0.421200 0.601700
H348 H 1.250000 0.344000 0.483600
H349 H 0.419000 0.179300 -0.446900
H350 H 1.434000 0.059900 0.252000
H351 H 0.533000 0.246800 -0.339900
H352 H 1.425000 0.453500 0.520200
H353 H 0.284000 0.209600 -0.410000
H354 H 0.769000 0.027500 -0.025100
H355 H 0.840000 -0.018500 -0.176000
H356 H 0.416000 0.081400 -0.371400
H357 H 0.971000 0.000800 -0.089500
H358 H 1.111000 0.419000 0.519100
H359 H 0.281000 0.105600 -0.343000
H360 H 0.250000 0.092900 -0.438500
H361 H 1.284000 0.447400 0.429000
H362 H 0.862000 -0.060100 -0.087000
H363 H 1.174000 0.486300 0.545000
H364 H 1.419000 0.342000 0.547700
H365 H 1.419000 0.011000 0.322800
H366 H 0.216000 -0.052600 0.571000
H367 H 0.075000 -0.046500 0.479800
H368 H 0.326000 -0.013700 0.455000
H369 H 0.389000 -0.081000 0.480900
H370 H 0.263000 -0.078800 0.398300
H371 H 0.232700 -0.269800 0.607400
H372 H 0.353000 -0.290300 0.691600
H373 H 0.029000 -0.310300 0.650200
H374 H 0.135000 -0.322300 0.743900
H375 H 0.272000 -0.404300 0.690200
H376 H 0.155000 -0.397900 0.602200
H377 H 0.081000 -0.489000 0.677200
H378 H 0.066000 -0.440100 0.748000
H379 H -0.051000 -0.434400 0.658000
H380 H 0.919000 0.489000 1.322800
H381 H 0.919000 0.158000 1.547700
H382 H 0.674000 0.013700 1.545000
H383 H 0.362000 0.560100 0.913000
H384 H 0.449000 0.934400 -0.342000
H385 H 0.566000 0.940100 -0.252000
H386 H 0.581000 0.989000 -0.322800
H387 H 0.655000 0.897900 -0.397800
H388 H 0.772000 0.904300 -0.309800
H389 H 0.635000 0.822300 -0.256100
H390 H 0.529000 0.810300 -0.349800
H391 H 0.853000 0.790300 -0.308400
H392 H 0.732700 0.769800 -0.392600
H393 H 0.784000 0.052600 1.429000
H394 H -0.250000 0.407100 0.561500
H395 H -0.219000 0.394400 0.657000
H396 H 0.611000 0.081000 1.519100
H397 H 0.763000 0.578800 -0.601700
H398 H 0.889000 0.581000 -0.519100
H399 H 0.826000 0.513700 -0.545000
H400 H 0.575000 0.546500 -0.520200
H401 H 0.716000 0.552600 -0.429000
H402 H 0.750000 0.656000 -0.483600
H403 H 0.581000 0.658000 -0.547700
H404 H 0.455000 0.629600 -0.434500
H405 H 0.502000 0.702500 -0.440200
H406 H 0.471000 0.499200 0.910500
H407 H -0.084000 0.418600 0.628600
H408 H 0.340000 0.518500 0.824000
H409 H 1.079000 0.848500 -0.040700
H410 H 0.879000 0.823600 -0.166100
H411 H 0.269000 0.472500 0.974900
H412 H -0.216000 0.290400 0.590000
H413 H 0.925000 0.046500 1.520200
H414 H 0.033000 0.253200 0.660100
H415 H 0.934000 0.440100 1.252000
H416 H -0.081000 0.320700 0.553100
H417 H 1.584000 0.918600 0.371400
H418 H 1.719000 0.894400 0.343000
H419 H 1.750000 0.907100 0.438500
H420 H 1.581000 0.820700 0.446900
H421 H 1.716000 0.790400 0.410000
H422 H 1.418000 0.822600 0.311400
H423 H 1.467000 0.753200 0.339900
H424 H 1.587000 0.830200 0.226700
H425 H 1.656000 0.764100 0.256700
H426 H 0.750000 0.156000 1.483600
H427 H 0.737000 0.078800 1.601700
H428 H 1.051000 0.434400 1.342000
H429 H 0.139000 0.492200 0.896800
H430 H 1.160000 1.018500 0.176000
H431 H 1.029000 0.999200 0.089500
H432 H 1.138000 1.060100 0.087000
H433 H 1.361000 0.992200 0.103200
H434 H 1.231000 0.972500 0.025100
H435 H 1.150000 0.883600 0.097700
H436 H 1.279000 0.901900 0.174700
H437 H 1.467000 0.873300 0.105100
H438 H 1.338000 0.863500 0.022800
H439 H 0.998000 0.202500 1.440200
H440 H 0.728000 0.404300 1.309800
H441 H 0.082000 0.322600 0.688600
H442 H 0.845000 0.397900 1.397800
H443 H 0.221000 0.401900 0.825300
H444 H 1.045000 0.129600 1.434500
H445 H -0.156000 0.264100 0.743300
H446 H 0.621000 0.323600 1.166100
H447 H 0.350000 0.383600 0.902300
H448 H -0.087000 0.330200 0.773300
H449 H 0.421000 0.348500 1.040700
H450 H 0.971000 0.310300 1.349800
H451 H 0.865000 0.322300 1.256100
H452 H 0.162000 0.363500 0.977200
H453 H 0.033000 0.373300 0.894900
H454 H 0.767300 0.269800 1.392600
H455 H 0.647000 0.290300 1.308400
H456 H 0.838000 -0.363500 0.022800
H457 H 0.967000 -0.373300 0.105100
H458 H 0.779000 -0.401900 0.174700
H459 H 0.650000 -0.383600 0.097700
H460 H 0.731000 -0.472500 0.025100
H461 H 0.861000 -0.492200 0.103200
H462 H 0.638000 -0.560100 0.087000
H463 H 0.529000 -0.499200 0.089500
H464 H 0.660000 -0.518500 0.176000
H465 H 1.156000 -0.264100 0.256700
H466 H 1.087000 -0.330200 0.226700
H467 H 0.967000 -0.253200 0.339900
H468 H 0.918000 -0.322600 0.311400
H469 H 1.216000 -0.290400 0.410000
H470 H 1.081000 -0.320700 0.446900
H471 H 1.250000 -0.407100 0.438500
H472 H 1.219000 -0.394400 0.343000
H473 H 1.084000 -0.418600 0.371400
H474 H 1.147000 0.209700 1.308400
H475 H 1.267300 0.230200 1.392600
H476 H 0.533000 0.126700 0.894900
H477 H 0.662000 0.136500 0.977200
H478 H 1.365000 0.177700 1.256100
H479 H 1.471000 0.189700 1.349800
H480 H 0.921000 0.151500 1.040700
H481 H 0.413000 0.169800 0.773300
H482 H 0.850000 0.116400 0.902300
H483 H 1.121000 0.176400 1.166100
H484 H 0.344000 0.235900 0.743300
H485 H 1.545000 0.370400 1.434500
H486 H 0.721000 0.098100 0.825300
H487 H 1.345000 0.102100 1.397800
H488 H 0.582000 0.177400 0.688600
H489 H 1.228000 0.095700 1.309800
H490 H 1.498000 0.297500 1.440200
H491 H 0.639000 0.007800 0.896800
H492 H 1.551000 0.065600 1.342000
H493 H 1.237000 0.421200 1.601700
H494 H 1.250000 0.344000 1.483600
H495 H 0.419000 0.179300 0.553100
H496 H 1.434000 0.059900 1.252000
H497 H 0.533000 0.246800 0.660100
H498 H 1.425000 0.453500 1.520200
H499 H 0.284000 0.209600 0.590000
H500 H 0.769000 0.027500 0.974900
H501 H 0.840000 -0.018500 0.824000
H502 H 0.416000 0.081400 0.628600
H503 H 0.971000 0.000800 0.910500
H504 H 1.111000 0.419000 1.519100
H505 H 0.281000 0.105600 0.657000
H506 H 0.250000 0.092900 0.561500
H507 H 1.284000 0.447400 1.429000
H508 H 0.862000 -0.060100 0.913000
H509 H 1.174000 0.486300 1.545000
H510 H 1.419000 0.342000 1.547700
H511 H 1.419000 0.011000 1.322800
H512 H 0.379000 -0.323600 -0.166100
H513 H 0.579000 -0.348500 -0.040700
H514 H 0.002000 -0.202500 -0.440200
H515 H -0.045000 -0.129600 -0.434500
H516 H 0.081000 -0.158000 -0.547700
H517 H 0.250000 -0.156000 -0.483600
H518 H 0.216000 -0.052600 -0.429000
H519 H 0.075000 -0.046500 -0.520200
H520 H 0.326000 -0.013700 -0.545000
H521 H 0.389000 -0.081000 -0.519100
H522 H 0.263000 -0.078800 -0.601700
H523 H 0.232700 -0.269800 -0.392600
H524 H 0.353000 -0.290300 -0.308400
H525 H 0.029000 -0.310300 -0.349800
H526 H 0.135000 -0.322300 -0.256100
H527 H 0.272000 -0.404300 -0.309800
H528 H 0.155000 -0.397900 -0.397800
H529 H 0.081000 -0.489000 -0.322800
H530 H 0.449000 0.934400 0.658000
H531 H 0.566000 0.940100 0.748000
H532 H 0.581000 0.989000 0.677200
H533 H 0.655000 0.897900 0.602200
H534 H 0.772000 0.904300 0.690200
H535 H 0.635000 0.822300 0.743900
H536 H 0.529000 0.810300 0.650200
H537 H 0.853000 0.790300 0.691600
H538 H 0.732700 0.769800 0.607400
H539 H 0.066000 -0.440100 -0.252000
H540 H -0.051000 -0.434400 -0.342000
H541 H 0.919000 0.489000 0.322800
H542 H 0.919000 0.158000 0.547700
H543 H 0.763000 0.578800 0.398300
H544 H 0.889000 0.581000 0.480900
H545 H 0.826000 0.513700 0.455000
H546 H 0.575000 0.546500 0.479800
H547 H 0.716000 0.552600 0.571000
H548 H 0.750000 0.656000 0.516400
H549 H 0.581000 0.658000 0.452300
H550 H 0.455000 0.629600 0.565500
H551 H 0.502000 0.702500 0.559800
H552 H 0.674000 0.013700 0.545000
H553 H 0.362000 0.560100 -0.087000
H554 H 0.784000 0.052600 0.429000
H555 H 1.079000 0.848500 0.959300
H556 H 0.879000 0.823600 0.833900
H557 H -0.250000 0.407100 -0.438500
H558 H -0.219000 0.394400 -0.343000
H559 H 0.611000 0.081000 0.519100
H560 H 0.471000 0.499200 -0.089500
H561 H -0.084000 0.418600 -0.371400
H562 H 0.340000 0.518500 -0.176000
H563 H 1.584000 0.918600 1.371400
H564 H 1.719000 0.894400 1.343000
H565 H 1.750000 0.907100 1.438500
H566 H 1.581000 0.820700 1.446900
H567 H 1.716000 0.790400 1.410000
H568 H 1.418000 0.822600 1.311400
H569 H 1.467000 0.753200 1.339900
H570 H 1.587000 0.830200 1.226700
H571 H 1.656000 0.764100 1.256700
H572 H 0.269000 0.472500 -0.025100
H573 H -0.216000 0.290400 -0.410000
H574 H 0.925000 0.046500 0.520200
H575 H 0.033000 0.253200 -0.339900
H576 H 1.160000 1.018500 1.176000
H577 H 1.029000 0.999200 1.089500
H578 H 1.138000 1.060100 1.087000
H579 H 1.361000 0.992200 1.103200
H580 H 1.231000 0.972500 1.025100
H581 H 1.150000 0.883600 1.097700
H582 H 1.279000 0.901900 1.174700
H583 H 1.467000 0.873300 1.105100
H584 H 1.338000 0.863500 1.022800
H585 H 0.934000 0.440100 0.252000
H586 H -0.081000 0.320700 -0.446900
H587 H 0.750000 0.156000 0.483600
H588 H 0.737000 0.078800 0.601700
H589 H 1.051000 0.434400 0.342000
H590 H 0.139000 0.492200 -0.103200
H591 H 0.998000 0.202500 0.440200
H592 H 0.728000 0.404300 0.309800
H593 H 0.082000 0.322600 -0.311400
H594 H 0.845000 0.397900 0.397800
H595 H 0.221000 0.401900 -0.174700
H596 H 1.045000 0.129600 0.434500
H597 H -0.156000 0.264100 -0.256700
H598 H 0.621000 0.323600 0.166100
H599 H 0.350000 0.383600 -0.097700
H600 H -0.087000 0.330200 -0.226700
H601 H 0.421000 0.348500 0.040700
H602 H 0.971000 0.310300 0.349800
H603 H 0.865000 0.322300 0.256100
H604 H 0.162000 0.363500 -0.022800
H605 H 0.033000 0.373300 -0.105100
H606 H 0.767300 0.269800 0.392600
H607 H 0.647000 0.290300 0.308400
H608 H 0.967000 0.626700 1.105100
C609 C 0.868800 0.323420 0.316730
C610 C 0.247900 0.472450 -0.083980
C611 C -0.006900 0.294440 -0.324780
C612 C 0.558700 0.292040 0.134440
C613 C 0.700800 0.060560 0.542290
C614 C -0.177600 0.390470 -0.388300
C615 C -0.061100 0.287370 -0.245110
C616 C -0.128700 0.321060 -0.399400
C617 C 0.822200 0.072000 0.493640
C618 C 0.940800 0.443340 0.311810
C619 C 0.362700 0.516850 -0.109900
C620 C 0.836200 0.393950 0.338190
C621 C 0.753700 0.273480 0.333970
C622 C 0.930570 0.037460 0.301630
C623 C 0.016700 0.082600 -0.268940
C624 C 0.576430 0.226200 0.153480
C625 C 0.861800 0.143850 0.490160
C626 C 0.139600 0.357600 -0.082440
C627 C 0.859160 0.100160 0.287820
C628 C 0.146510 0.285190 -0.102520
C629 C 0.957300 0.158690 0.427440
C630 C 0.247000 0.402070 -0.115930
C631 C 0.245040 0.241460 -0.050660
C632 C 0.026500 0.135690 -0.235100
C633 C 0.032800 0.018920 -0.293350
C634 C 0.080320 0.186890 -0.176300
C635 C 0.689320 0.189840 0.216120
C636 C 0.767580 0.206700 0.296160
C637 C 0.052950 0.253800 -0.174910
C638 C 0.363070 0.250860 0.026250
C639 C 0.865920 0.155260 0.338280
C640 C 0.365920 0.344740 0.338280
C641 C -0.136930 0.249140 0.026250
C642 C -0.447050 0.246200 -0.174910
C643 C 1.137300 1.016850 1.109900
C644 C 1.252100 0.972450 1.083980
C645 C 1.253000 0.902070 1.115930
C646 C 1.360400 0.857600 1.082440
C647 C 1.677600 0.890470 1.388300
C648 C 1.628700 0.821060 1.399400
C649 C 1.506900 0.794440 1.324780
C650 C 1.561100 0.787370 1.245110
C651 C 1.447050 0.753800 1.174910
C652 C 1.353490 0.785190 1.102520
C653 C 1.059700 0.805800 0.936780
C654 C 0.941300 0.792040 0.865560
C655 C 0.569430 0.537460 0.698370
C656 C 0.799200 0.560560 0.457710
C657 C 0.677800 0.572000 0.506360
C658 C 0.967200 -0.018920 0.293350
C659 C 0.983300 -0.082600 0.268940
C660 C 0.973500 -0.135690 0.235100
C661 C 0.919680 -0.186890 0.176300
C662 C 0.267580 0.293300 0.296160
C663 C 0.754960 -0.241460 0.050660
C664 C 0.636930 -0.250860 -0.026250
C665 C 0.189320 0.310160 0.216120
C666 C 0.423570 -0.226200 -0.153480
C667 C 0.310680 -0.189840 -0.216120
C668 C 0.637300 0.483150 1.109900
C669 C 0.140840 -0.100160 -0.287820
C670 C 0.134080 -0.155260 -0.338280
C671 C 0.232420 -0.206700 -0.296160
C672 C 0.246300 -0.273480 -0.333970
C673 C 0.131200 -0.323420 -0.316730
C674 C 0.163800 -0.393950 -0.338190
C675 C 0.059200 -0.443340 -0.311810
C676 C 0.638200 0.643850 0.509840
C677 C 0.542700 0.658690 0.572560
C678 C 0.559200 0.943340 0.688190
C679 C 0.663800 0.893950 0.661810
C680 C 0.631200 0.823420 0.683270
C681 C 0.746300 0.773480 0.666030
C682 C 0.732420 0.706700 0.703840
C683 C 0.634080 0.655260 0.661720
C684 C 0.640840 0.600160 0.712180
C685 C 0.042700 -0.158690 -0.427440
C686 C 0.138200 -0.143850 -0.490160
C687 C 0.177800 -0.072000 -0.493640
C688 C 0.299200 -0.060560 -0.542290
C689 C 0.752100 0.527550 1.083980
C690 C 0.810680 0.689840 0.783880
C691 C 0.923570 0.726200 0.846520
C692 C 0.753000 0.597930 1.115930
C693 C 1.136930 0.750860 0.973750
C694 C 1.254960 0.741460 1.050660
C695 C 0.860400 0.642400 1.082440
C696 C 1.419680 0.686890 1.176300
C697 C 1.473500 0.635690 1.235100
C698 C 0.069430 -0.037460 -0.301630
C699 C 0.441300 -0.292040 -0.134440
C700 C 0.559700 -0.305800 -0.063220
C701 C 1.483300 0.582600 1.268940
C702 C 1.467200 0.518920 1.293350
C703 C 0.853490 -0.285190 0.102520
C704 C 0.947050 -0.253800 0.174910
C705 C 1.061100 -0.287370 0.245110
C706 C 1.006900 -0.294440 0.324780
C707 C 1.128700 -0.321060 0.399400
C708 C 1.177600 -0.390470 0.388300
C709 C 0.862700 -0.016850 0.890100
C710 C 1.440800 0.056660 1.311810
C711 C 1.322200 0.428000 1.493640
C712 C 0.371300 0.178940 0.600600
C713 C 0.438900 0.212630 0.754890
C714 C 0.322400 0.109530 0.611700
C715 C 1.200800 0.439440 1.542290
C716 C 1.058700 0.207960 1.134440
C717 C 0.493100 0.205560 0.675220
C718 C 0.860400 -0.357600 0.082440
C719 C 0.753000 -0.402070 0.115930
C720 C 0.752100 -0.472450 0.083980
C721 C 0.637300 -0.516850 0.109900
C722 C 0.747900 0.027550 0.916020
C723 C 1.368800 0.176580 1.316730
C724 C 0.940300 0.194200 1.063220
C725 C 1.336200 0.106050 1.338190
C726 C 1.253700 0.226520 1.333970
C727 C 1.430570 0.462540 1.301630
C728 C 0.516700 0.417400 0.731060
C729 C 1.076430 0.273800 1.153480
C730 C 1.361800 0.356150 1.490160
C731 C -0.419680 0.313110 -0.176300
C732 C -0.467200 0.481080 -0.293350
C733 C -0.473500 0.364310 -0.235100
C734 C 0.865920 0.155260 1.338280
C735 C 0.363070 0.250860 1.026250
C736 C 0.052950 0.253800 0.825090
C737 C 0.767580 0.206700 1.296160
C738 C 0.689320 0.189840 1.216120
C739 C 0.080320 0.186890 0.823700
C740 C 0.032800 0.018920 0.706650
C741 C 0.026500 0.135690 0.764900
C742 C 0.245040 0.241460 0.949340
C743 C 0.247000 0.402070 0.884070
C744 C 0.957300 0.158690 1.427440
C745 C 0.146510 0.285190 0.897480
C746 C 0.859160 0.100160 1.287820
C747 C 0.139600 0.357600 0.917560
C748 C 0.861800 0.143850 1.490160
C749 C 0.576430 0.226200 1.153480
C750 C 0.016700 0.082600 0.731060
C751 C 0.930570 0.037460 1.301630
C752 C 0.753700 0.273480 1.333970
C753 C 0.836200 0.393950 1.338190
C754 C 0.440300 0.305800 1.063220
C755 C 0.868800 0.323420 1.316730
C756 C 0.247900 0.472450 0.916020
C757 C -0.006900 0.294440 0.675220
C758 C 0.558700 0.292040 1.134440
C759 C 0.700800 0.060560 1.542290
C760 C -0.177600 0.390470 0.611700
C761 C -0.061100 0.287370 0.754890
C762 C -0.128700 0.321060 0.600600
C763 C 0.822200 0.072000 1.493640
C764 C 0.940800 0.443340 1.311810
C765 C 0.362700 0.516850 0.890100
C766 C 0.639600 0.142400 0.917560
C767 C 1.359160 0.399840 1.287820
C768 C 0.646510 0.214810 0.897480
C769 C 1.457300 0.341310 1.427440
C770 C 0.747000 0.097930 0.884070
C771 C 0.745040 0.258540 0.949340
C772 C 0.526500 0.364310 0.764900
C773 C 0.532800 0.481080 0.706650
C774 C 0.580320 0.313110 0.823700
C775 C 1.189320 0.310160 1.216120
C776 C 1.267580 0.293300 1.296160
C777 C 0.552950 0.246200 0.825090
C778 C 0.863070 0.249140 1.026250
C779 C 1.365920 0.344740 1.338280
C780 C -0.254960 0.258540 -0.050660
C781 C -0.253000 0.097930 -0.115930
C782 C 0.457300 0.341310 0.427440
C783 C 1.137300 1.016850 0.109900
C784 C 1.252100 0.972450 0.083980
C785 C 1.253000 0.902070 0.115930
C786 C 1.360400 0.857600 0.082440
C787 C 1.677600 0.890470 0.388300
C788 C 1.628700 0.821060 0.399400
C789 C 1.506900 0.794440 0.324780
C790 C 1.561100 0.787370 0.245110
C791 C 1.447050 0.753800 0.174910
C792 C 1.353490 0.785190 0.102520
C793 C 1.059700 0.805800 -0.063220
C794 C 0.941300 0.792040 -0.134440
C795 C 0.569430 0.537460 -0.301630
C796 C 0.799200 0.560560 -0.542290
C797 C 0.677800 0.572000 -0.493640
C798 C 0.638200 0.643850 -0.490160
C799 C 0.542700 0.658690 -0.427440
C800 C 0.559200 0.943340 -0.311810
C801 C 0.663800 0.893950 -0.338190
C802 C 0.631200 0.823420 -0.316730
C803 C 0.746300 0.773480 -0.333970
C804 C 0.967200 -0.018920 1.293350
C805 C 0.983300 -0.082600 1.268940
C806 C 0.973500 -0.135690 1.235100
C807 C 0.919680 -0.186890 1.176300
C808 C -0.353490 0.214810 -0.102520
C809 C 0.754960 -0.241460 1.050660
C810 C 0.636930 -0.250860 0.973750
C811 C 0.359160 0.399840 0.287820
C812 C 0.423570 -0.226200 0.846520
C813 C 0.310680 -0.189840 0.783880
C814 C -0.360400 0.142400 -0.082440
C815 C 0.140840 -0.100160 0.712180
C816 C 0.134080 -0.155260 0.661720
C817 C 0.232420 -0.206700 0.703840
C818 C 0.246300 -0.273480 0.666030
C819 C 0.131200 -0.323420 0.683270
C820 C 0.163800 -0.393950 0.661810
C821 C 0.059200 -0.443340 0.688190
C822 C 0.732420 0.706700 -0.296160
C823 C 0.634080 0.655260 -0.338280
C824 C 0.640840 0.600160 -0.287820
C825 C 1.177600 0.609530 1.388300
C826 C 0.810680 0.689840 -0.216120
C827 C 0.923570 0.726200 -0.153480
C828 C 1.128700 0.678940 1.399400
C829 C 1.136930 0.750860 -0.026250
C830 C 1.254960 0.741460 0.050660
C831 C 0.042700 -0.158690 0.572560
C832 C 0.138200 -0.143850 0.509840
C833 C 0.177800 -0.072000 0.506360
C834 C 0.299200 -0.060560 0.457710
C835 C 1.006900 0.705560 1.324780
C836 C 1.419680 0.686890 0.176300
C837 C 1.473500 0.635690 0.235100
C838 C 1.483300 0.582600 0.268940
C839 C 1.467200 0.518920 0.293350
C840 C 0.862700 -0.016850 -0.109900
C841 C 1.440800 0.056660 0.311810
C842 C 1.322200 0.428000 0.493640
C843 C 0.371300 0.178940 -0.399400
C844 C 0.069430 -0.037460 0.698370
C845 C 0.441300 -0.292040 0.865560
C846 C 0.559700 -0.305800 0.936780
C847 C 0.438900 0.212630 -0.245110
C848 C 0.322400 0.109530 -0.388300
C849 C 0.853490 -0.285190 1.102520
C850 C 0.947050 -0.253800 1.174910
C851 C 1.061100 -0.287370 1.245110
C852 C 1.006900 -0.294440 1.324780
C853 C 1.128700 -0.321060 1.399400
C854 C 1.177600 -0.390470 1.388300
C855 C 1.200800 0.439440 0.542290
C856 C 1.058700 0.207960 0.134440
C857 C 0.493100 0.205560 -0.324780
C858 C 0.747900 0.027550 -0.083980
C859 C 1.368800 0.176580 0.316730
C860 C 0.940300 0.194200 0.063220
C861 C 1.336200 0.106050 0.338190
C862 C 1.253700 0.226520 0.333970
C863 C 1.430570 0.462540 0.301630
C864 C 0.860400 -0.357600 1.082440
C865 C 0.753000 -0.402070 1.115930
C866 C 0.752100 -0.472450 1.083980
C867 C 0.637300 -0.516850 1.109900
C868 C 0.516700 0.417400 -0.268940
C869 C 1.076430 0.273800 0.153480
C870 C 1.361800 0.356150 0.490160
C871 C 0.639600 0.142400 -0.082440
C872 C 1.359160 0.399840 0.287820
C873 C 0.646510 0.214810 -0.102520
C874 C 1.457300 0.341310 0.427440
C875 C 0.747000 0.097930 -0.115930
C876 C 0.745040 0.258540 -0.050660
C877 C 1.061100 0.712630 1.245110
C878 C 0.947050 0.746200 1.174910
C879 C 0.853490 0.714810 1.102520
C880 C 0.865920 1.155260 0.338280
C881 C 0.363070 1.250860 0.026250
C882 C 0.052950 1.253800 -0.174910
C883 C 0.767580 1.206700 0.296160
C884 C 0.689320 1.189840 0.216120
C885 C 0.080320 1.186890 -0.176300
C886 C 0.032800 1.018920 -0.293350
C887 C 0.026500 1.135690 -0.235100
C888 C 0.245040 1.241460 -0.050660
C889 C 0.247000 1.402070 -0.115930
C890 C 0.957300 1.158690 0.427440
C891 C 0.146510 1.285190 -0.102520
C892 C 0.859160 1.100160 0.287820
C893 C 0.139600 1.357600 -0.082440
C894 C 0.861800 1.143850 0.490160
C895 C 0.576430 1.226200 0.153480
C896 C 0.016700 1.082600 -0.268940
C897 C 0.930570 1.037460 0.301630
C898 C 0.753700 1.273480 0.333970
C899 C 0.836200 1.393950 0.338190
C900 C 0.440300 1.305800 0.063220
C901 C 0.868800 1.323420 0.316730
C902 C 0.247900 1.472450 -0.083980
C903 C -0.006900 1.294440 -0.324780
C904 C 0.558700 1.292040 0.134440
C905 C 0.700800 1.060560 0.542290
C906 C -0.177600 1.390470 -0.388300
C907 C -0.061100 1.287370 -0.245110
C908 C -0.128700 1.321060 -0.399400
C909 C 0.822200 1.072000 0.493640
C910 C 0.940800 1.443340 0.311810
C911 C 0.362700 1.516850 -0.109900
C912 C 0.526500 0.364310 -0.235100
C913 C 0.532800 0.481080 -0.293350
C914 C 0.580320 0.313110 -0.176300
C915 C 1.189320 0.310160 0.216120
C916 C 1.267580 0.293300 0.296160
C917 C 0.552950 0.246200 -0.174910
C918 C 0.863070 0.249140 0.026250
C919 C 1.365920 0.344740 0.338280
C920 C 0.361800 0.356150 0.490160
C921 C 0.076430 0.273800 0.153480
C922 C 0.559700 0.694200 0.936780
C923 C 0.137300 1.016850 1.109900
C924 C 0.252100 0.972450 1.083980
C925 C 0.253000 0.902070 1.115930
C926 C 0.360400 0.857600 1.082440
C927 C 0.677600 0.890470 1.388300
C928 C 0.628700 0.821060 1.399400
C929 C 0.506900 0.794440 1.324780
C930 C 0.561100 0.787370 1.245110
C931 C 0.447050 0.753800 1.174910
C932 C 0.353490 0.785190 1.102520
C933 C 0.059700 0.805800 0.936780
C934 C -0.058700 0.792040 0.865560
C935 C -0.430570 0.537460 0.698370
C936 C -0.200800 0.560560 0.457710
C937 C -0.322200 0.572000 0.506360
C938 C -0.361800 0.643850 0.509840
C939 C -0.457300 0.658690 0.572560
C940 C -0.440800 0.943340 0.688190
C941 C -0.336200 0.893950 0.661810
C942 C -0.368800 0.823420 0.683270
C943 C -0.253700 0.773480 0.666030
C944 C -0.267580 0.706700 0.703840
C945 C -0.365920 0.655260 0.661720
C946 C -0.359160 0.600160 0.712180
C947 C 0.441300 0.707960 0.865560
C948 C -0.189320 0.689840 0.783880
C949 C -0.076430 0.726200 0.846520
C950 C 0.967200 0.981080 0.293350
C951 C 0.983300 0.917400 0.268940
C952 C 0.973500 0.864310 0.235100
C953 C 0.919680 0.813110 0.176300
C954 C 0.069430 0.962540 0.698370
C955 C 0.754960 0.758540 0.050660
C956 C 0.636930 0.749140 -0.026250
C957 C -0.483300 0.417400 -0.268940
C958 C 0.423570 0.773800 -0.153480
C959 C 0.310680 0.810160 -0.216120
C960 C 0.430570 0.462540 0.301630
C961 C 0.140840 0.899840 -0.287820
C962 C 0.134080 0.844740 -0.338280
C963 C 0.232420 0.793300 -0.296160
C964 C 0.246300 0.726520 -0.333970
C965 C 0.131200 0.676580 -0.316730
C966 C 0.163800 0.606050 -0.338190
C967 C 0.059200 0.556660 -0.311810
C968 C 0.253700 0.226520 0.333970
C969 C 0.136930 0.750860 0.973750
C970 C 0.254960 0.741460 1.050660
C971 C 0.336200 0.106050 0.338190
C972 C 0.419680 0.686890 1.176300
C973 C 0.473500 0.635690 1.235100
C974 C 0.483300 0.582600 1.268940
C975 C 0.467200 0.518920 1.293350
C976 C -0.137300 -0.016850 0.890100
C977 C 0.042700 0.841310 -0.427440
C978 C 0.138200 0.856150 -0.490160
C979 C 0.177800 0.928000 -0.493640
C980 C 0.299200 0.939440 -0.542290
C981 C 0.440800 0.056660 1.311810
C982 C 0.322200 0.428000 1.493640
C983 C -0.628700 0.178940 0.600600
C984 C -0.561100 0.212630 0.754890
C985 C -0.677600 0.109530 0.611700
C986 C 0.200800 0.439440 1.542290
C987 C 0.058700 0.207960 1.134440
C988 C -0.506900 0.205560 0.675220
C989 C -0.252100 0.027550 0.916020
C990 C 0.069430 0.962540 -0.301630
C991 C 0.441300 0.707960 -0.134440
C992 C 0.559700 0.694200 -0.063220
C993 C 0.368800 0.176580 1.316730
C994 C -0.059700 0.194200 1.063220
C995 C 0.853490 0.714810 0.102520
C996 C 0.947050 0.746200 0.174910
C997 C 1.061100 0.712630 0.245110
C998 C 1.006900 0.705560 0.324780
C999 C 1.128700 0.678940 0.399400
C1000 C 1.177600 0.609530 0.388300
C1001 C 0.336200 0.106050 1.338190
C1002 C 0.253700 0.226520 1.333970
C1003 C 0.430570 0.462540 1.301630
C1004 C -0.483300 0.417400 0.731060
C1005 C 0.076430 0.273800 1.153480
C1006 C 0.361800 0.356150 1.490160
C1007 C -0.360400 0.142400 0.917560
C1008 C 0.359160 0.399840 1.287820
C1009 C -0.353490 0.214810 0.897480
C1010 C 0.860400 0.642400 0.082440
C1011 C 0.753000 0.597930 0.115930
C1012 C 0.752100 0.527550 0.083980
C1013 C 0.637300 0.483150 0.109900
C1014 C 0.457300 0.341310 1.427440
C1015 C -0.253000 0.097930 0.884070
C1016 C -0.254960 0.258540 0.949340
C1017 C -0.473500 0.364310 0.764900
C1018 C -0.467200 0.481080 0.706650
C1019 C -0.419680 0.313110 0.823700
C1020 C 0.189320 0.310160 1.216120
C1021 C 0.267580 0.293300 1.296160
C1022 C -0.447050 0.246200 0.825090
C1023 C -0.059700 0.194200 0.063220
C1024 C 0.368800 0.176580 0.316730
C1025 C -0.252100 0.027550 -0.083980
C1026 C 0.865920 1.155260 1.338280
C1027 C 0.363070 1.250860 1.026250
C1028 C 0.052950 1.253800 0.825090
C1029 C 0.767580 1.206700 1.296160
C1030 C 0.689320 1.189840 1.216120
C1031 C 0.080320 1.186890 0.823700
C1032 C 0.032800 1.018920 0.706650
C1033 C 0.026500 1.135690 0.764900
C1034 C 0.245040 1.241460 0.949340
C1035 C 0.247000 1.402070 0.884070
C1036 C 0.957300 1.158690 1.427440
C1037 C 0.146510 1.285190 0.897480
C1038 C 0.859160 1.100160 1.287820
C1039 C 0.139600 1.357600 0.917560
C1040 C 0.861800 1.143850 1.490160
C1041 C 0.576430 1.226200 1.153480
C1042 C 0.016700 1.082600 0.731060
C1043 C 0.930570 1.037460 1.301630
C1044 C 0.753700 1.273480 1.333970
C1045 C 0.836200 1.393950 1.338190
C1046 C 0.440300 1.305800 1.063220
C1047 C 0.868800 1.323420 1.316730
C1048 C 0.247900 1.472450 0.916020
C1049 C -0.006900 1.294440 0.675220
C1050 C 0.558700 1.292040 1.134440
C1051 C 0.700800 1.060560 1.542290
C1052 C -0.177600 1.390470 0.611700
C1053 C -0.061100 1.287370 0.754890
C1054 C -0.128700 1.321060 0.600600
C1055 C 0.822200 1.072000 1.493640
C1056 C 0.940800 1.443340 1.311810
C1057 C 0.362700 1.516850 0.890100
C1058 C -0.136930 0.249140 1.026250
C1059 C 0.365920 0.344740 1.338280
C1060 C -0.506900 0.205560 -0.324780
C1061 C 0.058700 0.207960 0.134440
C1062 C 0.299200 0.939440 0.457710
C1063 C 0.137300 1.016850 0.109900
C1064 C 0.252100 0.972450 0.083980
C1065 C 0.253000 0.902070 0.115930
C1066 C 0.360400 0.857600 0.082440
C1067 C 0.677600 0.890470 0.388300
C1068 C 0.628700 0.821060 0.399400
C1069 C 0.506900 0.794440 0.324780
C1070 C 0.561100 0.787370 0.245110
C1071 C 0.447050 0.753800 0.174910
C1072 C 0.353490 0.785190 0.102520
C1073 C 0.059700 0.805800 -0.063220
C1074 C -0.058700 0.792040 -0.134440
C1075 C -0.430570 0.537460 -0.301630
C1076 C -0.200800 0.560560 -0.542290
C1077 C -0.322200 0.572000 -0.493640
C1078 C -0.361800 0.643850 -0.490160
C1079 C -0.457300 0.658690 -0.427440
C1080 C -0.440800 0.943340 -0.311810
C1081 C -0.336200 0.893950 -0.338190
C1082 C -0.368800 0.823420 -0.316730
C1083 C -0.253700 0.773480 -0.333970
C1084 C -0.267580 0.706700 -0.296160
C1085 C -0.365920 0.655260 -0.338280
C1086 C -0.359160 0.600160 -0.287820
C1087 C 0.177800 0.928000 0.506360
C1088 C -0.189320 0.689840 -0.216120
C1089 C -0.076430 0.726200 -0.153480
C1090 C 0.138200 0.856150 0.509840
C1091 C 0.136930 0.750860 -0.026250
C1092 C 0.254960 0.741460 0.050660
C1093 C 0.042700 0.841310 0.572560
C1094 C 0.419680 0.686890 0.176300
C1095 C 0.473500 0.635690 0.235100
C1096 C 0.967200 0.981080 1.293350
C1097 C 0.983300 0.917400 1.268940
C1098 C 0.973500 0.864310 1.235100
C1099 C 0.919680 0.813110 1.176300
C1100 C 0.200800 0.439440 0.542290
C1101 C 0.754960 0.758540 1.050660
C1102 C 0.636930 0.749140 0.973750
C1103 C -0.677600 0.109530 -0.388300
C1104 C 0.423570 0.773800 0.846520
C1105 C 0.310680 0.810160 0.783880
C1106 C -0.561100 0.212630 -0.245110
C1107 C 0.140840 0.899840 0.712180
C1108 C 0.134080 0.844740 0.661720
C1109 C 0.232420 0.793300 0.703840
C1110 C 0.246300 0.726520 0.666030
C1111 C 0.131200 0.676580 0.683270
C1112 C 0.163800 0.606050 0.661810
C1113 C 0.059200 0.556660 0.688190
C1114 C 0.483300 0.582600 0.268940
C1115 C 0.467200 0.518920 0.293350
C1116 C -0.137300 -0.016850 -0.109900
C1117 C 0.440800 0.056660 0.311810
C1118 C 0.322200 0.428000 0.493640
C1119 C -0.628700 0.178940 -0.399400
C1120 C 0.440300 0.305800 0.063220
S1121 S 0.561910 0.818850 0.916640
S1122 S 0.780100 0.838210 1.089890
S1123 S 0.280100 0.661790 0.089890
S1124 S 0.061910 0.681150 -0.083360
S1125 S -0.235370 0.611010 -0.190330
S1126 S 0.235370 0.388990 1.190330
S1127 S -0.061910 0.318850 1.083360
S1128 S -0.280100 0.338210 0.910110
S1129 S 0.219900 1.161790 0.910110
S1130 S 0.438090 1.181150 1.083360
S1131 S 0.735370 1.111010 1.190330
S1132 S 0.280100 0.661790 1.089890
S1133 S 0.061910 0.681150 0.916640
S1134 S 0.264630 0.888990 -0.190330
S1135 S 0.561910 0.818850 -0.083360
S1136 S 0.780100 0.838210 0.089890
S1137 S -0.235370 0.611010 0.809670
S1138 S 1.235370 0.388990 0.190330
S1139 S 0.938090 0.318850 0.083360
S1140 S 0.719900 0.338210 -0.089890
S1141 S 0.219900 1.161790 -0.089890
S1142 S 0.438090 1.181150 0.083360
S1143 S 0.735370 1.111010 0.190330
S1144 S 1.280100 0.661790 0.089890
S1145 S 1.061910 0.681150 -0.083360
S1146 S 0.764630 0.611010 -0.190330
S1147 S 0.264630 -0.111010 0.809670
S1148 S 0.561910 -0.181150 0.916640
S1149 S 0.780100 -0.161790 1.089890
S1150 S 1.235370 0.388990 1.190330
S1151 S 0.938090 0.318850 1.083360
S1152 S 0.719900 0.338210 0.910110
S1153 S 0.219900 0.161790 0.910110
S1154 S 0.438090 0.181150 1.083360
S1155 S 0.735370 0.111010 1.190330
S1156 S 1.280100 0.661790 1.089890
S1157 S 1.061910 0.681150 0.916640
S1158 S 0.764630 0.611010 0.809670
S1159 S 0.264630 -0.111010 -0.190330
S1160 S 0.561910 -0.181150 -0.083360
S1161 S 0.780100 -0.161790 0.089890
S1162 S 0.735370 0.111010 0.190330
S1163 S 0.438090 0.181150 0.083360
S1164 S 0.219900 0.161790 -0.089890
S1165 S -0.280100 0.338210 -0.089890
S1166 S -0.061910 0.318850 0.083360
S1167 S 0.264630 0.888990 0.809670
S1168 S 0.235370 0.388990 0.190330

#END
