./LABBEW_from_POSCAR.cif_generated_by_CrystalShift
_symmetry_cell_setting triclinic
_symmetry_space_group_name_H-M 'P 1'
loop_
_symmetry_equiv_pos_site_id
_symmetry_equiv_pos_as_xyz
1 x,y,z
_cell_length_a 6.378000
_cell_length_b 19.449000
_cell_length_c 11.752000
_cell_angle_alpha 90.000000
_cell_angle_beta 103.000000
_cell_angle_gamma 90.000000
_cell_volume 1420.422382
loop_
_atom_site_label
_atom_site_type_symbol
_atom_site_fract_x
_atom_site_fract_y
_atom_site_fract_z
H1 H 1.631800 0.190800 0.544200
H2 H 1.791100 0.153600 0.730400
H3 H 1.612400 0.167500 0.879200
H4 H 1.273300 0.210500 0.842600
H5 H 1.103300 0.245300 0.655800
H6 H 0.428500 0.447600 0.398500
H7 H 0.473900 0.526700 0.411500
H8 H 0.499900 0.488200 0.298400
H9 H 0.921300 0.562100 0.357900
H10 H 0.278100 0.700200 0.679300
H11 H 0.954300 0.576900 0.491900
H12 H 0.543500 0.751600 0.807700
H13 H 1.116500 0.529400 0.446500
H14 H 0.499100 0.867700 0.781700
H15 H 0.782900 0.503300 0.750400
H16 H 0.306400 0.826700 0.600600
H17 H 0.817900 0.550600 0.648300
H18 H -0.034400 0.797700 0.714200
H19 H 0.598100 0.512400 0.638300
H20 H 1.134600 0.400400 0.616400
H21 H 1.155800 0.475100 0.668000
H22 H 0.336000 0.518700 0.969100
H23 H 1.091600 0.414200 0.740600
H24 H 0.195700 0.462900 1.105900
H25 H 0.563600 0.386100 0.592000
H26 H -0.130700 0.500000 1.141700
H27 H 0.766400 0.341300 0.588100
H28 H -0.310900 0.589000 1.040300
H29 H 0.733400 0.369900 0.707600
H30 H -0.159000 0.649900 0.907700
H31 H 0.399700 0.374000 -0.021900
H32 H 0.579100 0.410800 -0.071300
H33 H -0.000100 0.792700 0.949000
H34 H 0.040800 0.860800 1.021900
H35 H 0.136900 0.791200 1.077700
H36 H 0.487200 0.339800 -0.122800
H37 H 0.512800 0.839800 1.122800
H38 H 0.420900 0.910800 1.071300
H39 H 0.600300 0.874000 1.021900
H40 H 0.863100 0.291200 -0.077700
H41 H 0.959200 0.360800 -0.021900
H42 H 0.266600 0.869900 0.292400
H43 H 0.233600 0.841300 0.411900
H44 H 0.436400 0.886100 0.408000
H45 H 1.000100 0.292700 0.051000
H46 H -0.091600 0.914200 0.259400
H47 H -0.155800 0.975100 0.332000
H48 H -0.134600 0.900400 0.383600
H49 H 1.159000 0.149900 0.092300
H50 H 0.401900 1.012400 0.361700
H51 H 0.182100 1.050600 0.351700
H52 H 0.217100 1.003300 0.249600
H53 H 1.310900 0.089000 -0.040300
H54 H -0.116500 1.029400 0.553500
H55 H 0.045700 1.076900 0.508100
H56 H 0.078700 1.062100 0.642100
H57 H 1.130700 0.000000 -0.141700
H58 H 0.500100 0.988200 0.701600
H59 H 0.526100 1.026700 0.588500
H60 H 0.571500 0.947600 0.601500
H61 H 0.804300 -0.037100 -0.105900
H62 H 0.664000 0.018700 0.030900
H63 H 1.034400 0.297700 0.285800
H64 H -0.103300 0.745300 0.344200
H65 H 0.693600 0.326700 0.399400
H66 H -0.273300 0.710500 0.157400
H67 H 0.500900 0.367700 0.218300
H68 H -0.612400 0.667500 0.120800
H69 H 0.456500 0.251600 0.192300
H70 H -0.791100 0.653600 0.269600
H71 H 0.721900 0.200200 0.320700
H72 H -0.631800 0.690800 0.455800
C73 C 0.524900 0.367100 -0.053100
C74 C 1.654300 0.173000 0.715000
C75 C 1.545800 0.180600 0.803600
C76 C 1.344300 0.206600 0.782000
C77 C 1.242100 0.227600 0.670500
C78 C 1.352100 0.221400 0.581100
C79 C 1.254000 0.244300 0.460600
C80 C 0.516800 0.484400 0.381400
C81 C 0.781200 0.227600 0.265300
C82 C -0.558300 0.694400 0.396100
C83 C 0.597800 0.267600 0.183900
C84 C -0.654300 0.673000 0.285000
C85 C 0.635200 0.342600 0.221400
C86 C -0.545800 0.680600 0.196400
C87 C 0.779200 0.340100 0.343500
C88 C -0.344300 0.706600 0.218000
C89 C 0.932300 0.282500 0.331600
C90 C -0.242100 0.727600 0.329500
C91 C 0.787800 0.127500 0.155700
C92 C 0.893300 0.091000 0.073300
C93 C 0.792300 0.034100 0.014700
C94 C -0.352100 0.721400 0.418900
C95 C 0.876000 0.000200 -0.065500
C96 C -0.254000 0.744300 0.539400
C97 C 1.072000 0.022500 -0.086300
C98 C 0.483200 0.984400 0.618600
C99 C 1.177700 0.075900 -0.027500
C100 C 0.031500 1.043000 0.565300
C101 C 1.088000 0.112100 0.053000
C102 C 0.248900 1.009200 0.332800
C103 C 0.697200 0.330100 0.036800
C104 C 0.898100 0.317500 -0.006900
C105 C -0.077600 0.932600 0.336500
C106 C 0.286000 0.879400 0.374200
C107 C 0.159400 0.945600 0.391200
C108 C 1.558300 0.194400 0.603900
C109 C 0.475100 0.867100 1.053100
C110 C 0.101900 0.817500 1.006900
C111 C 0.302800 0.830100 0.963200
C112 C 0.840600 0.445600 0.608800
C113 C 0.714000 0.379400 0.625800
C114 C -0.088000 0.612100 0.947000
C115 C -0.177700 0.575900 1.027500
C116 C -0.072000 0.522500 1.086300
C117 C 1.077600 0.432600 0.663500
C118 C 0.124000 0.500200 1.065500
C119 C 0.207700 0.534100 0.985300
C120 C 0.106700 0.591000 0.926700
C121 C 0.751100 0.509200 0.667200
C122 C 0.212200 0.627500 0.844300
C123 C 0.067700 0.782500 0.668400
C124 C 0.220800 0.840100 0.656500
C125 C 0.968500 0.543000 0.434700
C126 C 0.364800 0.842600 0.778600
C127 C 0.402200 0.767600 0.816100
C128 C 0.218800 0.727600 0.734700
O129 O 1.352900 0.250200 0.386400
O130 O -0.352900 0.750200 0.613600
O131 O -0.044800 0.758700 0.555100
O132 O 0.109800 0.902200 0.618900
O133 O 1.044800 0.258700 0.444900
O134 O 0.890200 0.402200 0.381100
O135 O 0.754300 0.368900 0.142600
O136 O 0.245700 0.868900 0.857400
O137 O 0.613000 0.266500 0.065300
O138 O 0.387000 0.766500 0.934700
O139 O 0.616300 0.111700 0.175300
O140 O 0.383700 0.611700 0.824700
O141 O 0.897600 0.183760 0.203900
O142 O 0.102400 0.683760 0.796100
Si143 Si 0.800500 0.466630 0.449870
Si144 Si 0.199500 0.966630 0.550130

#END
