./LABCEW_from_POSCAR.cif_generated_by_CrystalShift
_symmetry_cell_setting triclinic
_symmetry_space_group_name_H-M 'P 1'
loop_
_symmetry_equiv_pos_site_id
_symmetry_equiv_pos_as_xyz
1 x,y,z
_cell_length_a 9.972000
_cell_length_b 8.308000
_cell_length_c 17.010000
_cell_angle_alpha 90.000000
_cell_angle_beta 97.371000
_cell_angle_gamma 90.000000
_cell_volume 1397.588274
loop_
_atom_site_label
_atom_site_type_symbol
_atom_site_fract_x
_atom_site_fract_y
_atom_site_fract_z
H1 H 1.228000 0.534000 0.301000
H2 H 1.321000 0.654000 0.584000
H3 H 1.496000 0.710000 0.499000
H4 H 1.450000 0.650000 0.357000
H5 H 0.821000 0.339000 0.337000
H6 H 0.664000 0.172000 0.214000
H7 H 0.623000 0.202000 0.054000
H8 H 0.798000 0.418000 0.012000
H9 H 0.951000 0.524000 0.144000
H10 H 0.656000 0.660000 0.286000
H11 H 0.450000 0.460000 0.236000
H12 H 0.398000 0.485000 0.078000
H13 H 0.569000 0.700000 0.029000
H14 H 0.724000 0.815000 0.159000
H15 H 0.272000 0.034000 0.699000
H16 H 0.533000 -0.041000 0.572000
H17 H 0.179000 0.154000 0.416000
H18 H 0.004000 0.210000 0.501000
H19 H 0.050000 0.150000 0.643000
H20 H 0.679000 -0.161000 0.663000
H21 H 0.224000 0.685000 0.159000
H22 H 0.069000 0.800000 0.029000
H23 H -0.102000 1.015000 0.078000
H24 H -0.050000 1.040000 0.236000
H25 H 0.156000 0.840000 0.286000
H26 H 0.451000 0.976000 0.144000
H27 H 0.298000 1.082000 0.012000
H28 H 0.123000 1.298000 0.054000
H29 H 0.164000 1.328000 0.214000
H30 H 0.321000 1.161000 0.337000
H31 H 0.950000 0.850000 0.357000
H32 H 0.996000 0.790000 0.499000
H33 H 0.821000 0.846000 0.584000
H34 H 0.467000 1.041000 0.428000
H35 H 0.728000 0.966000 0.301000
H36 H 0.836000 -0.328000 0.786000
H37 H 0.877000 -0.298000 0.946000
H38 H 0.702000 -0.082000 0.988000
H39 H 0.549000 0.024000 0.856000
H40 H 0.844000 0.160000 0.714000
H41 H 1.050000 -0.040000 0.764000
H42 H 1.102000 -0.015000 0.922000
H43 H 0.931000 0.200000 0.971000
H44 H 0.776000 0.315000 0.841000
H45 H -0.228000 0.466000 0.699000
H46 H 0.033000 0.541000 0.572000
H47 H -0.321000 0.346000 0.416000
H48 H -0.496000 0.290000 0.501000
H49 H -0.450000 0.350000 0.643000
H50 H 0.179000 0.661000 0.663000
H51 H 0.336000 0.828000 0.786000
H52 H 0.377000 0.798000 0.946000
H53 H 0.202000 0.582000 0.988000
H54 H 0.049000 0.476000 0.856000
H55 H 0.344000 0.340000 0.714000
H56 H 0.276000 0.185000 0.841000
H57 H 0.431000 0.300000 0.971000
H58 H 0.602000 0.515000 0.922000
H59 H 0.550000 0.540000 0.764000
H60 H 0.967000 0.459000 0.428000
C61 C 0.003000 0.962200 0.199200
C62 C 0.328300 1.145100 0.207800
C63 C -0.300100 0.370100 0.479200
C64 C -0.400000 0.339700 0.525700
C65 C -0.373800 0.373400 0.605000
C66 C -0.250900 0.437100 0.636000
C67 C -0.154900 0.463000 0.584200
C68 C 0.120400 0.620900 0.709000
C69 C 0.128700 0.563800 0.858500
C70 C 0.210200 0.619700 0.927900
C71 C 0.110100 0.856000 0.225600
C72 C 0.889900 0.144000 0.774400
C73 C 0.853000 0.223500 0.841800
C74 C 0.936200 0.164900 0.910200
C75 C 1.024700 0.051400 0.884700
C76 C 0.997000 0.037800 0.800800
C77 C 0.671700 -0.145100 0.792200
C78 C 0.780700 -0.250800 0.820900
C79 C 0.802400 -0.234000 0.905700
C80 C 0.710200 -0.119700 0.927900
C81 C 0.628700 -0.063800 0.858500
C82 C 0.620400 -0.120900 0.709000
C83 C 0.345100 0.037000 0.584200
C84 C 0.249100 0.062900 0.636000
C85 C 0.126200 0.126600 0.605000
C86 C 0.100000 0.160300 0.525700
C87 C 0.199900 0.129900 0.479200
C88 C 0.219300 1.250800 0.179100
C89 C 0.197600 1.234000 0.094300
C90 C 0.289800 1.119700 0.072100
C91 C 0.302400 0.734000 0.905700
C92 C 0.280700 0.750800 0.820900
C93 C 0.171700 0.645100 0.792200
C94 C 0.497000 0.462200 0.800800
C95 C 0.524700 0.448600 0.884700
C96 C 0.436200 0.335100 0.910200
C97 C 0.353000 0.276500 0.841800
C98 C 0.389900 0.356000 0.774400
C99 C 0.147000 0.776500 0.158200
C100 C 0.371300 1.063800 0.141500
C101 C 0.379600 1.120900 0.291000
C102 C 0.654900 0.963000 0.415800
C103 C 0.800100 0.870100 0.520800
C104 C 0.900000 0.839700 0.474300
C105 C 0.873800 0.873400 0.395000
C106 C 0.063800 0.835100 0.089800
C107 C 0.610100 0.644000 0.225600
C108 C 0.647000 0.723500 0.158200
C109 C 0.563800 0.664900 0.089800
C110 C 0.475300 0.551400 0.115300
C111 C 0.503000 0.537800 0.199200
C112 C 0.828300 0.354900 0.207800
C113 C 0.719300 0.249200 0.179100
C114 C 0.697600 0.266000 0.094300
C115 C 0.789800 0.380300 0.072100
C116 C 0.871300 0.436200 0.141500
C117 C 0.879600 0.379100 0.291000
C118 C 1.154900 0.537000 0.415800
C119 C 1.250900 0.562900 0.364000
C120 C 1.373800 0.626600 0.395000
C121 C 1.400000 0.660300 0.474300
C122 C 1.300100 0.629900 0.520800
C123 C 0.750900 0.937100 0.364000
C124 C -0.024700 0.948600 0.115300
N125 N 1.177900 0.570000 0.493300
N126 N 0.993200 0.447800 0.310700
N127 N 0.493200 1.052200 0.310700
N128 N 0.529300 1.026100 0.389900
N129 N 0.677900 0.930000 0.493300
N130 N 0.322100 0.070000 0.506700
N131 N 0.470700 -0.026100 0.610100
N132 N 0.506800 -0.052200 0.689300
N133 N 0.006800 0.552200 0.689300
N134 N -0.029300 0.526100 0.610100
N135 N 1.029300 0.473900 0.389900
N136 N -0.177900 0.430000 0.506700
Fe137 Fe 0.829190 -0.019170 0.852020
Fe138 Fe 0.329190 0.519170 0.852020
Fe139 Fe 0.670810 0.480830 0.147980
Fe140 Fe 0.170810 1.019170 0.147980

#END
