
#######################################################################
#
#                 Cambridge Crystallographic Data Centre
#                                CCDC 
#
#######################################################################
#
# If this CIF has been generated from an entry in the Cambridge 
# Structural Database, then it will include bibliographic, chemical, 
# crystal, experimental, refinement or atomic coordinate data resulting 
# from the CCDC's data processing and validation procedures.
#
#######################################################################

data_LABHUR
_symmetry_cell_setting           monoclinic
_symmetry_space_group_name_H-M   'P 21'
_symmetry_Int_Tables_number      4
_space_group_name_Hall           'P 2yb'
loop_
_symmetry_equiv_pos_site_id
_symmetry_equiv_pos_as_xyz
1 x,y,z
2 -x,1/2+y,-z
_cell_length_a                   6.421(3)
_cell_length_b                   10.872(5)
_cell_length_c                   10.564(5)
_cell_angle_alpha                90
_cell_angle_beta                 91.05(2)
_cell_angle_gamma                90
_cell_volume                     737.34
loop_
_atom_site_label
_atom_site_type_symbol
_atom_site_fract_x
_atom_site_fract_y
_atom_site_fract_z
O1 O 0.3746(7) 0.5406(5) 1.1957(3)
O2 O -0.2206(5) 0.3123(6) 1.1926(3)
O3 O 0.1422(5) 0.2310 0.5407(3)
O4 O 0.4679(5) 0.2835(6) 0.5851(3)
N1 N 0.1884(5) 0.4441(5) 1.0337(3)
N2 N 0.0576(6) 0.4448(5) 1.2252(3)
N3 N -0.0005(5) 0.3727(5) 1.0318(3)
C1 C 0.2689(5) 0.3791(6) 0.8272(3)
C2 C 0.3568(6) 0.3823(6) 0.9626(4)
C3 C 0.3790(7) 0.2536(6) 1.0186(4)
C4 C 0.2042(6) 0.1888(6) 1.0168(4)
C5 C 0.0224(6) 0.2559(6) 0.9586(3)
C6 C 0.0652(5) 0.3022(6) 0.8238(3)
C7 C -0.1141(7) 0.3533(6) 0.7529(4)
C8 C -0.0987(9) 0.4575(7) 0.6878(4)
C9 C 0.0908(10) 0.5301(6) 0.6914(4)
C10 C 0.2582(9) 0.4972(6) 0.7591(4)
C11 C 0.2596(6) 0.2571(6) 0.7577(4)
C12 C 0.2262(8) 0.4820(6) 1.1569(4)
C13 C -0.0720(7) 0.3692(6) 1.1561(4)
C14 C 0.0228(16) 0.4724(8) 1.3580(5)
C15 C 0.2763(6) 0.2574(6) 0.6166(4)
C16 C 0.5229(13) 0.2754(13) 0.4528(7)
H1 H 0.489(7) 0.440(5) 0.974(4)
H2 H 0.505(8) 0.227(5) 1.056(5)
H3 H 0.195(7) 0.113(5) 1.055(4)
H4 H -0.117(7) 0.210(5) 0.956(4)
H5 H -0.252(9) 0.307(6) 0.763(5)
H6 H -0.224(10) 0.483(7) 0.638(6)
H7 H 0.094(8) 0.605(6) 0.646(6)
H8 H 0.399(7) 0.548(5) 0.766(4)
H9 H 0.338(7) 0.187(5) 0.795(5)
H10 H 0.095(9) 0.542(7) 1.379(6)
H11 H -0.126(11) 0.508(8) 1.364(7)
H12 H 0.065(10) 0.414(8) 1.406(7)
H13 H 0.449(13) 0.348(9) 0.422(8)
H14 H 0.687(11) 0.296(7) 0.458(6)
H15 H 0.452(12) 0.218(8) 0.414(8)
O1 O 0.6254(7) 1.0406(5) -0.1957(3)
O2 O 1.2206(5) 0.8123(6) -0.1926(3)
O3 O 0.8578(5) 0.7310 0.4593(3)
O4 O 0.5321(5) 0.7835(6) 0.4149(3)
N1 N 0.8116(5) 0.9441(5) -0.0337(3)
N2 N 0.9424(6) 0.9448(5) -0.2252(3)
N3 N 1.0005(5) 0.8727(5) -0.0318(3)
C1 C 0.7311(5) 0.8791(6) 0.1728(3)
C2 C 0.6432(6) 0.8823(6) 0.0374(4)
C3 C 0.6210(7) 0.7536(6) -0.0186(4)
C4 C 0.7958(6) 0.6888(6) -0.0168(4)
C5 C 0.9776(6) 0.7559(6) 0.0414(3)
C6 C 0.9348(5) 0.8022(6) 0.1762(3)
C7 C 1.1141(7) 0.8533(6) 0.2471(4)
C8 C 1.0987(9) 0.9575(7) 0.3122(4)
C9 C 0.9092(10) 1.0301(6) 0.3086(4)
C10 C 0.7418(9) 0.9972(6) 0.2409(4)
C11 C 0.7404(6) 0.7571(6) 0.2423(4)
C12 C 0.7738(8) 0.9820(6) -0.1569(4)
C13 C 1.0720(7) 0.8692(6) -0.1561(4)
C14 C 0.9772(16) 0.9724(8) -0.3580(5)
C15 C 0.7237(6) 0.7574(6) 0.3834(4)
C16 C 0.4771(13) 0.7754(13) 0.5472(7)
H1 H 0.511(7) 0.940(5) 0.026(4)
H2 H 0.495(8) 0.727(5) -0.056(5)
H3 H 0.805(7) 0.613(5) -0.055(4)
H4 H 1.117(7) 0.710(5) 0.044(4)
H5 H 1.252(9) 0.807(6) 0.237(5)
H6 H 1.224(10) 0.983(7) 0.362(6)
H7 H 0.906(8) 1.105(6) 0.354(6)
H8 H 0.601(7) 1.048(5) 0.234(4)
H9 H 0.662(7) 0.687(5) 0.205(5)
H10 H 0.905(9) 1.042(7) -0.379(6)
H11 H 1.126(11) 1.008(8) -0.364(7)
H12 H 0.935(10) 0.914(8) -0.406(7)
H13 H 0.551(13) 0.848(9) 0.578(8)
H14 H 0.313(11) 0.796(7) 0.542(6)
H15 H 0.548(12) 0.718(8) 0.586(8)

#END
