
#######################################################################
#
#                 Cambridge Crystallographic Data Centre
#                                CCDC 
#
#######################################################################
#
# If this CIF has been generated from an entry in the Cambridge 
# Structural Database, then it will include bibliographic, chemical, 
# crystal, experimental, refinement or atomic coordinate data resulting 
# from the CCDC's data processing and validation procedures.
#
#######################################################################

data_LABJON
_symmetry_cell_setting           monoclinic
_symmetry_space_group_name_H-M   'P 21/n'
_symmetry_Int_Tables_number      14
_space_group_name_Hall           '-P 2yn'
loop_
_symmetry_equiv_pos_site_id
_symmetry_equiv_pos_as_xyz
1 x,y,z
2 1/2-x,1/2+y,1/2-z
3 -x,-y,-z
4 1/2+x,1/2-y,1/2+z
_cell_length_a                   7.845(1)
_cell_length_b                   6.462(3)
_cell_length_c                   18.920(4)
_cell_angle_alpha                90
_cell_angle_beta                 93.18(2)
_cell_angle_gamma                90
_cell_volume                     957.661
loop_
_atom_site_label
_atom_site_type_symbol
_atom_site_fract_x
_atom_site_fract_y
_atom_site_fract_z
O1 O 0.0795(3) 0.1366(3) 0.4092(1)
O2 O -0.2126(3) 0.6044(4) 0.2700(1)
O3 O 0.4091(2) 0.5535(3) 0.5810(1)
O4 O 0.5697(3) 0.2949(3) 0.6652(1)
O5 O 0.6712(3) 0.5385(4) 0.7334(1)
N1 N -0.0826(3) 0.3331(4) 0.3280(1)
N2 N 0.0842(3) 0.4940(3) 0.4076(1)
N3 N 0.1933(3) 0.5136(3) 0.4658(1)
N4 N 0.5870(3) 0.4761(4) 0.6810(1)
C1 C 0.0342(3) 0.3000(4) 0.3853(1)
C2 C -0.1145(4) 0.5360(5) 0.3155(1)
C3 C -0.0045(4) 0.6574(4) 0.3683(2)
C4 C 0.2357(3) 0.6977(4) 0.4846(1)
C5 C 0.3510(4) 0.7264(4) 0.5455(1)
C6 C 0.5097(3) 0.6262(4) 0.6355(1)
C7 C 0.5188(4) 0.8331(4) 0.6369(1)
C8 C 0.4161(4) 0.8974(4) 0.5782(2)
H1 H -0.133(4) 0.236(6) 0.298(2)
H2 H -0.075(4) 0.734(5) 0.401(1)
H3 H 0.073(3) 0.738(4) 0.345(1)
H4 H 0.190(3) 0.827(4) 0.463(1)
H5 H 0.587(3) 0.904(4) 0.670(1)
H6 H 0.388(3) 1.029(5) 0.562(1)
O1 O 0.4205(3) -0.3634(3) 0.0908(1)
O2 O 0.7126(3) 0.1044(4) 0.2300(1)
O3 O 0.0909(2) 0.0535(3) -0.0810(1)
O4 O -0.0697(3) -0.2051(3) -0.1652(1)
O5 O -0.1712(3) 0.0385(4) -0.2334(1)
N1 N 0.5826(3) -0.1669(4) 0.1720(1)
N2 N 0.4158(3) -0.0060(3) 0.0924(1)
N3 N 0.3067(3) 0.0136(3) 0.0342(1)
N4 N -0.0870(3) -0.0239(4) -0.1810(1)
C1 C 0.4658(3) -0.2000(4) 0.1147(1)
C2 C 0.6145(4) 0.0360(5) 0.1845(1)
C3 C 0.5045(4) 0.1574(4) 0.1317(2)
C4 C 0.2643(3) 0.1977(4) 0.0154(1)
C5 C 0.1490(4) 0.2264(4) -0.0455(1)
C6 C -0.0097(3) 0.1262(4) -0.1355(1)
C7 C -0.0188(4) 0.3331(4) -0.1369(1)
C8 C 0.0839(4) 0.3974(4) -0.0782(2)
H1 H 0.633(4) -0.264(6) 0.202(2)
H2 H 0.575(4) 0.234(5) 0.099(1)
H3 H 0.427(3) 0.238(4) 0.155(1)
H4 H 0.310(3) 0.327(4) 0.037(1)
H5 H -0.087(3) 0.404(4) -0.170(1)
H6 H 0.112(3) 0.529(5) -0.062(1)
O1 O 0.9205(3) 0.8634(3) 0.5908(1)
O2 O 1.2126(3) 0.3956(4) 0.7300(1)
O3 O 0.5909(2) 0.4465(3) 0.4190(1)
O4 O 0.4303(3) 0.7051(3) 0.3348(1)
O5 O 0.3288(3) 0.4615(4) 0.2666(1)
N1 N 1.0826(3) 0.6669(4) 0.6720(1)
N2 N 0.9158(3) 0.5060(3) 0.5924(1)
N3 N 0.8067(3) 0.4864(3) 0.5342(1)
N4 N 0.4130(3) 0.5239(4) 0.3190(1)
C1 C 0.9658(3) 0.7000(4) 0.6147(1)
C2 C 1.1145(4) 0.4640(5) 0.6845(1)
C3 C 1.0045(4) 0.3426(4) 0.6317(2)
C4 C 0.7643(3) 0.3023(4) 0.5154(1)
C5 C 0.6490(4) 0.2736(4) 0.4545(1)
C6 C 0.4903(3) 0.3738(4) 0.3645(1)
C7 C 0.4812(4) 0.1669(4) 0.3631(1)
C8 C 0.5839(4) 0.1026(4) 0.4218(2)
H1 H 1.133(4) 0.764(6) 0.702(2)
H2 H 1.075(4) 0.266(5) 0.599(1)
H3 H 0.927(3) 0.262(4) 0.655(1)
H4 H 0.810(3) 0.173(4) 0.537(1)
H5 H 0.413(3) 0.096(4) 0.330(1)
H6 H 0.612(3) -0.029(5) 0.438(1)
O1 O 0.5795(3) 1.3634(3) 0.9092(1)
O2 O 0.2874(3) 0.8956(4) 0.7700(1)
O3 O 0.9091(2) 0.9465(3) 1.0810(1)
O4 O 1.0697(3) 1.2051(3) 1.1652(1)
O5 O 1.1712(3) 0.9615(4) 1.2334(1)
N1 N 0.4174(3) 1.1669(4) 0.8280(1)
N2 N 0.5842(3) 1.0060(3) 0.9076(1)
N3 N 0.6933(3) 0.9864(3) 0.9658(1)
N4 N 1.0870(3) 1.0239(4) 1.1810(1)
C1 C 0.5342(3) 1.2000(4) 0.8853(1)
C2 C 0.3855(4) 0.9640(5) 0.8155(1)
C3 C 0.4955(4) 0.8426(4) 0.8683(2)
C4 C 0.7357(3) 0.8023(4) 0.9846(1)
C5 C 0.8510(4) 0.7736(4) 1.0455(1)
C6 C 1.0097(3) 0.8738(4) 1.1355(1)
C7 C 1.0188(4) 0.6669(4) 1.1369(1)
C8 C 0.9161(4) 0.6026(4) 1.0782(2)
H1 H 0.367(4) 1.264(6) 0.798(2)
H2 H 0.425(4) 0.766(5) 0.901(1)
H3 H 0.573(3) 0.762(4) 0.845(1)
H4 H 0.690(3) 0.673(4) 0.963(1)
H5 H 1.087(3) 0.596(4) 1.170(1)
H6 H 0.888(3) 0.471(5) 1.062(1)

#END
