
#######################################################################
#
#                 Cambridge Crystallographic Data Centre
#                                CCDC 
#
#######################################################################
#
# If this CIF has been generated from an entry in the Cambridge 
# Structural Database, then it will include bibliographic, chemical, 
# crystal, experimental, refinement or atomic coordinate data resulting 
# from the CCDC's data processing and validation procedures.
#
#######################################################################

data_LABKOR
_symmetry_cell_setting           triclinic
_symmetry_space_group_name_H-M   'P -1'
_symmetry_Int_Tables_number      2
_space_group_name_Hall           '-P 1'
loop_
_symmetry_equiv_pos_site_id
_symmetry_equiv_pos_as_xyz
1 x,y,z
2 -x,-y,-z
_cell_length_a                   10.3132(11)
_cell_length_b                   12.5813(11)
_cell_length_c                   14.2170(13)
_cell_angle_alpha                95.914(7)
_cell_angle_beta                 107.501(9)
_cell_angle_gamma                98.169(8)
_cell_volume                     1720.58
loop_
_atom_site_label
_atom_site_type_symbol
_atom_site_fract_x
_atom_site_fract_y
_atom_site_fract_z
N1 N 0.5859(2) 0.36065(16) 0.24113(16)
N2 N 0.3958(2) 0.49746(16) 0.14339(18)
H1 H 0.456(3) 0.502(2) 0.204(2)
N3 N 0.4774(2) 0.65497(15) 0.32898(16)
N4 N 0.7362(2) 0.55092(16) 0.58705(16)
C1 C 0.6865(3) 0.30968(19) 0.2985(2)
C2 C 0.7072(3) 0.2188(2) 0.2362(2)
H2 H 0.7713 0.1717 0.2567
C3 C 0.6193(3) 0.2140(2) 0.1451(2)
H3 H 0.6088 0.1630 0.0880
C4 C 0.5417(3) 0.30233(19) 0.1493(2)
C5 C 0.4330(3) 0.32146(19) 0.0672(2)
C6 C 0.3649(3) 0.40993(18) 0.06730(19)
C7 C 0.2465(3) 0.4266(2) -0.0092(2)
H4 H 0.2018 0.3801 -0.0711
C8 C 0.2085(3) 0.5185(2) 0.0206(2)
H5 H 0.1318 0.5471 -0.0166
C9 C 0.3015(3) 0.56666(19) 0.1169(2)
C10 C 0.2983(3) 0.66413(19) 0.17228(19)
C11 C 0.3881(3) 0.70830(18) 0.2701(2)
C12 C 0.3988(3) 0.8184(2) 0.3201(2)
H6 H 0.3471 0.8716 0.2941
C13 C 0.4955(3) 0.8295(2) 0.4092(2)
H7 H 0.5269 0.8927 0.4584
C14 C 0.5442(3) 0.72589(19) 0.4169(2)
C15 C 0.6392(3) 0.70161(19) 0.5009(2)
C16 C 0.6865(3) 0.59975(19) 0.50080(19)
C17 C 0.6869(3) 0.52854(19) 0.4211(2)
H8 H 0.6582 0.5397 0.3534
C18 C 0.7367(3) 0.43604(19) 0.45554(19)
C19 C 0.7638(3) 0.4544(2) 0.5588(2)
H9 H 0.7972 0.4051 0.6027
C20 C 0.7521(3) 0.33928(19) 0.4003(2)
C21 C 0.3860(3) 0.23935(19) -0.0250(2)
C22 C 0.3420(3) 0.1300(2) -0.0214(2)
H10 H 0.3415 0.1081 0.0405
C23 C 0.2994(3) 0.0534(2) -0.1062(2)
H11 H 0.2692 -0.0204 -0.1021
C24 C 0.2999(3) 0.0828(2) -0.1975(2)
H12 H 0.2709 0.0297 -0.2558
C25 C 0.3433(3) 0.1906(2) -0.2024(2)
H13 H 0.3444 0.2116 -0.2644
C26 C 0.3850(3) 0.2682(2) -0.1177(2)
H14 H 0.4134 0.3420 -0.1226
C27 C 0.1921(3) 0.72810(19) 0.1232(2)
C28 C 0.1876(3) 0.7618(2) 0.0325(2)
H15 H 0.2539 0.7452 0.0019
C29 C 0.0873(3) 0.8196(2) -0.0142(2)
H16 H 0.0851 0.8417 -0.0765
C30 C -0.0082(3) 0.8446(2) 0.0298(2)
H17 H -0.0768 0.8838 -0.0022
C31 C -0.0046(3) 0.8127(2) 0.1210(2)
H18 H -0.0703 0.8306 0.1518
C32 C 0.0949(3) 0.7549(2) 0.1670(2)
H19 H 0.0968 0.7332 0.2294
C33 C 0.6902(3) 0.78451(18) 0.59319(19)
C34 C 0.5975(3) 0.8189(2) 0.6384(2)
H20 H 0.5014 0.7907 0.6090
C35 C 0.6427(3) 0.8932(2) 0.7249(2)
H21 H 0.5783 0.9150 0.7553
C36 C 0.7816(3) 0.9358(2) 0.7672(2)
H22 H 0.8130 0.9873 0.8267
C37 C 0.8760(3) 0.9036(2) 0.7231(2)
H23 H 0.9715 0.9340 0.7519
C38 C 0.8311(3) 0.8272(2) 0.6374(2)
H24 H 0.8961 0.8038 0.6085
C39 C 0.8380(3) 0.26839(19) 0.45961(19)
C40 C 0.9687(3) 0.3101(2) 0.5268(2)
H25 H 1.0065 0.3846 0.5317
C41 C 1.0459(3) 0.2458(2) 0.5871(2)
H26 H 1.1353 0.2763 0.6323
C42 C 0.9918(3) 0.1375(2) 0.5809(2)
H27 H 1.0433 0.0932 0.6224
C43 C 0.8629(3) 0.0940(2) 0.5143(2)
H28 H 0.8261 0.0194 0.5099
C44 C 0.7859(3) 0.1571(2) 0.4535(2)
H29 H 0.6976 0.1254 0.4074
C45 C 0.7357(3) 0.5804(2) 0.6895(2)
H30 H 0.6820 0.5187 0.7077
H31 H 0.6883 0.6432 0.6921
C46 C 0.8771(4) 0.6086(2) 0.7644(3)
H32 H 0.8817 0.6327 0.8311
C47 C 0.9952(4) 0.6042(3) 0.7495(3)
H33 H 0.9974 0.5808 0.6844
H34 H 1.0790 0.6245 0.8038
N1 N 0.4141(2) 0.63935(16) 0.75887(16)
N2 N 0.6042(2) 0.50254(16) 0.85661(18)
H1 H 0.544(3) 0.498(2) 0.796(2)
N3 N 0.5226(2) 0.34503(15) 0.67102(16)
N4 N 0.2638(2) 0.44908(16) 0.41295(16)
C1 C 0.3135(3) 0.69032(19) 0.7015(2)
C2 C 0.2928(3) 0.7812(2) 0.7638(2)
H2 H 0.2287 0.8283 0.7433
C3 C 0.3807(3) 0.7860(2) 0.8549(2)
H3 H 0.3912 0.8370 0.9120
C4 C 0.4583(3) 0.69767(19) 0.8507(2)
C5 C 0.5670(3) 0.67854(19) 0.9328(2)
C6 C 0.6351(3) 0.59007(18) 0.93270(19)
C7 C 0.7535(3) 0.5734(2) 1.0092(2)
H4 H 0.7982 0.6199 1.0711
C8 C 0.7915(3) 0.4815(2) 0.9794(2)
H5 H 0.8682 0.4529 1.0166
C9 C 0.6985(3) 0.43334(19) 0.8831(2)
C10 C 0.7017(3) 0.33587(19) 0.82772(19)
C11 C 0.6119(3) 0.29170(18) 0.7299(2)
C12 C 0.6012(3) 0.1816(2) 0.6799(2)
H6 H 0.6529 0.1284 0.7059
C13 C 0.5045(3) 0.1705(2) 0.5908(2)
H7 H 0.4731 0.1073 0.5416
C14 C 0.4558(3) 0.27411(19) 0.5831(2)
C15 C 0.3608(3) 0.29839(19) 0.4991(2)
C16 C 0.3135(3) 0.40025(19) 0.49920(19)
C17 C 0.3131(3) 0.47146(19) 0.5789(2)
H8 H 0.3418 0.4603 0.6466
C18 C 0.2633(3) 0.56396(19) 0.54446(19)
C19 C 0.2362(3) 0.5456(2) 0.4412(2)
H9 H 0.2028 0.5949 0.3973
C20 C 0.2479(3) 0.66072(19) 0.5997(2)
C21 C 0.6140(3) 0.76065(19) 1.0250(2)
C22 C 0.6580(3) 0.8700(2) 1.0214(2)
H10 H 0.6585 0.8919 0.9595
C23 C 0.7006(3) 0.9466(2) 1.1062(2)
H11 H 0.7308 1.0204 1.1021
C24 C 0.7001(3) 0.9172(2) 1.1975(2)
H12 H 0.7291 0.9703 1.2558
C25 C 0.6567(3) 0.8094(2) 1.2024(2)
H13 H 0.6556 0.7884 1.2644
C26 C 0.6150(3) 0.7318(2) 1.1177(2)
H14 H 0.5866 0.6580 1.1226
C27 C 0.8079(3) 0.27190(19) 0.8768(2)
C28 C 0.8124(3) 0.2382(2) 0.9675(2)
H15 H 0.7461 0.2548 0.9981
C29 C 0.9127(3) 0.1804(2) 1.0142(2)
H16 H 0.9149 0.1583 1.0765
C30 C 1.0082(3) 0.1554(2) 0.9702(2)
H17 H 1.0768 0.1162 1.0022
C31 C 1.0046(3) 0.1873(2) 0.8790(2)
H18 H 1.0703 0.1694 0.8482
C32 C 0.9051(3) 0.2451(2) 0.8330(2)
H19 H 0.9032 0.2668 0.7706
C33 C 0.3098(3) 0.21549(18) 0.40681(19)
C34 C 0.4025(3) 0.1811(2) 0.3616(2)
H20 H 0.4986 0.2093 0.3910
C35 C 0.3573(3) 0.1068(2) 0.2751(2)
H21 H 0.4217 0.0850 0.2447
C36 C 0.2184(3) 0.0642(2) 0.2328(2)
H22 H 0.1870 0.0127 0.1733
C37 C 0.1240(3) 0.0964(2) 0.2769(2)
H23 H 0.0285 0.0660 0.2481
C38 C 0.1689(3) 0.1728(2) 0.3626(2)
H24 H 0.1039 0.1962 0.3915
C39 C 0.1620(3) 0.73161(19) 0.54039(19)
C40 C 0.0313(3) 0.6899(2) 0.4732(2)
H25 H -0.0065 0.6154 0.4683
C41 C -0.0459(3) 0.7542(2) 0.4129(2)
H26 H -0.1353 0.7237 0.3677
C42 C 0.0082(3) 0.8625(2) 0.4191(2)
H27 H -0.0433 0.9068 0.3776
C43 C 0.1371(3) 0.9060(2) 0.4857(2)
H28 H 0.1739 0.9806 0.4901
C44 C 0.2141(3) 0.8429(2) 0.5465(2)
H29 H 0.3024 0.8746 0.5926
C45 C 0.2643(3) 0.4196(2) 0.3105(2)
H30 H 0.3180 0.4813 0.2923
H31 H 0.3117 0.3568 0.3079
C46 C 0.1229(4) 0.3914(2) 0.2356(3)
H32 H 0.1183 0.3673 0.1689
C47 C 0.0048(4) 0.3958(3) 0.2505(3)
H33 H 0.0026 0.4192 0.3156
H34 H -0.0790 0.3755 0.1962

#END
