
#######################################################################
#
#                 Cambridge Crystallographic Data Centre
#                                CCDC 
#
#######################################################################
#
# If this CIF has been generated from an entry in the Cambridge 
# Structural Database, then it will include bibliographic, chemical, 
# crystal, experimental, refinement or atomic coordinate data resulting 
# from the CCDC's data processing and validation procedures.
#
#######################################################################

data_LABLOP
_symmetry_cell_setting           orthorhombic
_symmetry_space_group_name_H-M   'P b c a'
_symmetry_Int_Tables_number      61
_space_group_name_Hall           '-P 2ac 2ab'
loop_
_symmetry_equiv_pos_site_id
_symmetry_equiv_pos_as_xyz
1 x,y,z
2 1/2-x,1/2+y,z
3 x,1/2-y,1/2+z
4 1/2-x,-y,1/2+z
5 -x,-y,-z
6 1/2+x,1/2-y,-z
7 -x,1/2+y,1/2-z
8 1/2+x,y,1/2-z
_cell_length_a                   6.962(4)
_cell_length_b                   13.754(7)
_cell_length_c                   22.974(12)
_cell_angle_alpha                90
_cell_angle_beta                 90
_cell_angle_gamma                90
_cell_volume                     2199.88
loop_
_atom_site_label
_atom_site_type_symbol
_atom_site_fract_x
_atom_site_fract_y
_atom_site_fract_z
N1 N 0.0352(4) 0.7429(2) 0.3008(1)
C1 C 0.0095(5) 0.7834(2) 0.2457(2)
N2 N 0.0523(5) 0.7263(2) 0.2032(1)
C2 C 0.1086(5) 0.6425(2) 0.2309(1)
C3 C 0.1012(5) 0.6505(2) 0.2916(1)
C4 C -0.0110(6) 0.7945(2) 0.3545(1)
N3 N 0.1627(4) 0.5602(2) 0.2005(1)
O1 O 0.1553(4) 0.5592(2) 0.1465(1)
O2 O 0.2221(4) 0.4876(2) 0.2292(1)
N4 N 0.1440(4) 0.5830(2) 0.3312(1)
C5 C 0.1393(6) 0.5894(2) 0.3939(2)
C6 C 0.1454(5) 0.4907(2) 0.4221(1)
C7 C 0.0393(6) 0.4141(2) 0.4017(1)
C8 C 0.0408(6) 0.3252(2) 0.4300(1)
C9 C 0.1464(6) 0.3144(2) 0.4803(1)
C10 C 0.2503(6) 0.3903(3) 0.5013(1)
C11 C 0.2514(6) 0.4783(3) 0.4726(1)
H1 H -0.121(5) 0.760(2) 0.376(1)
H2 H 0.091(5) 0.791(2) 0.382(1)
H3 H -0.061(5) 0.856(2) 0.346(1)
H4 H -0.039(5) 0.850(2) 0.245(1)
H5 H 0.189(4) 0.531(2) 0.316(1)
H6 H 0.240(5) 0.629(2) 0.406(1)
H7 H 0.014(4) 0.616(2) 0.405(1)
H8 H -0.026(4) 0.420(2) 0.368(1)
H9 H -0.040(5) 0.274(2) 0.417(1)
H10 H 0.148(5) 0.249(2) 0.501(1)
H11 H 0.326(5) 0.386(2) 0.533(1)
H12 H 0.325(4) 0.531(2) 0.486(1)
N1 N 0.4648(4) 0.2429(2) 0.3008(1)
C1 C 0.4905(5) 0.2834(2) 0.2457(2)
N2 N 0.4477(5) 0.2263(2) 0.2032(1)
C2 C 0.3914(5) 0.1425(2) 0.2309(1)
C3 C 0.3988(5) 0.1505(2) 0.2916(1)
C4 C 0.5110(6) 0.2945(2) 0.3545(1)
N3 N 0.3373(4) 0.0602(2) 0.2005(1)
O1 O 0.3447(4) 0.0592(2) 0.1465(1)
O2 O 0.2779(4) -0.0124(2) 0.2292(1)
N4 N 0.3560(4) 0.0830(2) 0.3312(1)
C5 C 0.3607(6) 0.0894(2) 0.3939(2)
C6 C 0.3546(5) -0.0093(2) 0.4221(1)
C7 C 0.4607(6) -0.0859(2) 0.4017(1)
C8 C 0.4592(6) -0.1748(2) 0.4300(1)
C9 C 0.3536(6) -0.1856(2) 0.4803(1)
C10 C 0.2497(6) -0.1097(3) 0.5013(1)
C11 C 0.2486(6) -0.0217(3) 0.4726(1)
H1 H 0.621(5) 0.260(2) 0.376(1)
H2 H 0.409(5) 0.291(2) 0.382(1)
H3 H 0.561(5) 0.356(2) 0.346(1)
H4 H 0.539(5) 0.350(2) 0.245(1)
H5 H 0.311(4) 0.031(2) 0.316(1)
H6 H 0.260(5) 0.129(2) 0.406(1)
H7 H 0.486(4) 0.116(2) 0.405(1)
H8 H 0.526(4) -0.080(2) 0.368(1)
H9 H 0.540(5) -0.226(2) 0.417(1)
H10 H 0.352(5) -0.251(2) 0.501(1)
H11 H 0.174(5) -0.114(2) 0.533(1)
H12 H 0.175(4) 0.031(2) 0.486(1)
N1 N 0.0352(4) 0.7571(2) 0.8008(1)
C1 C 0.0095(5) 0.7166(2) 0.7457(2)
N2 N 0.0523(5) 0.7737(2) 0.7032(1)
C2 C 0.1086(5) 0.8575(2) 0.7309(1)
C3 C 0.1012(5) 0.8495(2) 0.7916(1)
C4 C -0.0110(6) 0.7055(2) 0.8545(1)
N3 N 0.1627(4) 0.9398(2) 0.7005(1)
O1 O 0.1553(4) 0.9408(2) 0.6465(1)
O2 O 0.2221(4) 1.0124(2) 0.7292(1)
N4 N 0.1440(4) 0.9170(2) 0.8312(1)
C5 C 0.1393(6) 0.9106(2) 0.8939(2)
C6 C 0.1454(5) 1.0093(2) 0.9221(1)
C7 C 0.0393(6) 1.0859(2) 0.9017(1)
C8 C 0.0408(6) 1.1748(2) 0.9300(1)
C9 C 0.1464(6) 1.1856(2) 0.9803(1)
C10 C 0.2503(6) 1.1097(3) 1.0013(1)
C11 C 0.2514(6) 1.0217(3) 0.9726(1)
H1 H -0.121(5) 0.740(2) 0.876(1)
H2 H 0.091(5) 0.709(2) 0.882(1)
H3 H -0.061(5) 0.644(2) 0.846(1)
H4 H -0.039(5) 0.650(2) 0.745(1)
H5 H 0.189(4) 0.969(2) 0.816(1)
H6 H 0.240(5) 0.871(2) 0.906(1)
H7 H 0.014(4) 0.884(2) 0.905(1)
H8 H -0.026(4) 1.080(2) 0.868(1)
H9 H -0.040(5) 1.226(2) 0.917(1)
H10 H 0.148(5) 1.251(2) 1.001(1)
H11 H 0.326(5) 1.114(2) 1.033(1)
H12 H 0.325(4) 0.969(2) 0.986(1)
N1 N 0.4648(4) 0.2571(2) 0.8008(1)
C1 C 0.4905(5) 0.2166(2) 0.7457(2)
N2 N 0.4477(5) 0.2737(2) 0.7032(1)
C2 C 0.3914(5) 0.3575(2) 0.7309(1)
C3 C 0.3988(5) 0.3495(2) 0.7916(1)
C4 C 0.5110(6) 0.2055(2) 0.8545(1)
N3 N 0.3373(4) 0.4398(2) 0.7005(1)
O1 O 0.3447(4) 0.4408(2) 0.6465(1)
O2 O 0.2779(4) 0.5124(2) 0.7292(1)
N4 N 0.3560(4) 0.4170(2) 0.8312(1)
C5 C 0.3607(6) 0.4106(2) 0.8939(2)
C6 C 0.3546(5) 0.5093(2) 0.9221(1)
C7 C 0.4607(6) 0.5859(2) 0.9017(1)
C8 C 0.4592(6) 0.6748(2) 0.9300(1)
C9 C 0.3536(6) 0.6856(2) 0.9803(1)
C10 C 0.2497(6) 0.6097(3) 1.0013(1)
C11 C 0.2486(6) 0.5217(3) 0.9726(1)
H1 H 0.621(5) 0.240(2) 0.876(1)
H2 H 0.409(5) 0.209(2) 0.882(1)
H3 H 0.561(5) 0.144(2) 0.846(1)
H4 H 0.539(5) 0.150(2) 0.745(1)
H5 H 0.311(4) 0.469(2) 0.816(1)
H6 H 0.260(5) 0.371(2) 0.906(1)
H7 H 0.486(4) 0.384(2) 0.905(1)
H8 H 0.526(4) 0.580(2) 0.868(1)
H9 H 0.540(5) 0.726(2) 0.917(1)
H10 H 0.352(5) 0.751(2) 1.001(1)
H11 H 0.174(5) 0.614(2) 1.033(1)
H12 H 0.175(4) 0.469(2) 0.986(1)
N1 N 0.9648(4) 0.2571(2) 0.6992(1)
C1 C 0.9905(5) 0.2166(2) 0.7543(2)
N2 N 0.9477(5) 0.2737(2) 0.7968(1)
C2 C 0.8914(5) 0.3575(2) 0.7691(1)
C3 C 0.8988(5) 0.3495(2) 0.7084(1)
C4 C 1.0110(6) 0.2055(2) 0.6455(1)
N3 N 0.8373(4) 0.4398(2) 0.7995(1)
O1 O 0.8447(4) 0.4408(2) 0.8535(1)
O2 O 0.7779(4) 0.5124(2) 0.7708(1)
N4 N 0.8560(4) 0.4170(2) 0.6688(1)
C5 C 0.8607(6) 0.4106(2) 0.6061(2)
C6 C 0.8546(5) 0.5093(2) 0.5779(1)
C7 C 0.9607(6) 0.5859(2) 0.5983(1)
C8 C 0.9592(6) 0.6748(2) 0.5700(1)
C9 C 0.8536(6) 0.6856(2) 0.5197(1)
C10 C 0.7497(6) 0.6097(3) 0.4987(1)
C11 C 0.7486(6) 0.5217(3) 0.5274(1)
H1 H 1.121(5) 0.240(2) 0.624(1)
H2 H 0.909(5) 0.209(2) 0.618(1)
H3 H 1.061(5) 0.144(2) 0.654(1)
H4 H 1.039(5) 0.150(2) 0.755(1)
H5 H 0.811(4) 0.469(2) 0.684(1)
H6 H 0.760(5) 0.371(2) 0.594(1)
H7 H 0.986(4) 0.384(2) 0.595(1)
H8 H 1.026(4) 0.580(2) 0.632(1)
H9 H 1.040(5) 0.726(2) 0.583(1)
H10 H 0.852(5) 0.751(2) 0.499(1)
H11 H 0.674(5) 0.614(2) 0.467(1)
H12 H 0.675(4) 0.469(2) 0.514(1)
N1 N 0.5352(4) 0.7571(2) 0.6992(1)
C1 C 0.5095(5) 0.7166(2) 0.7543(2)
N2 N 0.5523(5) 0.7737(2) 0.7968(1)
C2 C 0.6086(5) 0.8575(2) 0.7691(1)
C3 C 0.6012(5) 0.8495(2) 0.7084(1)
C4 C 0.4890(6) 0.7055(2) 0.6455(1)
N3 N 0.6627(4) 0.9398(2) 0.7995(1)
O1 O 0.6553(4) 0.9408(2) 0.8535(1)
O2 O 0.7221(4) 1.0124(2) 0.7708(1)
N4 N 0.6440(4) 0.9170(2) 0.6688(1)
C5 C 0.6393(6) 0.9106(2) 0.6061(2)
C6 C 0.6454(5) 1.0093(2) 0.5779(1)
C7 C 0.5393(6) 1.0859(2) 0.5983(1)
C8 C 0.5408(6) 1.1748(2) 0.5700(1)
C9 C 0.6464(6) 1.1856(2) 0.5197(1)
C10 C 0.7503(6) 1.1097(3) 0.4987(1)
C11 C 0.7514(6) 1.0217(3) 0.5274(1)
H1 H 0.379(5) 0.740(2) 0.624(1)
H2 H 0.591(5) 0.709(2) 0.618(1)
H3 H 0.439(5) 0.644(2) 0.654(1)
H4 H 0.461(5) 0.650(2) 0.755(1)
H5 H 0.689(4) 0.969(2) 0.684(1)
H6 H 0.740(5) 0.871(2) 0.594(1)
H7 H 0.514(4) 0.884(2) 0.595(1)
H8 H 0.474(4) 1.080(2) 0.632(1)
H9 H 0.460(5) 1.226(2) 0.583(1)
H10 H 0.648(5) 1.251(2) 0.499(1)
H11 H 0.826(5) 1.114(2) 0.467(1)
H12 H 0.825(4) 0.969(2) 0.514(1)
N1 N 0.9648(4) 0.2429(2) 0.1992(1)
C1 C 0.9905(5) 0.2834(2) 0.2543(2)
N2 N 0.9477(5) 0.2263(2) 0.2968(1)
C2 C 0.8914(5) 0.1425(2) 0.2691(1)
C3 C 0.8988(5) 0.1505(2) 0.2084(1)
C4 C 1.0110(6) 0.2945(2) 0.1455(1)
N3 N 0.8373(4) 0.0602(2) 0.2995(1)
O1 O 0.8447(4) 0.0592(2) 0.3535(1)
O2 O 0.7779(4) -0.0124(2) 0.2708(1)
N4 N 0.8560(4) 0.0830(2) 0.1688(1)
C5 C 0.8607(6) 0.0894(2) 0.1061(2)
C6 C 0.8546(5) -0.0093(2) 0.0779(1)
C7 C 0.9607(6) -0.0859(2) 0.0983(1)
C8 C 0.9592(6) -0.1748(2) 0.0700(1)
C9 C 0.8536(6) -0.1856(2) 0.0197(1)
C10 C 0.7497(6) -0.1097(3) -0.0013(1)
C11 C 0.7486(6) -0.0217(3) 0.0274(1)
H1 H 1.121(5) 0.260(2) 0.124(1)
H2 H 0.909(5) 0.291(2) 0.118(1)
H3 H 1.061(5) 0.356(2) 0.154(1)
H4 H 1.039(5) 0.350(2) 0.255(1)
H5 H 0.811(4) 0.031(2) 0.184(1)
H6 H 0.760(5) 0.129(2) 0.094(1)
H7 H 0.986(4) 0.116(2) 0.095(1)
H8 H 1.026(4) -0.080(2) 0.132(1)
H9 H 1.040(5) -0.226(2) 0.083(1)
H10 H 0.852(5) -0.251(2) -0.001(1)
H11 H 0.674(5) -0.114(2) -0.033(1)
H12 H 0.675(4) 0.031(2) 0.014(1)
N1 N 0.5352(4) 0.7429(2) 0.1992(1)
C1 C 0.5095(5) 0.7834(2) 0.2543(2)
N2 N 0.5523(5) 0.7263(2) 0.2968(1)
C2 C 0.6086(5) 0.6425(2) 0.2691(1)
C3 C 0.6012(5) 0.6505(2) 0.2084(1)
C4 C 0.4890(6) 0.7945(2) 0.1455(1)
N3 N 0.6627(4) 0.5602(2) 0.2995(1)
O1 O 0.6553(4) 0.5592(2) 0.3535(1)
O2 O 0.7221(4) 0.4876(2) 0.2708(1)
N4 N 0.6440(4) 0.5830(2) 0.1688(1)
C5 C 0.6393(6) 0.5894(2) 0.1061(2)
C6 C 0.6454(5) 0.4907(2) 0.0779(1)
C7 C 0.5393(6) 0.4141(2) 0.0983(1)
C8 C 0.5408(6) 0.3252(2) 0.0700(1)
C9 C 0.6464(6) 0.3144(2) 0.0197(1)
C10 C 0.7503(6) 0.3903(3) -0.0013(1)
C11 C 0.7514(6) 0.4783(3) 0.0274(1)
H1 H 0.379(5) 0.760(2) 0.124(1)
H2 H 0.591(5) 0.791(2) 0.118(1)
H3 H 0.439(5) 0.856(2) 0.154(1)
H4 H 0.461(5) 0.850(2) 0.255(1)
H5 H 0.689(4) 0.531(2) 0.184(1)
H6 H 0.740(5) 0.629(2) 0.094(1)
H7 H 0.514(4) 0.616(2) 0.095(1)
H8 H 0.474(4) 0.420(2) 0.132(1)
H9 H 0.460(5) 0.274(2) 0.083(1)
H10 H 0.648(5) 0.249(2) -0.001(1)
H11 H 0.826(5) 0.386(2) -0.033(1)
H12 H 0.825(4) 0.531(2) 0.014(1)

#END
