./LABMEJ_from_POSCAR.cif_generated_by_CrystalShift
_symmetry_cell_setting triclinic
_symmetry_space_group_name_H-M 'P 1'
loop_
_symmetry_equiv_pos_site_id
_symmetry_equiv_pos_as_xyz
1 x,y,z
_cell_length_a 7.617100
_cell_length_b 21.660000
_cell_length_c 13.267000
_cell_angle_alpha 90.000000
_cell_angle_beta 101.311000
_cell_angle_gamma 90.000000
_cell_volume 2146.359923
loop_
_atom_site_label
_atom_site_type_symbol
_atom_site_fract_x
_atom_site_fract_y
_atom_site_fract_z
H1 H 0.140800 0.880200 1.539100
H2 H 0.037200 1.048100 1.277400
H3 H 0.142500 0.982500 1.493500
H4 H -0.107600 0.796000 0.961400
H5 H -0.148100 0.867200 0.953900
H6 H 0.383200 0.399900 0.443600
H7 H 0.376900 0.852600 0.707400
H8 H 0.232100 0.498200 0.329100
H9 H 0.195600 0.832300 1.257600
H10 H 0.326200 1.089600 0.542600
H11 H 0.287800 1.089000 1.225700
H12 H 0.297400 0.461500 0.190000
H13 H 0.410800 1.038600 1.289000
H14 H 0.435000 1.246000 0.701800
H15 H -0.010200 0.843400 1.123000
H16 H 0.152200 0.813400 1.084500
H17 H 0.409900 0.916800 0.848600
H18 H 0.412200 0.305900 0.350300
H19 H 0.412200 1.194100 0.850300
H20 H 0.409900 0.583200 0.348600
H21 H 0.297400 1.038500 0.690000
H22 H 0.152200 0.686600 0.584500
H23 H -0.010200 0.656600 0.623000
H24 H 0.232100 1.001800 0.829100
H25 H 0.435000 0.254000 0.201800
H26 H 0.383200 1.100100 0.943600
H27 H 0.410800 0.461400 0.789000
H28 H 0.287800 0.411000 0.725700
H29 H 0.859200 0.380200 -0.039100
H30 H 0.832500 0.305200 0.079700
H31 H 0.326200 0.410400 0.042600
H32 H 0.863300 0.286000 0.827200
H33 H 0.816800 0.562300 0.123900
H34 H 0.195600 0.667700 0.757600
H35 H 0.962800 0.548100 0.222600
H36 H 0.376900 0.647400 0.207400
H37 H 1.053200 0.276300 0.713400
H38 H 0.183200 1.062300 1.376100
H39 H -0.148100 0.632800 0.453900
H40 H -0.107600 0.704000 0.461400
H41 H 0.857500 0.482500 0.006500
H42 H 0.142500 0.517500 0.993500
H43 H 1.107600 0.296000 0.538600
H44 H 0.167500 0.805200 1.420300
H45 H 1.148100 0.367200 0.546100
H46 H -0.053200 0.723700 0.286600
H47 H 0.623100 0.352600 0.792600
H48 H 0.037200 0.451900 0.777400
H49 H 0.183200 0.437700 0.876100
H50 H 0.804400 0.332300 0.242400
H51 H 0.136700 0.714000 0.172800
H52 H 0.673800 0.589600 0.957400
H53 H 0.167500 0.694800 0.920300
H54 H 0.712200 0.589000 0.274300
H55 H 0.140800 0.619800 1.039100
H56 H 0.589200 0.538600 0.211000
H57 H 0.565000 0.746000 0.798200
H58 H 1.010200 0.343400 0.377000
H59 H 0.847800 0.313400 0.415500
H60 H 0.590100 0.416800 0.651400
H61 H 0.616800 -0.100100 0.056400
H62 H 0.587800 0.694100 0.649700
H63 H 0.767900 -0.001800 0.170900
H64 H 0.702600 0.538500 0.810000
H65 H 0.767900 0.501800 0.670900
H66 H 0.616800 0.600100 0.556400
H67 H 0.702600 -0.038500 0.310000
H68 H 0.859200 0.119800 -0.539100
H69 H 0.832500 0.194800 -0.420300
H70 H 0.863300 0.214000 0.327200
H71 H 0.816800 -0.062300 -0.376100
H72 H 0.962800 -0.048100 -0.277400
H73 H 0.587800 -0.194100 0.149700
H74 H 1.053200 0.223700 0.213400
H75 H 0.590100 0.083200 0.151400
H76 H 0.136700 0.786000 0.672800
H77 H 0.847800 0.186600 -0.084500
H78 H 1.010200 0.156600 -0.123000
H79 H 0.857500 0.017500 -0.493500
H80 H 0.565000 -0.246000 0.298200
H81 H 1.107600 0.204000 0.038600
H82 H 0.589200 -0.038600 -0.289000
H83 H 0.712200 -0.089000 -0.225700
H84 H 1.148100 0.132800 0.046100
H85 H 0.623100 0.147400 0.292600
H86 H 0.673800 -0.089600 0.457400
H87 H 0.804400 0.167700 -0.257600
H88 H -0.053200 0.776300 0.786600
C89 C 0.038800 0.805230 0.799000
C90 C 0.705100 0.149030 0.249100
C91 C 0.657500 -0.110580 0.395100
C92 C 0.843600 0.030120 -0.345200
C93 C 1.053100 0.163320 0.034500
C94 C 0.809000 0.111910 0.099640
C95 C 0.707900 -0.046430 -0.248900
C96 C 0.851200 0.047700 -0.444600
C97 C 0.591600 -0.204090 0.300100
C98 C 0.166200 0.846620 1.401900
C99 C 0.936500 0.154010 -0.071200
C100 C 0.961200 0.194770 0.201000
C101 C 0.686200 0.110520 0.164900
C102 C 0.845000 -0.036660 -0.315100
C103 C 0.606500 -0.172830 0.211800
C104 C 0.616500 -0.172270 0.390300
C105 C 0.845900 0.189730 0.268300
C106 C 0.828200 0.075750 -0.271840
C107 C 0.833800 0.153380 -0.401900
C108 C 0.843100 0.092180 -0.079150
C109 C 0.849600 0.108850 -0.472600
C110 C 0.941700 0.157220 0.115000
C111 C 0.155000 1.036660 1.315100
C112 C 0.648700 0.610500 0.712910
C113 C 0.743400 0.492180 0.514810
C114 C 0.742900 0.504150 0.342330
C115 C 0.660200 0.579140 0.617410
C116 C 0.673900 -0.080290 0.306900
C117 C 0.727400 0.523100 0.609950
C118 C 0.797700 0.069430 0.011360
C119 C 0.808000 0.444170 0.332070
C120 C 0.797700 0.430570 0.511360
C121 C 0.673900 0.580290 0.806900
C122 C 0.808000 0.055830 -0.167930
C123 C 0.941700 0.342780 0.615000
C124 C 0.843100 0.407820 0.420850
C125 C 0.828200 0.424250 0.228160
C126 C 0.616500 0.672270 0.890300
C127 C 0.606500 0.672830 0.711800
C128 C 0.727400 -0.023100 0.109950
C129 C 0.686200 0.389480 0.664900
C130 C 0.660200 -0.079140 0.117410
C131 C 0.936500 0.345990 0.428800
C132 C 0.742900 -0.004150 -0.157670
C133 C 0.743400 0.007820 0.014810
C134 C 0.591600 0.704090 0.800100
C135 C 0.648700 -0.110500 0.212910
C136 C 0.707900 0.546430 0.251100
C137 C 0.351300 0.389500 0.287090
C138 C 0.150400 0.608850 0.972600
C139 C 0.809000 0.388090 0.599640
C140 C 0.657500 0.610580 0.895100
C141 C 0.166200 0.653380 0.901900
C142 C 0.256600 0.507820 0.485190
C143 C 0.819900 0.363030 0.196000
C144 C 0.154100 0.689730 0.231700
C145 C 0.705100 0.350970 0.749100
C146 C 0.155000 0.463340 0.815100
C147 C 0.843600 0.469880 0.154800
C148 C 1.053100 0.336680 0.534500
C149 C 0.038800 0.694770 0.299000
C150 C 0.150400 0.891150 1.472600
C151 C 0.851200 0.452300 0.055400
C152 C 0.148800 0.547700 0.944600
C153 C 0.154100 0.810270 0.731700
C154 C -0.053100 0.663320 0.465500
C155 C 0.961200 0.305230 0.701000
C156 C 0.156400 0.530120 0.845200
C157 C 0.845000 0.536660 0.184900
C158 C 0.294900 0.649030 0.250900
C159 C 0.180100 0.636970 0.804000
C160 C 0.845900 0.310270 0.768300
C161 C 0.148800 0.952300 1.444600
C162 C 0.833800 0.346620 0.098100
C163 C 0.342500 0.389420 0.104900
C164 C 0.849600 0.391150 0.027400
C165 C 0.191000 0.611910 0.400360
C166 C 0.257100 0.495850 0.657670
C167 C 0.351300 1.110500 0.787090
C168 C 0.256600 0.992180 0.985190
C169 C 0.257100 1.004150 1.157670
C170 C 0.339800 1.079140 0.882590
C171 C 0.292100 0.453570 0.748900
C172 C 0.272600 1.023100 0.890050
C173 C 0.408400 0.295910 0.199900
C174 C 0.192000 0.944170 1.167930
C175 C 0.202300 0.930570 0.988640
C176 C 0.326100 1.080290 0.693100
C177 C 0.063500 0.654010 0.571200
C178 C 0.058300 0.842780 0.885000
C179 C 0.156900 0.907820 1.079150
C180 C 0.171800 0.924250 1.271840
C181 C 0.383500 1.172270 0.609700
C182 C 0.393500 1.172830 0.788200
C183 C 0.313800 0.610520 0.335100
C184 C 0.313800 0.889480 0.835100
C185 C 0.393500 0.327170 0.288200
C186 C 0.063500 0.845990 1.071200
C187 C 0.383500 0.327730 0.109700
C188 C 0.171800 0.575750 0.771840
C189 C 0.408400 1.204090 0.699900
C190 C 0.156900 0.592180 0.579150
C191 C 0.292100 1.046430 1.248900
C192 C 0.058300 0.657220 0.385000
C193 C 0.326100 0.419710 0.193100
C194 C 0.191000 0.888090 0.900360
C195 C 0.342500 1.110580 0.604900
C196 C 0.202300 0.569430 0.488640
C197 C 0.339800 0.420860 0.382590
C198 C 0.180100 0.863030 1.304000
C199 C 0.192000 0.555830 0.667930
C200 C 0.294900 0.850970 0.750900
C201 C 0.272600 0.476900 0.390050
C202 C 0.156400 0.969880 1.345200
C203 C -0.053100 0.836680 0.965500
C204 C 0.819900 0.136970 -0.304000
N205 N 0.406800 0.296010 0.016500
N206 N 0.593200 0.703990 0.983500
N207 N 0.716700 -0.028030 -0.069850
N208 N 0.716700 0.528030 0.430150
N209 N 0.593200 -0.203990 0.483500
N210 N 0.283300 1.028030 1.069850
N211 N 0.406800 1.203990 0.516500
N212 N 0.283300 0.471970 0.569850
O213 O 0.463000 1.256840 0.524400
O214 O 0.625300 0.676380 1.065000
O215 O 0.537000 0.756840 0.975600
O216 O 0.625300 -0.176380 0.565000
O217 O 0.537000 -0.256840 0.475600
O218 O 0.374700 0.323620 -0.065000
O219 O 0.463000 0.243160 0.024400
O220 O 0.374700 1.176380 0.435000

#END
