./LABMEH_from_POSCAR.cif_generated_by_CrystalShift
_symmetry_cell_setting triclinic
_symmetry_space_group_name_H-M 'P 1'
loop_
_symmetry_equiv_pos_site_id
_symmetry_equiv_pos_as_xyz
1 x,y,z
_cell_length_a 13.724400
_cell_length_b 23.829000
_cell_length_c 16.401300
_cell_angle_alpha 90.000000
_cell_angle_beta 91.404000
_cell_angle_gamma 90.000000
_cell_volume 5362.249954
loop_
_atom_site_label
_atom_site_type_symbol
_atom_site_fract_x
_atom_site_fract_y
_atom_site_fract_z
H1 H 0.865100 0.432400 0.653400
H2 H 0.911200 0.410900 0.570300
H3 H 1.031900 0.417900 0.670700
H4 H 1.052000 0.461200 0.598400
H5 H 0.861500 0.593200 0.906700
H6 H 0.861900 0.527200 0.925000
H7 H 0.894600 0.570600 0.995000
H8 H 1.037400 0.529100 0.938800
H9 H 1.036500 0.595100 0.919300
H10 H 0.365100 1.067600 0.153400
H11 H 0.385000 1.024200 0.081300
H12 H 0.411200 1.089100 0.070300
H13 H 0.267500 0.149300 0.152500
H14 H 0.287600 0.214400 0.135300
H15 H 0.531900 1.082100 0.170700
H16 H 0.142100 0.185800 0.068200
H17 H 0.118500 0.232300 0.135300
H18 H 0.098000 0.167400 0.153600
H19 H 0.552000 1.038800 0.098400
H20 H 0.287900 0.179500 0.506300
H21 H 0.282700 0.119900 0.461400
H22 H 0.361500 0.906800 0.406700
H23 H 0.150500 0.130000 0.548700
H24 H 0.111300 0.125100 0.456200
H25 H 0.115900 0.185100 0.500200
H26 H 0.361900 0.972800 0.425000
H27 H 0.394600 0.929400 0.495000
H28 H 0.537400 0.970900 0.438800
H29 H 0.536500 0.904900 0.419300
H30 H 0.134900 0.567600 0.346600
H31 H 0.115000 0.524200 0.418700
H32 H 0.088800 0.589100 0.429700
H33 H -0.031900 0.582100 0.329300
H34 H -0.052000 0.538800 0.401600
H35 H 0.138500 0.406800 0.093300
H36 H 0.138100 0.472800 0.075000
H37 H 0.105400 0.429400 0.005000
H38 H 0.767500 0.350700 0.652500
H39 H 0.787600 0.285600 0.635300
H40 H -0.037400 0.470900 0.061200
H41 H 0.642100 0.314200 0.568200
H42 H 0.618500 0.267700 0.635300
H43 H 0.598000 0.332600 0.653600
H44 H -0.036500 0.404900 0.080700
H45 H 0.787900 0.320500 1.006300
H46 H 0.782700 0.380100 0.961400
H47 H 0.634900 -0.067600 0.846600
H48 H 0.650500 0.370000 1.048700
H49 H 0.611300 0.374900 0.956200
H50 H 0.615900 0.314900 1.000200
H51 H 0.615000 -0.024200 0.918700
H52 H 0.588800 -0.089100 0.929700
H53 H 0.468100 -0.082100 0.829300
H54 H 0.448000 -0.038800 0.901600
H55 H 0.638500 0.093200 0.593300
H56 H 0.638100 0.027200 0.575000
H57 H 0.605400 0.070600 0.505000
H58 H 0.462600 0.029100 0.561200
H59 H 0.463500 0.095100 0.580700
H60 H 0.096100 0.849700 0.828800
H61 H 0.112900 0.788400 0.866600
H62 H 0.131300 0.842900 0.922100
H63 H 0.732500 0.850700 0.847500
H64 H 0.712400 0.785600 0.864700
H65 H 0.282300 0.807100 0.880600
H66 H 0.857900 0.814200 0.931800
H67 H 0.881500 0.767700 0.864700
H68 H 0.902000 0.832600 0.846400
H69 H 0.264900 0.868100 0.841300
H70 H 0.712100 0.820500 0.493700
H71 H 0.717300 0.880100 0.538600
H72 H 0.126600 0.790400 0.501800
H73 H 0.849500 0.870000 0.451300
H74 H 0.888700 0.874900 0.543800
H75 H 0.884100 0.814900 0.499800
H76 H 0.134700 0.854800 0.528900
H77 H 0.173700 0.835500 0.442100
H78 H 0.306300 0.847100 0.532600
H79 H 0.297200 0.782500 0.507200
H80 H 0.596100 0.650300 0.328800
H81 H 0.612900 0.711600 0.366600
H82 H 0.631300 0.657100 0.422100
H83 H 0.782300 0.692900 0.380600
H84 H 0.764900 0.631900 0.341300
H85 H 0.626600 0.709600 0.001800
H86 H 0.634700 0.645200 0.028900
H87 H 0.673700 0.664500 -0.057900
H88 H 0.232500 0.649300 0.347500
H89 H 0.212400 0.714400 0.364700
H90 H 0.806300 0.652900 0.032600
H91 H 0.357900 0.685800 0.431800
H92 H 0.381500 0.732300 0.364700
H93 H 0.402000 0.667400 0.346400
H94 H 0.797200 0.717500 0.007200
H95 H 0.212100 0.679500 -0.006300
H96 H 0.217300 0.619900 0.038600
H97 H 0.903900 0.150300 0.171200
H98 H 0.349500 0.630000 -0.048700
H99 H 0.388700 0.625100 0.043800
H100 H 0.384100 0.685100 -0.000200
H101 H 0.887100 0.211600 0.133400
H102 H 0.868700 0.157100 0.077900
H103 H 0.717700 0.192900 0.119400
H104 H 0.735100 0.131900 0.158700
H105 H 0.873400 0.209600 0.498200
H106 H 0.865300 0.145200 0.471100
H107 H 0.826300 0.164500 0.557900
H108 H 0.693700 0.152900 0.467400
H109 H 0.702800 0.217500 0.492800
H110 H 0.403900 0.349700 0.671200
H111 H 0.387100 0.288400 0.633400
H112 H 0.368700 0.342900 0.577900
H113 H 0.494900 0.418200 0.068400
H114 H 0.519800 0.483900 0.066700
H115 H 0.217700 0.307100 0.619400
H116 H 0.363100 0.468700 0.005800
H117 H 0.351500 0.505000 0.087100
H118 H 0.327100 0.439400 0.087400
H119 H 0.235100 0.368100 0.658700
H120 H 0.554700 0.552100 0.369000
H121 H 0.541300 0.498800 0.427400
H122 H 0.373400 0.290400 0.998200
H123 H 0.419100 0.566000 0.452400
H124 H 0.370000 0.509700 0.417300
H125 H 0.383300 0.562800 0.358900
H126 H 0.365300 0.354800 0.971100
H127 H 0.326300 0.335500 1.057900
H128 H 0.193700 0.347100 0.967400
H129 H 0.202800 0.282500 0.992800
H130 H 0.116700 1.062800 0.141100
H131 H 0.130000 1.009700 0.082700
H132 H 0.080900 1.066000 0.047600
H133 H -0.041300 0.998800 0.072600
H134 H -0.054700 1.052100 0.131000
H135 H 0.172900 0.939400 0.412600
H136 H 0.148500 1.005000 0.412900
H137 H 0.136900 0.968700 0.494200
H138 H 0.994900 0.081800 0.568400
H139 H 1.019800 0.016100 0.566700
H140 H -0.019800 0.983900 0.433300
H141 H 0.863100 0.031300 0.505800
H142 H 0.851500 -0.005000 0.587100
H143 H 0.827100 0.060600 0.587400
H144 H 0.005100 0.918200 0.431600
H145 H 1.054700 -0.052100 0.869000
H146 H 1.041300 0.001200 0.927400
H147 H 0.616700 0.437200 0.641100
H148 H 0.919100 -0.066000 0.952400
H149 H 0.870000 -0.009700 0.917300
H150 H 0.883300 -0.062800 0.858900
H151 H 0.630000 0.490300 0.582700
H152 H 0.580900 0.434000 0.547600
H153 H 0.458700 0.501200 0.572600
H154 H 0.445300 0.447900 0.631000
H155 H 0.672900 0.560600 0.912600
H156 H 0.648500 0.495000 0.912900
H157 H 0.636900 0.531300 0.994200
H158 H 0.480200 0.516100 0.933300
H159 H 0.505100 0.581800 0.931600
H160 H 0.885000 0.475800 0.581300
C161 C 0.909000 0.442000 0.609200
C162 C 0.523600 0.544700 0.909600
C163 C 0.502000 0.498600 0.770200
C164 C 1.007800 0.452500 0.643500
C165 C 0.630200 0.531700 0.934600
C166 C 0.243100 0.248900 0.285600
C167 C 0.503500 0.574000 0.688500
C168 C 0.512100 0.593200 0.774500
C169 C 0.488400 0.480000 0.618700
C170 C 0.245600 0.239700 0.374900
C171 C 0.895200 0.562900 0.936300
C172 C 0.587800 0.458500 0.595500
C173 C 0.249100 0.156300 0.311000
C174 C 1.002700 0.559100 0.908000
C175 C 0.912200 -0.041500 0.904500
C176 C 1.005800 0.493800 0.788500
C177 C 1.006700 0.553900 0.685100
C178 C 1.002500 0.585100 0.762700
C179 C 0.243600 0.187800 0.162600
C180 C 0.012100 0.906800 0.274500
C181 C 0.003500 0.926000 0.188500
C182 C 0.409000 1.058000 0.109200
C183 C 0.141600 0.193800 0.126700
C184 C 0.002000 1.001400 0.270200
C185 C 0.250400 0.156900 0.465800
C186 C 0.507800 1.047500 0.143500
C187 C 0.023600 0.955300 0.409600
C188 C 1.011600 -0.020000 0.881300
C189 C 0.869800 0.031700 0.565400
C190 C 0.130200 0.968300 0.434600
C191 C 0.976400 0.044700 0.590400
C192 C 0.148000 0.148500 0.495300
C193 C 0.395200 0.937100 0.436300
C194 C -0.011600 1.020000 0.118700
C195 C 0.998000 -0.001400 0.729800
C196 C 0.502700 0.940900 0.408000
C197 C 0.087800 1.041500 0.095500
C198 C 0.505800 1.006200 0.288500
C199 C 0.996500 0.074000 0.811500
C200 C 0.987900 0.093200 0.725500
C201 C 0.506700 0.946100 0.185100
C202 C 0.502500 0.914900 0.262700
C203 C 0.743100 0.251100 0.785600
C204 C 0.745600 0.260300 0.874900
C205 C 0.243100 0.243400 0.845800
C206 C 0.252500 0.249800 0.758200
C207 C 0.091000 0.558000 0.390800
C208 C 0.749100 0.343700 0.811000
C209 C 0.245800 0.338000 0.811600
C210 C -0.007800 0.547500 0.356500
C211 C 0.743600 0.312200 0.662600
C212 C 0.234600 0.313100 0.962700
C213 C 0.104800 0.437100 0.063700
C214 C 0.641600 0.306200 0.626700
C215 C 0.333500 0.324400 1.000800
C216 C 0.750400 0.343100 0.965800
C217 C -0.002700 0.440900 0.092000
C218 C 0.412200 0.541500 0.404500
C219 C 0.258800 0.328800 0.658600
C220 C 0.511600 0.520000 0.381300
C221 C 0.369800 0.468300 0.065400
C222 C 0.363900 0.327300 0.633000
C223 C 0.476400 0.455300 0.090400
C224 C -0.005800 0.506200 0.211500
C225 C -0.006700 0.446100 0.314900
C226 C -0.002500 0.414900 0.237300
C227 C 0.648000 0.351500 0.995300
C228 C 0.591000 -0.058000 0.890800
C229 C 0.492200 -0.047500 0.856500
C230 C 0.743100 0.256600 0.345800
C231 C 0.752500 0.250200 0.258200
C232 C 0.756900 0.751100 0.714400
C233 C 0.754400 0.760300 0.625100
C234 C 0.745800 0.162000 0.311600
C235 C 0.604800 0.062900 0.563700
C236 C 0.750900 0.843700 0.689000
C237 C 0.734600 0.186900 0.462700
C238 C 0.498000 0.501400 0.229800
C239 C 0.497300 0.059100 0.592000
C240 C 0.833500 0.175600 0.500800
C241 C 0.494200 -0.006200 0.711500
C242 C 0.496500 0.426000 0.311500
C243 C 0.487900 0.406800 0.225500
C244 C 0.758800 0.171200 0.158600
C245 C 0.493300 0.053900 0.814900
C246 C 0.497500 0.085100 0.737300
C247 C 0.863900 0.172700 0.133000
C248 C 0.756400 0.812200 0.837400
C249 C 0.136100 0.827300 0.867000
C250 C 0.352000 0.648500 0.004700
C251 C 0.858400 0.806200 0.873300
C252 C 0.749600 0.843100 0.534200
C253 C 0.241200 0.828800 0.841400
C254 C 0.852000 0.851500 0.504700
C255 C 0.756900 0.756600 0.154200
C256 C 0.747500 0.750200 0.241800
C257 C 0.166500 0.824400 0.499200
C258 C 0.265400 0.813100 0.537300
C259 C 0.754200 0.662000 0.188400
C260 C 0.254200 0.838000 0.688400
C261 C 0.247500 0.749800 0.741800
C262 C 0.765400 0.686900 0.037300
C263 C 0.249600 0.656900 0.034200
C264 C 0.358400 0.693800 0.373300
C265 C 0.666500 0.675600 -0.000800
C266 C 0.256400 0.687800 0.337400
C267 C 0.256900 0.743400 0.654200
C268 C 0.256900 0.748900 0.214400
C269 C 0.741200 0.671200 0.341400
C270 C 0.250900 0.656300 0.189000
C271 C 0.254400 0.739700 0.125100
C272 C 0.636100 0.672700 0.367000
N273 N -0.010700 0.499700 0.295900
N274 N 0.254300 0.698900 0.248700
N275 N 0.240800 0.297100 0.874700
N276 N 0.498000 0.516600 0.690700
N277 N 0.751200 0.315000 0.886600
N278 N 0.510200 0.545000 0.819600
N279 N 0.251500 0.304400 0.741200
N280 N 0.248800 0.685000 0.113400
N281 N 0.748500 0.695600 0.258800
N282 N 0.504700 0.953200 0.320400
N283 N 0.259200 0.797100 0.625300
N284 N 0.502000 0.483400 0.309300
N285 N -0.004700 0.453200 0.179600
N286 N 0.248500 0.804400 0.758800
N287 N 0.759200 0.702900 0.125300
N288 N 0.510700 0.999700 0.204100
N289 N 0.989800 0.045000 0.680400
N290 N 1.002000 0.016600 0.809300
N291 N -0.002000 0.983400 0.190700
N292 N 0.010200 0.955000 0.319600
N293 N 0.740800 0.202900 0.374700
N294 N 0.245700 0.198900 0.251300
N295 N 1.010700 0.500300 0.704100
N296 N 0.754300 0.801100 0.748700
N297 N 1.004700 0.546800 0.820400
N298 N 0.751500 0.195600 0.241200
N299 N 0.748800 0.815000 0.613400
N300 N 0.489800 0.455000 0.180400
N301 N 0.489300 0.000300 0.795900
N302 N 0.745700 0.301100 0.751300
N303 N 0.251200 0.185000 0.386600
N304 N 0.495300 0.046800 0.679600
S305 S 0.014830 0.841080 0.301340
S306 S 0.485170 0.341080 0.198660
S307 S 0.497720 0.085290 0.905730
S308 S 0.498130 0.155100 0.732820
S309 S 0.491930 0.382370 0.389060
S310 S 0.248420 0.088740 0.297930
S311 S 1.001870 0.655100 0.767180
S312 S 0.751580 0.911260 0.702070
S313 S 1.002280 0.585290 0.594270
S314 S 1.002390 0.433830 0.838270
S315 S 0.745420 0.096260 0.319780
S316 S 0.759160 0.708140 0.558870
S317 S 0.754040 0.816940 0.105320
S318 S 0.750940 0.305340 0.195620
S319 S 0.745960 0.316940 0.394680
S320 S 0.758880 0.687600 0.756860
S321 S 0.008070 0.882370 0.110940
S322 S 0.240840 0.291860 0.441130
S323 S -0.004940 1.067110 0.301480
S324 S 0.514830 0.658920 0.801340
S325 S 0.749060 0.805340 0.304380
S326 S 1.004940 -0.067110 0.698520
S327 S 0.741120 0.187600 0.743140
S328 S 0.508070 0.617630 0.610940
S329 S -0.001870 0.344900 0.232820
S330 S 0.258880 0.812400 0.256860
S331 S 0.504940 0.567110 0.198520
S332 S -0.002280 0.414710 0.405730
S333 S 0.254580 0.903740 0.680220
S334 S 0.754580 0.596260 0.180220
S335 S -0.002390 0.566170 0.161730
S336 S 0.259160 0.791860 0.058870
S337 S 0.502390 1.066170 0.338270
S338 S 0.991930 0.117630 0.889060
S339 S 0.249060 0.694660 0.804380
S340 S 0.985170 0.158920 0.698660
S341 S 0.254040 0.683060 0.605320
S342 S 0.241120 0.312400 0.243140
S343 S 0.748420 0.411260 0.797930
S344 S 0.245420 0.403740 0.819780
S345 S 0.251580 0.588740 0.202070
S346 S 0.497610 -0.066170 0.661730
S347 S 0.250940 0.194660 0.695620
S348 S 0.740840 0.208140 0.941130
S349 S 0.245960 0.183060 0.894680
S350 S 0.502280 0.914710 0.094270
S351 S 0.501870 0.844900 0.267180
S352 S 0.495060 0.432890 0.801480
Br353 Br 0.502470 0.723980 0.172560
Br354 Br 0.240780 0.424560 0.480920
Br355 Br 0.244870 0.056350 0.673150
Br356 Br 0.243780 0.448300 0.265510
Br357 Br 0.244830 0.047520 0.888000
Br358 Br 0.996260 0.289870 0.748080
Br359 Br 0.993270 0.250100 0.953600
Br360 Br 0.255130 0.556350 0.826850
Br361 Br 0.255170 0.547520 0.612000
Br362 Br -0.002470 0.223980 0.327440
Br363 Br 0.002970 0.302520 0.514680
Br364 Br 0.743780 0.051700 0.765510
Br365 Br 0.256220 0.948300 0.234490
Br366 Br 0.740780 0.075440 0.980920
Br367 Br 0.259220 0.924560 0.019080
Br368 Br 0.744870 0.443650 0.173150
Br369 Br 0.503740 0.789870 0.751920
Br370 Br 0.759220 0.575440 0.519080
Br371 Br 0.744830 0.452480 0.388000
Br372 Br 0.756220 0.551700 0.734490
Br373 Br 0.496260 0.210130 0.248080
Br374 Br 0.497530 0.276020 0.827440
Br375 Br 0.502970 0.197480 1.014680
Br376 Br 0.497030 0.802520 -0.014680
Br377 Br 0.997030 0.697480 0.485320
Br378 Br 1.002470 0.776020 0.672560
Br379 Br 0.755170 0.952480 0.112000
Br380 Br 0.003740 0.710130 0.251920
Br381 Br 0.006730 0.749900 0.046400
Br382 Br 0.493270 0.249900 0.453600
Br383 Br 0.506730 0.750100 0.546400
Br384 Br 0.755130 0.943650 0.326850
Pd385 Pd 0.752940 0.878020 0.212220
Pd386 Pd 0.009270 0.797580 0.177520
Pd387 Pd 0.509270 0.702420 0.677520
Pd388 Pd 0.490730 0.297580 0.322480
Pd389 Pd 0.499140 0.177530 0.869270
Pd390 Pd 0.759460 0.632030 0.642050
Pd391 Pd 0.259460 0.867970 0.142050
Pd392 Pd 0.740540 0.132030 0.857950
Pd393 Pd -0.000860 0.322470 0.369270
Pd394 Pd 0.747060 0.378020 0.287780
Pd395 Pd 0.990730 0.202420 0.822480
Pd396 Pd 0.247060 0.121980 0.787780
Pd397 Pd 0.252940 0.621980 0.712220
Pd398 Pd 0.500860 0.822470 0.130730
Pd399 Pd 1.000860 0.677530 0.630730
Pd400 Pd 0.240540 0.367970 0.357950

#END
