
#######################################################################
#
#                 Cambridge Crystallographic Data Centre
#                                CCDC 
#
#######################################################################
#
# If this CIF has been generated from an entry in the Cambridge 
# Structural Database, then it will include bibliographic, chemical, 
# crystal, experimental, refinement or atomic coordinate data resulting 
# from the CCDC's data processing and validation procedures.
#
#######################################################################

data_LABTOX
_symmetry_cell_setting           triclinic
_symmetry_space_group_name_H-M   'P -1'
_symmetry_Int_Tables_number      2
_space_group_name_Hall           '-P 1'
loop_
_symmetry_equiv_pos_site_id
_symmetry_equiv_pos_as_xyz
1 x,y,z
2 -x,-y,-z
_cell_length_a                   7.799(1)
_cell_length_b                   9.872(1)
_cell_length_c                   11.770(1)
_cell_angle_alpha                109.638(4)
_cell_angle_beta                 100.339(6)
_cell_angle_gamma                97.756(6)
_cell_volume                     820.767
loop_
_atom_site_label
_atom_site_type_symbol
_atom_site_fract_x
_atom_site_fract_y
_atom_site_fract_z
O1 O 1.3808(2) 0.26541(19) 0.73573(15)
O2 O 1.4879(2) 0.35510(19) 0.61094(16)
N1 N 0.9019(2) 0.15941(19) 0.48367(16)
N2 N 1.3615(2) 0.2939(2) 0.64030(17)
C1 C 0.8724(2) 0.2232(2) 0.27936(18)
C2 C 0.6734(3) 0.1554(2) 0.23197(19)
C3 C 0.5849(3) 0.1863(2) 0.1192(2)
C4 C 0.6141(3) 0.3514(2) 0.1480(2)
C5 C 0.8129(3) 0.4198(2) 0.1867(2)
C6 C 0.9134(3) 0.3896(2) 0.29776(19)
C7 C 1.1114(3) 0.4243(2) 0.30673(19)
C8 C 1.2286(3) 0.3512(2) 0.37667(19)
C9 C 1.1400(3) 0.2782(2) 0.44716(19)
C10 C 0.9618(3) 0.2170(2) 0.40122(18)
C11 C 1.0408(3) 0.1827(2) 0.58036(19)
C12 C 1.1898(3) 0.2550(2) 0.55985(19)
C13 C 1.1588(3) 0.2827(2) 0.23474(19)
C14 C 0.9931(3) 0.1609(2) 0.18688(18)
C15 C 1.0266(3) 0.0083(2) 0.17048(18)
C16 C 0.8899(3) -0.1160(2) 0.10616(19)
C17 C 0.9188(3) -0.2570(2) 0.0858(2)
C18 C 1.0888(3) -0.2769(2) 0.1278(2)
C19 C 1.2269(3) -0.1548(3) 0.1904(2)
C20 C 1.1961(3) -0.0138(2) 0.2125(2)
C21 C 0.7203(3) 0.0923(2) 0.4781(2)
H1 H 0.651(3) 0.047(3) 0.212(2)
H2 H 0.620(4) 0.205(3) 0.305(3)
H3 H 0.453(4) 0.147(3) 0.096(2)
H4 H 0.628(4) 0.143(3) 0.047(3)
H5 H 0.559(3) 0.369(3) 0.070(2)
H6 H 0.553(4) 0.406(3) 0.229(3)
H7 H 0.839(3) 0.534(3) 0.211(2)
H8 H 0.862(4) 0.379(3) 0.115(3)
H9 H 0.886(4) 0.443(3) 0.374(3)
H10 H 1.160(3) 0.520(3) 0.310(2)
H11 H 1.351(3) 0.396(3) 0.406(2)
H12 H 1.031(3) 0.145(3) 0.643(2)
H13 H 1.240(4) 0.277(3) 0.175(3)
H14 H 0.931(3) 0.156(2) 0.106(2)
H15 H 0.773(4) -0.107(3) 0.070(3)
H16 H 0.827(3) -0.341(3) 0.040(2)
H17 H 1.111(4) -0.374(3) 0.120(2)
H18 H 1.348(4) -0.170(3) 0.215(3)
H19 H 1.292(3) 0.070(3) 0.256(2)
H20 H 0.656(4) 0.171(3) 0.494(3)
H21 H 0.658(4) 0.010(3) 0.395(3)
H22 H 0.728(4) 0.051(3) 0.547(3)
O1 O -0.3808(2) 0.73459(19) 0.26427(15)
O2 O -0.4879(2) 0.64490(19) 0.38906(16)
N1 N 0.0981(2) 0.84059(19) 0.51633(16)
N2 N -0.3615(2) 0.7061(2) 0.35970(17)
C1 C 0.1276(2) 0.7768(2) 0.72064(18)
C2 C 0.3266(3) 0.8446(2) 0.76803(19)
C3 C 0.4151(3) 0.8137(2) 0.8808(2)
C4 C 0.3859(3) 0.6486(2) 0.8520(2)
C5 C 0.1871(3) 0.5802(2) 0.8133(2)
C6 C 0.0866(3) 0.6104(2) 0.70224(19)
C7 C -0.1114(3) 0.5757(2) 0.69327(19)
C8 C -0.2286(3) 0.6488(2) 0.62333(19)
C9 C -0.1400(3) 0.7218(2) 0.55284(19)
C10 C 0.0382(3) 0.7830(2) 0.59878(18)
C11 C -0.0408(3) 0.8173(2) 0.41964(19)
C12 C -0.1898(3) 0.7450(2) 0.44015(19)
C13 C -0.1588(3) 0.7173(2) 0.76526(19)
C14 C 0.0069(3) 0.8391(2) 0.81312(18)
C15 C -0.0266(3) 0.9917(2) 0.82952(18)
C16 C 0.1101(3) 1.1160(2) 0.89384(19)
C17 C 0.0812(3) 1.2570(2) 0.9142(2)
C18 C -0.0888(3) 1.2769(2) 0.8722(2)
C19 C -0.2269(3) 1.1548(3) 0.8096(2)
C20 C -0.1961(3) 1.0138(2) 0.7875(2)
C21 C 0.2797(3) 0.9077(2) 0.5219(2)
H1 H 0.349(3) 0.953(3) 0.788(2)
H2 H 0.380(4) 0.795(3) 0.695(3)
H3 H 0.547(4) 0.853(3) 0.904(2)
H4 H 0.372(4) 0.857(3) 0.953(3)
H5 H 0.441(3) 0.631(3) 0.930(2)
H6 H 0.447(4) 0.594(3) 0.771(3)
H7 H 0.161(3) 0.466(3) 0.789(2)
H8 H 0.138(4) 0.621(3) 0.885(3)
H9 H 0.114(4) 0.557(3) 0.626(3)
H10 H -0.160(3) 0.480(3) 0.690(2)
H11 H -0.351(3) 0.604(3) 0.594(2)
H12 H -0.031(3) 0.855(3) 0.357(2)
H13 H -0.240(4) 0.723(3) 0.825(3)
H14 H 0.069(3) 0.844(2) 0.894(2)
H15 H 0.227(4) 1.107(3) 0.930(3)
H16 H 0.173(3) 1.341(3) 0.960(2)
H17 H -0.111(4) 1.374(3) 0.880(2)
H18 H -0.348(4) 1.170(3) 0.785(3)
H19 H -0.292(3) 0.930(3) 0.744(2)
H20 H 0.344(4) 0.829(3) 0.506(3)
H21 H 0.342(4) 0.990(3) 0.605(3)
H22 H 0.272(4) 0.949(3) 0.453(3)

#END
