./LABVIU_from_POSCAR.cif_generated_by_CrystalShift
_symmetry_cell_setting triclinic
_symmetry_space_group_name_H-M 'P 1'
loop_
_symmetry_equiv_pos_site_id
_symmetry_equiv_pos_as_xyz
1 x,y,z
_cell_length_a 6.956100
_cell_length_b 10.132800
_cell_length_c 11.865000
_cell_angle_alpha 90.000000
_cell_angle_beta 90.000000
_cell_angle_gamma 90.000000
_cell_volume 836.301797
loop_
_atom_site_label
_atom_site_type_symbol
_atom_site_fract_x
_atom_site_fract_y
_atom_site_fract_z
H1 H 0.666000 -0.042000 0.889000
H2 H 0.744000 0.064000 0.870000
H3 H 0.834000 1.042000 0.389000
H4 H 0.756000 0.936000 0.370000
H5 H 0.334000 0.458000 0.611000
H6 H 0.256000 0.564000 0.630000
H7 H 0.049000 0.084000 0.725000
H8 H 0.413000 0.547000 0.977000
H9 H 0.305000 0.238000 0.757000
H10 H 0.587000 0.047000 0.523000
H11 H -0.087000 0.953000 0.023000
H12 H 0.695000 0.738000 0.743000
H13 H 0.195000 0.762000 0.257000
H14 H 0.951000 0.584000 0.775000
H15 H 0.863000 0.594000 0.514000
H16 H 0.549000 0.416000 0.275000
H17 H 0.637000 0.406000 1.014000
H18 H 0.166000 0.542000 0.111000
H19 H 0.244000 0.436000 0.130000
H20 H 0.137000 1.094000 -0.014000
H21 H 0.805000 0.262000 0.243000
H22 H 0.363000 -0.094000 0.486000
H23 H 0.451000 0.916000 0.225000
H24 H 1.087000 0.453000 0.477000
C25 C 0.018300 0.850300 0.139620
C26 C 0.317400 1.017350 0.104890
C27 C 0.981700 0.350300 0.360380
C28 C 0.816700 0.334870 0.296480
C29 C 0.151000 1.030610 0.042750
C30 C 0.662700 0.419690 0.313860
C31 C 0.651000 0.469390 0.957250
C32 C 0.682600 0.517350 0.395110
C33 C 0.849000 0.530610 0.457250
C34 C 0.817400 0.482650 0.895110
C35 C 0.337300 0.919690 0.186140
C36 C 0.837300 0.580310 0.813860
C37 C 0.183300 0.834870 0.203520
C38 C 0.349000 -0.030610 0.542750
C39 C 0.182600 -0.017350 0.604890
C40 C 0.683300 0.665130 0.796480
C41 C 0.162700 0.080310 0.686140
C42 C 0.518300 0.649700 0.860380
C43 C 0.316700 0.165130 0.703520
C44 C 0.481700 0.149700 0.639620
N45 N 0.974400 0.388950 0.915660
N46 N 0.494000 0.052990 0.562110
N47 N 0.506000 0.552990 0.937890
N48 N 0.474400 1.111050 0.084340
N49 N 0.994000 0.447010 0.437890
N50 N 0.025600 -0.111050 0.584340
N51 N 0.525600 0.611050 0.415660
N52 N 0.006000 0.947010 0.062110
O53 O -0.313800 0.780650 0.064940
O54 O -0.258030 0.774770 0.267600
O55 O -0.107000 0.611430 0.147890
O56 O 0.449100 1.194130 0.010460
O57 O 0.618800 1.100480 0.142420
O58 O 0.186200 0.719350 0.935060
O59 O -0.118800 -0.100480 0.642420
O60 O 0.050900 -0.194130 0.510460
O61 O 0.607000 0.388570 0.647890
O62 O 0.758030 0.225230 0.767600
O63 O 0.813800 0.219350 0.564940
O64 O 0.755100 -0.002070 0.901950
O65 O 0.381200 0.600480 0.357580
O66 O 0.550900 0.694130 0.489540
O67 O 1.107000 0.111430 0.352110
O68 O 1.258030 0.274770 0.232400
O69 O 0.255100 0.502070 0.098050
O70 O 1.313800 0.280650 0.435060
O71 O 0.241970 0.725230 0.732400
O72 O 0.244900 0.497930 0.598050
O73 O 1.118800 0.399520 0.857580
O74 O 0.949100 0.305870 0.989540
O75 O 0.744900 1.002070 0.401950
O76 O 0.393000 0.888570 0.852110
S77 S 0.686100 0.256160 0.655500
S78 S -0.186100 0.743840 0.155500
S79 S 0.313900 0.756160 0.844500
S80 S 1.186100 0.243840 0.344500

#END
