./LABVEP_from_POSCAR.cif_generated_by_CrystalShift
_symmetry_cell_setting triclinic
_symmetry_space_group_name_H-M 'P 1'
loop_
_symmetry_equiv_pos_site_id
_symmetry_equiv_pos_as_xyz
1 x,y,z
_cell_length_a 27.729000
_cell_length_b 5.031100
_cell_length_c 6.105000
_cell_angle_alpha 90.000000
_cell_angle_beta 99.570000
_cell_angle_gamma 90.000000
_cell_volume 839.839690
loop_
_atom_site_label
_atom_site_type_symbol
_atom_site_fract_x
_atom_site_fract_y
_atom_site_fract_z
H1 H 1.017000 0.007000 0.191000
H2 H 0.889600 0.579000 -0.034000
H3 H 0.781000 1.223000 0.067000
H4 H 0.824600 0.884000 -0.081000
H5 H 0.916300 0.859000 0.530000
H6 H 0.872100 1.180000 0.660000
H7 H 0.483000 -0.493000 0.809000
H8 H 0.545800 0.029000 0.625000
H9 H 0.610400 0.079000 1.034000
H10 H 0.719000 0.723000 0.933000
H11 H 0.675400 0.384000 1.081000
H12 H 0.583700 0.359000 0.470000
H13 H 0.627900 0.680000 0.340000
H14 H -0.017000 0.993000 0.809000
H15 H 0.372100 0.320000 0.660000
H16 H 0.416300 0.641000 0.530000
H17 H 0.324600 0.616000 -0.081000
H18 H 0.281000 0.277000 0.067000
H19 H 0.389600 0.921000 -0.034000
H20 H 0.454200 0.971000 0.375000
H21 H 0.517000 1.493000 0.191000
H22 H 0.045800 0.471000 0.625000
H23 H 0.110400 0.421000 1.034000
H24 H 0.219000 -0.223000 0.933000
H25 H 0.175400 0.116000 1.081000
H26 H 0.083700 0.141000 0.470000
H27 H 0.127900 -0.180000 0.340000
H28 H 0.954200 0.529000 0.375000
C29 C 0.111620 0.076500 0.576400
C30 C 0.124990 0.166600 0.794900
C31 C 0.165710 0.055400 0.925500
C32 C 0.192240 -0.142800 0.843700
C33 C 0.097600 0.375900 0.887400
C34 C 0.059050 0.503600 0.781100
C35 C 0.034140 0.716000 0.880200
C36 C 0.177540 -0.227000 0.628800
C37 C 0.322460 0.273000 0.371200
C38 C 0.965860 0.284000 0.119800
C39 C 0.940950 0.496400 0.218900
C40 C 0.902400 0.624100 0.112600
C41 C 0.807760 1.142800 0.156300
C42 C 0.465860 1.216000 0.119800
C43 C 0.834290 0.944600 0.074500
C44 C 0.875010 0.833400 0.205100
C45 C 0.888380 0.923500 0.423600
C46 C 0.862320 1.119700 0.506500
C47 C 0.822460 1.227000 0.371200
C48 C 0.677540 0.727000 0.628800
C49 C 0.637680 0.619700 0.493500
C50 C 0.611620 0.423500 0.576400
C51 C 0.624990 0.333400 0.794900
C52 C 0.665710 0.444600 0.925500
C53 C 0.692240 0.642800 0.843700
C54 C 0.597600 0.124100 0.887400
C55 C 0.559050 -0.003600 0.781100
C56 C 0.534140 -0.216000 0.880200
C57 C 0.440950 1.003600 0.218900
C58 C 0.402400 0.875900 0.112600
C59 C 0.307760 0.357200 0.156300
C60 C 0.334290 0.555400 0.074500
C61 C 0.375010 0.666600 0.205100
C62 C 0.388380 0.576500 0.423600
C63 C 0.362320 0.380300 0.506500
C64 C 0.137680 -0.119700 0.493500
N65 N 0.204730 -0.440900 0.540500
N66 N 0.295270 0.059100 0.459500
N67 N 0.704730 0.940900 0.540500
N68 N 0.795270 1.440900 0.459500
O69 O 0.760960 1.540000 0.337900
O70 O 0.739040 1.040000 0.662100
O71 O 0.691400 1.007400 0.346900
O72 O 0.808600 1.507400 0.653100
O73 O 0.499770 -0.333000 0.750900
O74 O -0.000230 0.833000 0.750900
O75 O 0.046010 0.776200 1.080200
O76 O 0.191400 -0.507400 0.346900
O77 O 0.239040 -0.540000 0.662100
O78 O 0.953990 0.223800 -0.080200
O79 O 0.546010 -0.276200 1.080200
O80 O 0.260960 -0.040000 0.337900
O81 O 0.308600 -0.007400 0.653100
O82 O 0.453990 1.276200 -0.080200
O83 O 1.000230 0.167000 0.249100
O84 O 0.500230 1.333000 0.249100

#END
