
#######################################################################
#
#                 Cambridge Crystallographic Data Centre
#                                CCDC 
#
#######################################################################
#
# If this CIF has been generated from an entry in the Cambridge 
# Structural Database, then it will include bibliographic, chemical, 
# crystal, experimental, refinement or atomic coordinate data resulting 
# from the CCDC's data processing and validation procedures.
#
#######################################################################

data_LABWAM
_symmetry_cell_setting           triclinic
_symmetry_space_group_name_H-M   'P -1'
_symmetry_Int_Tables_number      2
_space_group_name_Hall           '-P 1'
loop_
_symmetry_equiv_pos_site_id
_symmetry_equiv_pos_as_xyz
1 x,y,z
2 -x,-y,-z
_cell_length_a                   10.633(4)
_cell_length_b                   11.648(6)
_cell_length_c                   17.236(7)
_cell_angle_alpha                76.30(3)
_cell_angle_beta                 83.16(3)
_cell_angle_gamma                64.95(3)
_cell_volume                     1878.49
loop_
_atom_site_label
_atom_site_type_symbol
_atom_site_fract_x
_atom_site_fract_y
_atom_site_fract_z
O1 O 0.6047(5) 0.9628(4) 0.3386(3)
O2 O 0.6890(4) 1.0934(4) 0.1737(3)
N1 N 0.8142(5) 1.0584(5) 0.2144(3)
C1 C 0.5624(6) 1.0027(5) 0.2711(4)
C2 C 0.4213(7) 1.0851(6) 0.2428(4)
C3 C 0.3057(8) 1.1541(7) 0.2853(5)
C4 C 0.1842(8) 1.2266(7) 0.2439(5)
C5 C 0.1762(8) 1.2249(7) 0.1647(5)
C6 C 0.2917(7) 1.1546(7) 0.1218(5)
C7 C 0.4176(6) 1.0846(5) 0.1637(4)
C8 C 0.5553(6) 0.9963(6) 0.1312(4)
C9 C 0.5480(8) 0.8664(7) 0.1267(5)
C10 C 0.6550(6) 0.9769(5) 0.1957(4)
C11 C 0.8706(6) 0.9357(6) 0.2372(4)
C12 C 0.7961(6) 0.8641(5) 0.2123(4)
C13 C 0.8744(7) 0.8038(6) 0.1430(4)
C14 C 0.9023(7) 0.8773(6) 0.0726(4)
C15 C 0.9747(8) 0.8219(7) 0.0094(5)
C16 C 1.0194(7) 0.6885(8) 0.0159(5)
C17 C 0.9916(8) 0.6164(7) 0.0850(5)
C18 C 0.9187(7) 0.6712(7) 0.1478(5)
C19 C 1.0016(7) 0.8720(6) 0.2815(4)
C20 C 1.0752(8) 0.9419(7) 0.2901(6)
C21 C 1.1907(8) 0.8817(8) 0.3369(7)
C22 C 1.2375(8) 0.7563(8) 0.3727(5)
C23 C 1.1675(8) 0.6852(7) 0.3657(5)
C24 C 1.0487(7) 0.7450(6) 0.3189(5)
H1 H 0.326(7) 1.145(6) 0.347(4)
H2 H 0.094(7) 1.279(6) 0.272(4)
H3 H 0.090(7) 1.277(6) 0.141(4)
H4 H 0.290(7) 1.149(6) 0.058(4)
H5 H 0.579(7) 1.043(6) 0.074(4)
H6 H 0.633(7) 0.831(6) 0.090(4)
H7 H 0.536(7) 0.833(6) 0.183(4)
H8 H 0.464(7) 0.897(6) 0.086(4)
H9 H 0.778(7) 0.805(6) 0.263(4)
H10 H 0.859(7) 0.977(6) 0.073(4)
H11 H 0.984(7) 0.888(6) -0.045(4)
H12 H 1.085(7) 0.647(6) -0.031(4)
H13 H 1.033(7) 0.516(6) 0.086(4)
H14 H 0.879(7) 0.627(6) 0.202(4)
H15 H 1.035(7) 1.030(6) 0.264(4)
H16 H 1.255(7) 0.925(6) 0.330(4)
H17 H 1.329(7) 0.700(6) 0.408(4)
H18 H 1.182(7) 0.603(6) 0.401(4)
H19 H 0.997(7) 0.689(6) 0.318(4)
O1 O 0.3953(5) 0.0372(4) 0.6614(3)
O2 O 0.3110(4) -0.0934(4) 0.8263(3)
N1 N 0.1858(5) -0.0584(5) 0.7856(3)
C1 C 0.4376(6) -0.0027(5) 0.7289(4)
C2 C 0.5787(7) -0.0851(6) 0.7572(4)
C3 C 0.6943(8) -0.1541(7) 0.7147(5)
C4 C 0.8158(8) -0.2266(7) 0.7561(5)
C5 C 0.8238(8) -0.2249(7) 0.8353(5)
C6 C 0.7083(7) -0.1546(7) 0.8782(5)
C7 C 0.5824(6) -0.0846(5) 0.8363(4)
C8 C 0.4447(6) 0.0037(6) 0.8688(4)
C9 C 0.4520(8) 0.1336(7) 0.8733(5)
C10 C 0.3450(6) 0.0231(5) 0.8043(4)
C11 C 0.1294(6) 0.0643(6) 0.7628(4)
C12 C 0.2039(6) 0.1359(5) 0.7877(4)
C13 C 0.1256(7) 0.1962(6) 0.8570(4)
C14 C 0.0977(7) 0.1227(6) 0.9274(4)
C15 C 0.0253(8) 0.1781(7) 0.9906(5)
C16 C -0.0194(7) 0.3115(8) 0.9841(5)
C17 C 0.0084(8) 0.3836(7) 0.9150(5)
C18 C 0.0813(7) 0.3288(7) 0.8522(5)
C19 C -0.0016(7) 0.1280(6) 0.7185(4)
C20 C -0.0752(8) 0.0581(7) 0.7099(6)
C21 C -0.1907(8) 0.1183(8) 0.6631(7)
C22 C -0.2375(8) 0.2437(8) 0.6273(5)
C23 C -0.1675(8) 0.3148(7) 0.6343(5)
C24 C -0.0487(7) 0.2550(6) 0.6811(5)
H1 H 0.674(7) -0.145(6) 0.653(4)
H2 H 0.906(7) -0.279(6) 0.728(4)
H3 H 0.910(7) -0.277(6) 0.859(4)
H4 H 0.710(7) -0.149(6) 0.942(4)
H5 H 0.421(7) -0.043(6) 0.926(4)
H6 H 0.367(7) 0.169(6) 0.910(4)
H7 H 0.464(7) 0.167(6) 0.817(4)
H8 H 0.536(7) 0.103(6) 0.914(4)
H9 H 0.222(7) 0.195(6) 0.737(4)
H10 H 0.141(7) 0.023(6) 0.927(4)
H11 H 0.016(7) 0.112(6) 1.045(4)
H12 H -0.085(7) 0.353(6) 1.031(4)
H13 H -0.033(7) 0.484(6) 0.914(4)
H14 H 0.121(7) 0.373(6) 0.798(4)
H15 H -0.035(7) -0.030(6) 0.736(4)
H16 H -0.255(7) 0.075(6) 0.670(4)
H17 H -0.329(7) 0.300(6) 0.592(4)
H18 H -0.182(7) 0.397(6) 0.599(4)
H19 H 0.003(7) 0.311(6) 0.682(4)
O3 O 0.1759(3) 0.5943(3) 0.8389(2)
O4 O 0.3707(3) 0.4189(3) 0.7270(2)
N2 N 0.2551(4) 0.4675(3) 0.6770(2)
C25 C 0.3005(5) 0.5344(4) 0.8315(3)
C26 C 0.4043(5) 0.4518(4) 0.8911(3)
C27 C 0.3836(5) 0.4095(4) 0.9712(3)
C28 C 0.4975(5) 0.3306(4) 1.0187(3)
C29 C 0.6305(5) 0.2981(4) 0.9831(3)
C30 C 0.6508(5) 0.3417(4) 0.9022(3)
C31 C 0.5354(4) 0.4202(4) 0.8573(3)
C32 C 0.5305(4) 0.4882(4) 0.7699(3)
C33 C 0.5748(5) 0.6023(4) 0.7610(3)
C34 C 0.3780(4) 0.5327(4) 0.7495(3)
C35 C 0.2106(4) 0.5904(4) 0.6553(3)
C36 C 0.2999(4) 0.6468(4) 0.6834(3)
C37 C 0.3850(4) 0.6847(4) 0.6143(3)
C38 C 0.3666(5) 0.8143(4) 0.5889(3)
C39 C 0.4444(5) 0.8474(5) 0.5231(3)
C40 C 0.5408(5) 0.7552(5) 0.4856(3)
C41 C 0.5608(5) 0.6266(4) 0.5118(3)
C42 C 0.4850(4) 0.5919(4) 0.5755(3)
C43 C 0.0925(4) 0.6634(4) 0.6024(3)
C44 C 0.0211(5) 0.5995(5) 0.5800(3)
C45 C -0.0917(5) 0.6690(5) 0.5310(3)
C46 C -0.1389(5) 0.8018(5) 0.5051(3)
C47 C -0.0694(5) 0.8638(5) 0.5277(3)
C48 C 0.0429(5) 0.7961(4) 0.5775(3)
H20 H 0.298(4) 0.441(4) 0.991(3)
H21 H 0.486(4) 0.293(4) 1.081(3)
H22 H 0.707(4) 0.241(4) 1.009(3)
H23 H 0.748(4) 0.316(4) 0.879(3)
H24 H 0.599(4) 0.424(4) 0.734(3)
H25 H 0.594(4) 0.643(4) 0.697(3)
H26 H 0.506(4) 0.673(4) 0.781(3)
H27 H 0.667(4) 0.569(4) 0.785(3)
H28 H 0.237(4) 0.722(4) 0.704(3)
H29 H 0.295(4) 0.881(4) 0.610(3)
H30 H 0.422(4) 0.936(4) 0.505(3)
H31 H 0.597(4) 0.779(4) 0.437(3)
H32 H 0.636(4) 0.565(4) 0.485(3)
H33 H 0.505(4) 0.497(4) 0.598(3)
H34 H 0.056(4) 0.509(4) 0.603(3)
H35 H -0.144(4) 0.623(4) 0.517(3)
H36 H -0.227(4) 0.860(4) 0.468(3)
H37 H -0.108(4) 0.954(4) 0.516(3)
H38 H 0.100(4) 0.835(4) 0.591(3)
O3 O 0.8241(3) 0.4057(3) 0.1611(2)
O4 O 0.6293(3) 0.5811(3) 0.2730(2)
N2 N 0.7449(4) 0.5325(3) 0.3230(2)
C25 C 0.6995(5) 0.4656(4) 0.1685(3)
C26 C 0.5957(5) 0.5482(4) 0.1089(3)
C27 C 0.6164(5) 0.5905(4) 0.0288(3)
C28 C 0.5025(5) 0.6694(4) -0.0187(3)
C29 C 0.3695(5) 0.7019(4) 0.0169(3)
C30 C 0.3492(5) 0.6583(4) 0.0978(3)
C31 C 0.4646(4) 0.5798(4) 0.1427(3)
C32 C 0.4695(4) 0.5118(4) 0.2301(3)
C33 C 0.4252(5) 0.3977(4) 0.2390(3)
C34 C 0.6220(4) 0.4673(4) 0.2505(3)
C35 C 0.7894(4) 0.4096(4) 0.3447(3)
C36 C 0.7001(4) 0.3532(4) 0.3166(3)
C37 C 0.6150(4) 0.3153(4) 0.3857(3)
C38 C 0.6334(5) 0.1857(4) 0.4111(3)
C39 C 0.5556(5) 0.1526(5) 0.4769(3)
C40 C 0.4592(5) 0.2448(5) 0.5144(3)
C41 C 0.4392(5) 0.3734(4) 0.4882(3)
C42 C 0.5150(4) 0.4081(4) 0.4245(3)
C43 C 0.9075(4) 0.3366(4) 0.3976(3)
C44 C 0.9789(5) 0.4005(5) 0.4200(3)
C45 C 1.0917(5) 0.3310(5) 0.4690(3)
C46 C 1.1389(5) 0.1982(5) 0.4949(3)
C47 C 1.0694(5) 0.1362(5) 0.4723(3)
C48 C 0.9571(5) 0.2039(4) 0.4225(3)
H20 H 0.702(4) 0.559(4) 0.009(3)
H21 H 0.514(4) 0.707(4) -0.081(3)
H22 H 0.293(4) 0.759(4) -0.009(3)
H23 H 0.252(4) 0.684(4) 0.121(3)
H24 H 0.401(4) 0.576(4) 0.266(3)
H25 H 0.406(4) 0.357(4) 0.303(3)
H26 H 0.494(4) 0.327(4) 0.219(3)
H27 H 0.333(4) 0.431(4) 0.215(3)
H28 H 0.763(4) 0.278(4) 0.296(3)
H29 H 0.705(4) 0.119(4) 0.390(3)
H30 H 0.578(4) 0.064(4) 0.495(3)
H31 H 0.403(4) 0.221(4) 0.563(3)
H32 H 0.364(4) 0.435(4) 0.515(3)
H33 H 0.495(4) 0.503(4) 0.402(3)
H34 H 0.944(4) 0.491(4) 0.397(3)
H35 H 1.144(4) 0.377(4) 0.483(3)
H36 H 1.227(4) 0.140(4) 0.532(3)
H37 H 1.108(4) 0.046(4) 0.484(3)
H38 H 0.900(4) 0.165(4) 0.409(3)

#END
