./LABWAM_from_POSCAR.cif_generated_by_CrystalShift
_symmetry_cell_setting triclinic
_symmetry_space_group_name_H-M 'P 1'
loop_
_symmetry_equiv_pos_site_id
_symmetry_equiv_pos_as_xyz
1 x,y,z
_cell_length_a 10.633000
_cell_length_b 11.648000
_cell_length_c 17.236000
_cell_angle_alpha 76.300000
_cell_angle_beta 83.160000
_cell_angle_gamma 64.950000
_cell_volume 1878.485843
loop_
_atom_site_label
_atom_site_type_symbol
_atom_site_fract_x
_atom_site_fract_y
_atom_site_fract_z
H1 H 0.900000 0.165000 0.409000
H2 H 1.227000 0.140000 0.532000
H3 H 1.144000 0.377000 0.483000
H4 H 0.944000 0.491000 0.397000
H5 H 0.495000 0.503000 0.402000
H6 H 0.364000 0.435000 0.515000
H7 H 0.403000 0.221000 0.563000
H8 H 0.578000 0.064000 0.495000
H9 H 0.705000 0.119000 0.390000
H10 H 0.763000 0.278000 0.296000
H11 H 0.333000 0.431000 0.215000
H12 H 0.494000 0.327000 0.219000
H13 H 0.406000 0.357000 0.303000
H14 H 0.401000 0.576000 0.266000
H15 H 0.252000 0.684000 0.121000
H16 H 0.293000 0.759000 -0.009000
H17 H 0.514000 0.707000 -0.081000
H18 H 0.702000 0.559000 0.009000
H19 H 0.100000 0.835000 0.591000
H20 H -0.108000 0.954000 0.516000
H21 H -0.227000 0.860000 0.468000
H22 H -0.144000 0.623000 0.517000
H23 H 0.056000 0.509000 0.603000
H24 H 0.505000 0.497000 0.598000
H25 H 0.636000 0.565000 0.485000
H26 H 0.597000 0.779000 0.437000
H27 H 0.422000 0.936000 0.505000
H28 H 0.326000 1.145000 0.347000
H29 H 0.094000 1.279000 0.272000
H30 H 0.090000 1.277000 0.141000
H31 H 0.290000 1.149000 0.058000
H32 H 0.579000 1.043000 0.074000
H33 H 0.633000 0.831000 0.090000
H34 H 0.536000 0.833000 0.183000
H35 H 0.464000 0.897000 0.086000
H36 H 0.778000 0.805000 0.263000
H37 H 0.859000 0.977000 0.073000
H38 H 0.984000 0.888000 -0.045000
H39 H 1.085000 0.647000 -0.031000
H40 H 1.033000 0.516000 0.086000
H41 H 0.879000 0.627000 0.202000
H42 H 1.035000 1.030000 0.264000
H43 H 1.255000 0.925000 0.330000
H44 H 1.329000 0.700000 0.408000
H45 H 1.182000 0.603000 0.401000
H46 H 0.997000 0.689000 0.318000
H47 H 0.295000 0.881000 0.610000
H48 H 0.237000 0.722000 0.704000
H49 H 0.667000 0.569000 0.785000
H50 H 0.506000 0.673000 0.781000
H51 H 0.594000 0.643000 0.697000
H52 H 0.599000 0.424000 0.734000
H53 H 0.748000 0.316000 0.879000
H54 H 0.707000 0.241000 1.009000
H55 H 0.486000 0.293000 1.081000
H56 H 0.298000 0.441000 0.991000
H57 H 0.003000 0.311000 0.682000
H58 H -0.182000 0.397000 0.599000
H59 H -0.329000 0.300000 0.592000
H60 H -0.255000 0.075000 0.670000
H61 H -0.035000 -0.030000 0.736000
H62 H 0.121000 0.373000 0.798000
H63 H -0.033000 0.484000 0.914000
H64 H -0.085000 0.353000 1.031000
H65 H 0.016000 0.112000 1.045000
H66 H 0.141000 0.023000 0.927000
H67 H 0.222000 0.195000 0.737000
H68 H 0.536000 0.103000 0.914000
H69 H 0.464000 0.167000 0.817000
H70 H 0.367000 0.169000 0.910000
H71 H 0.421000 -0.043000 0.926000
H72 H 0.710000 -0.149000 0.942000
H73 H 0.910000 -0.277000 0.859000
H74 H 0.674000 -0.145000 0.653000
H75 H 0.906000 -0.279000 0.728000
H76 H 1.108000 0.046000 0.484000
C77 C -0.167500 0.314800 0.634300
C78 C -0.237500 0.243700 0.627300
C79 C -0.190700 0.118300 0.663100
C80 C -0.075200 0.058100 0.709900
C81 C -0.001600 0.128000 0.718500
C82 C 0.081300 0.328800 0.852200
C83 C 0.008400 0.383600 0.915000
C84 C -0.019400 0.311500 0.984100
C85 C 0.025300 0.178100 0.990600
C86 C 0.097700 0.122700 0.927400
C87 C 0.125600 0.196200 0.857000
C88 C 0.203900 0.135900 0.787700
C89 C 0.129400 0.064300 0.762800
C90 C 0.345000 0.023100 0.804300
C91 C 0.452000 0.133600 0.873300
C92 C 0.444700 0.003700 0.868800
C93 C 0.562400 1.002700 0.271100
C94 C 0.421300 1.085100 0.242800
C95 C 0.305700 1.154100 0.285300
C96 C 0.300500 0.534400 0.831500
C97 C 0.404300 0.451800 0.891100
C98 C 0.383600 0.409500 0.971200
C99 C 0.497500 0.330600 1.018700
C100 C 0.630500 0.298100 0.983100
C101 C 0.650800 0.341700 0.902200
C102 C 0.535400 0.420200 0.857300
C103 C 0.530500 0.488200 0.769900
C104 C 0.574800 0.602300 0.761000
C105 C 0.378000 0.532700 0.749500
C106 C 0.210600 0.590400 0.655300
C107 C 0.299900 0.646800 0.683400
C108 C 0.385000 0.684700 0.614300
C109 C 0.366600 0.814300 0.588900
C110 C 0.444400 0.847400 0.523100
C111 C 0.540800 0.755200 0.485600
C112 C 0.560800 0.626600 0.511800
C113 C 0.485000 0.591900 0.575500
C114 C 0.092500 0.663400 0.602400
C115 C 0.021100 0.599500 0.580000
C116 C -0.091700 0.669000 0.531000
C117 C -0.138900 0.801800 0.505100
C118 C -0.069400 0.863800 0.527700
C119 C 0.042900 0.796100 0.577500
C120 C 0.582400 -0.084600 0.836300
C121 C 0.708300 -0.154600 0.878200
C122 C 0.823800 -0.224900 0.835300
C123 C 0.815800 -0.226600 0.756100
C124 C 0.694300 -0.154100 0.714700
C125 C 0.578700 -0.085100 0.757200
C126 C 0.437600 -0.002700 0.728900
C127 C 0.184200 1.226600 0.243900
C128 C 0.176200 1.224900 0.164700
C129 C 0.291700 1.154600 0.121800
C130 C 1.048700 0.745000 0.318900
C131 C 1.167500 0.685200 0.365700
C132 C 1.237500 0.756300 0.372700
C133 C 1.190700 0.881700 0.336900
C134 C 1.075200 0.941900 0.290100
C135 C 1.001600 0.872000 0.281500
C136 C 0.918700 0.671200 0.147800
C137 C 0.991600 0.616400 0.085000
C138 C 1.019400 0.688500 0.015900
C139 C 0.417600 1.084600 0.163700
C140 C 0.555300 0.996300 0.131200
C141 C 0.548000 0.866400 0.126700
C142 C 0.699500 0.465600 0.168500
C143 C 0.595700 0.548200 0.108900
C144 C 0.616400 0.590500 0.028800
C145 C 0.502500 0.669400 -0.018700
C146 C 0.369500 0.701900 0.016900
C147 C 0.349200 0.658300 0.097800
C148 C 0.464600 0.579800 0.142700
C149 C 0.469500 0.511800 0.230100
C150 C 0.425200 0.397700 0.239000
C151 C 0.622000 0.467300 0.250500
C152 C 0.789400 0.409600 0.344700
C153 C 0.700100 0.353200 0.316600
C154 C 0.615000 0.315300 0.385700
C155 C 0.633400 0.185700 0.411100
C156 C 0.555600 0.152600 0.476900
C157 C 0.459200 0.244800 0.514400
C158 C 0.439200 0.373400 0.488200
C159 C 0.515000 0.408100 0.424500
C160 C 0.907500 0.336600 0.397600
C161 C 0.978900 0.400500 0.420000
C162 C 1.091700 0.331000 0.469000
C163 C 1.138900 0.198200 0.494900
C164 C 1.069400 0.136200 0.472300
C165 C 0.957100 0.203900 0.422500
C166 C 0.974700 0.821900 0.009400
C167 C 0.902300 0.877300 0.072600
C168 C 0.874400 0.803800 0.143000
C169 C 0.796100 0.864100 0.212300
C170 C 0.870600 0.935700 0.237200
C171 C 0.655000 0.976900 0.195700
C172 C -0.048700 0.255000 0.681100
N173 N 0.814200 1.058400 0.214400
N174 N 0.255100 0.467500 0.677000
N175 N 0.185800 -0.058400 0.785600
N176 N 0.744900 0.532500 0.323000
O177 O 0.824100 0.405700 0.161100
O178 O 0.370700 0.418900 0.727000
O179 O 0.175900 0.594300 0.838900
O180 O 0.629300 0.581100 0.273000
O181 O 0.689000 1.093400 0.173700
O182 O 0.395300 0.037200 0.661400
O183 O 0.311000 -0.093400 0.826300
O184 O 0.604700 0.962800 0.338600

#END
