./LABYOD_from_POSCAR.cif_generated_by_CrystalShift
_symmetry_cell_setting triclinic
_symmetry_space_group_name_H-M 'P 1'
loop_
_symmetry_equiv_pos_site_id
_symmetry_equiv_pos_as_xyz
1 x,y,z
_cell_length_a 11.135000
_cell_length_b 19.020000
_cell_length_c 11.430000
_cell_angle_alpha 90.000000
_cell_angle_beta 118.453000
_cell_angle_gamma 90.000000
_cell_volume 2128.328744
loop_
_atom_site_label
_atom_site_type_symbol
_atom_site_fract_x
_atom_site_fract_y
_atom_site_fract_z
H1 H -0.443400 0.549000 0.125800
H2 H -0.346200 0.504400 0.091200
H3 H -0.228400 0.685200 0.186300
H4 H -0.052300 0.635300 -0.044100
H5 H 0.740200 0.229400 0.072200
H6 H 0.634200 0.268900 0.101500
H7 H 0.118200 0.716700 0.072200
H8 H 0.797300 0.314600 0.285500
H9 H 0.506600 0.745500 0.634700
H10 H 0.670100 0.746300 0.859500
H11 H 1.026800 0.360700 0.439500
H12 H 0.657900 0.829100 1.004100
H13 H 1.178100 0.445500 0.578500
H14 H 0.474500 0.908800 0.925300
H15 H 0.310600 0.908600 0.701000
H16 H 1.082300 0.572900 0.261000
H17 H 0.068300 0.988500 0.380000
H18 H 0.931700 0.488500 0.120000
H19 H -0.082300 1.072900 0.239000
H20 H -0.178100 0.945500 -0.078500
H21 H 0.689400 0.408600 -0.201000
H22 H -0.026800 0.860700 0.060500
H23 H 0.525500 0.408800 -0.425300
H24 H 0.202700 0.814600 0.214500
H25 H 0.342100 0.329100 -0.504100
H26 H 0.365800 0.768900 0.398500
H27 H 0.329900 0.246300 -0.359500
H28 H 0.259800 0.729400 0.427800
H29 H 0.493400 0.245500 -0.134700
H30 H -0.321200 0.520500 -0.128200
H31 H -0.175200 0.546200 -0.090400
H32 H 0.881800 0.216700 0.427800
H33 H -0.443400 0.951000 0.625800
H34 H 1.052300 0.135300 0.544100
H35 H -0.346200 0.995600 0.591200
H36 H -0.286500 0.934600 0.695400
H37 H 1.228400 0.185200 0.313700
H38 H -0.406900 0.853000 0.526100
H39 H 1.052400 0.263600 0.195400
H40 H -0.286500 0.565400 0.195400
H41 H -0.464200 0.913600 0.423200
H42 H 1.321200 0.020500 0.628200
H43 H 1.175200 0.046200 0.590400
H44 H -0.317300 0.938800 0.183400
H45 H 1.265100 0.134700 0.749300
H46 H 1.413200 0.109800 0.786700
H47 H 1.317300 0.061200 0.816600
H48 H -0.413200 0.890200 0.213300
H49 H 1.464200 0.086400 0.576800
H50 H 1.406900 0.147000 0.473900
H51 H -0.265100 0.865300 0.250700
H52 H 1.286500 0.065400 0.304600
H53 H 1.346200 0.004400 0.408800
H54 H 1.443400 0.049000 0.374200
H55 H -0.175200 0.953800 0.409600
H56 H -0.321200 0.979500 0.371800
H57 H -0.406900 0.647000 0.026100
H58 H -0.464200 0.586400 -0.076800
H59 H -0.265100 0.634700 -0.249300
H60 H -0.052400 0.736400 0.804600
H61 H 0.740200 0.270600 0.572200
H62 H 0.634200 0.231100 0.601500
H63 H -0.228400 0.814800 0.686300
H64 H 0.797300 0.185400 0.785500
H65 H -0.052300 0.864700 0.455900
H66 H 0.118200 0.783300 0.572200
H67 H 1.026800 0.139300 0.939500
H68 H 0.506600 0.754500 1.134700
H69 H 1.178100 0.054500 1.078500
H70 H 0.670100 0.753700 1.359500
H71 H 0.657900 0.670900 1.504100
H72 H 1.082300 -0.072900 0.761000
H73 H 0.474500 0.591200 1.425300
H74 H 0.931700 0.011500 0.620000
H75 H 0.310600 0.591400 1.201000
H76 H 0.068300 0.511500 0.880000
H77 H 0.689400 0.091400 0.299000
H78 H -0.082300 0.427100 0.739000
H79 H 0.525500 0.091200 0.074700
H80 H -0.178100 0.554500 0.421500
H81 H 0.342100 0.170900 -0.004100
H82 H -0.026800 0.639300 0.560500
H83 H 0.329900 0.253700 0.140500
H84 H 0.202700 0.685400 0.714500
H85 H 0.493400 0.254500 0.365300
H86 H 0.365800 0.731100 0.898500
H87 H 0.259800 0.770600 0.927800
H88 H 0.881800 0.283300 0.927800
H89 H -0.413200 0.609800 -0.286700
H90 H 1.052300 0.364700 1.044100
H91 H -0.317300 0.561200 -0.316600
H92 H 1.443400 0.451000 0.874200
H93 H 1.228400 0.314800 0.813700
H94 H 1.346200 0.495600 0.908800
H95 H 1.052400 0.236400 0.695400
H96 H 1.286500 0.434600 0.804600
H97 H 1.406900 0.353000 0.973900
H98 H 1.321200 0.479500 1.128200
H99 H 1.175200 0.453800 1.090400
H100 H 1.464200 0.413600 1.076800
H101 H 1.265100 0.365300 1.249300
H102 H 1.413200 0.390200 1.286700
H103 H 1.317300 0.438800 1.316600
H104 H -0.052400 0.763600 0.304600
C105 C 1.320560 0.405180 1.255470
C106 C 1.267370 0.438590 1.120110
C107 C 1.363560 0.449590 0.885860
C108 C -0.386420 0.601480 0.003810
C109 C 1.053210 0.261890 0.768280
C110 C 1.157850 0.308650 0.838420
C111 C 1.236790 -0.069520 1.021010
C112 C -0.236790 1.069520 -0.021010
C113 C 1.163350 0.347660 0.945720
C114 C 1.055150 0.337720 0.974430
C115 C 0.296330 0.670170 1.001760
C116 C 0.282760 0.726170 0.903950
C117 C 0.952890 0.289770 0.903960
C118 C 0.949120 0.250680 0.800160
C119 C 0.166130 0.699030 0.772140
C120 C 0.499540 0.220370 0.306540
C121 C 0.036480 0.584220 0.734840
C122 C -0.038040 0.596070 0.597490
C123 C 0.402860 0.220030 0.173310
C124 C -0.127310 0.545840 0.515500
C125 C 0.410750 0.171750 0.087760
C126 C -0.145140 0.482790 0.566510
C127 C -0.071000 0.470670 0.702790
C128 C 0.518390 0.124140 0.134690
C129 C 0.018180 0.520440 0.786100
C130 C 0.614990 0.124250 0.267380
C131 C 0.394290 0.671550 1.143880
C132 C 0.385010 0.624250 1.232620
C133 C 0.605710 0.171550 0.356120
C134 C 0.481610 0.624140 1.365310
C135 C 0.981820 0.020440 0.713900
C136 C 0.589250 0.671750 1.412240
C137 C 1.071000 -0.029330 0.797210
C138 C 0.597140 0.720030 1.326690
C139 C 1.145140 -0.017210 0.933490
C140 C 0.500460 0.720370 1.193460
C141 C 1.127310 0.045840 0.984500
C142 C 0.050880 0.750680 0.699840
C143 C 0.047110 0.789770 0.596040
C144 C 1.038040 0.096070 0.902510
C145 C -0.055150 0.837720 0.525570
C146 C 0.963520 0.084220 0.765160
C147 C -0.163350 0.847660 0.554280
C148 C -0.157850 0.808650 0.661580
C149 C 0.833870 0.199030 0.727860
C150 C -0.053210 0.761890 0.731720
C151 C 0.717240 0.226170 0.596050
C152 C 0.703670 0.170170 0.498240
C153 C -0.267370 0.938590 0.379890
C154 C -0.363560 0.550410 0.114140
C155 C 1.236790 0.569520 0.521010
C156 C -0.320560 0.905180 0.244530
C157 C 1.363560 0.050410 0.385860
C158 C 1.386420 0.101480 0.496190
C159 C 1.320560 0.094820 0.755470
C160 C -0.386420 0.898520 0.503810
C161 C 1.267370 0.061410 0.620110
C162 C 1.053210 0.238110 0.268280
C163 C -0.363560 0.949590 0.614140
C164 C 1.157850 0.191350 0.338420
C165 C 1.163350 0.152340 0.445720
C166 C 1.055150 0.162280 0.474430
C167 C -0.236790 0.430480 0.478990
C168 C -0.320560 0.594820 -0.255470
C169 C 0.952890 0.210230 0.403960
C170 C 0.949120 0.249320 0.300160
C171 C 0.296330 0.829830 0.501760
C172 C 0.282760 0.773830 0.403950
C173 C 0.499540 0.279630 -0.193460
C174 C 0.402860 0.279970 -0.326690
C175 C 0.166130 0.800970 0.272140
C176 C 0.410750 0.328250 -0.412240
C177 C 0.036480 0.915780 0.234840
C178 C -0.038040 0.903930 0.097490
C179 C 0.518390 0.375860 -0.365310
C180 C -0.127310 0.954160 0.015500
C181 C 0.614990 0.375750 -0.232620
C182 C -0.145140 1.017210 0.066510
C183 C -0.071000 1.029330 0.202790
C184 C 0.605710 0.328450 -0.143880
C185 C 0.018180 0.979560 0.286100
C186 C 0.981820 0.479560 0.213900
C187 C 0.394290 0.828450 0.643880
C188 C 0.385010 0.875750 0.732620
C189 C 1.071000 0.529330 0.297210
C190 C 0.481610 0.875860 0.865310
C191 C 1.145140 0.517210 0.433490
C192 C 0.589250 0.828250 0.912240
C193 C 1.127310 0.454160 0.484500
C194 C 0.597140 0.779970 0.826690
C195 C 1.038040 0.403930 0.402510
C196 C 0.500460 0.779630 0.693460
C197 C 0.963520 0.415780 0.265160
C198 C 0.050880 0.749320 0.199840
C199 C 0.047110 0.710230 0.096040
C200 C 0.833870 0.300970 0.227860
C201 C -0.055150 0.662280 0.025570
C202 C 0.717240 0.273830 0.096050
C203 C -0.163350 0.652340 0.054280
C204 C -0.157850 0.691350 0.161580
C205 C 0.703670 0.329830 -0.001760
C206 C -0.053210 0.738110 0.231720
C207 C 1.386420 0.398520 0.996190
C208 C -0.267370 0.561410 -0.120110
N209 N -0.269590 0.607560 -0.019690
N210 N 0.207900 0.879780 0.450100
N211 N 0.124120 0.864880 0.317510
N212 N -0.309460 0.388720 0.408440
N213 N -0.269590 0.892440 0.480310
N214 N 0.207900 0.620220 0.950100
N215 N 0.124120 0.635120 0.817510
N216 N 1.269590 0.392440 1.019690
N217 N 0.792100 0.120220 0.549900
N218 N 0.875880 0.135120 0.682490
N219 N 1.309460 0.611280 0.591560
N220 N 1.269590 0.107560 0.519690
N221 N 0.792100 0.379780 0.049900
N222 N 1.309460 -0.111280 1.091560
N223 N 0.875880 0.364880 0.182490
N224 N -0.309460 1.111280 -0.091560

#END
