./LABZAS_from_POSCAR.cif_generated_by_CrystalShift
_symmetry_cell_setting triclinic
_symmetry_space_group_name_H-M 'P 1'
loop_
_symmetry_equiv_pos_site_id
_symmetry_equiv_pos_as_xyz
1 x,y,z
_cell_length_a 8.758000
_cell_length_b 9.019000
_cell_length_c 10.089000
_cell_angle_alpha 93.780000
_cell_angle_beta 98.830000
_cell_angle_gamma 107.130000
_cell_volume 747.306040
loop_
_atom_site_label
_atom_site_type_symbol
_atom_site_fract_x
_atom_site_fract_y
_atom_site_fract_z
H1 H 0.800100 0.820900 1.017700
H2 H 0.759000 1.041200 0.769900
H3 H 1.004600 0.724000 1.081800
H4 H 0.657400 0.940800 0.866200
H5 H 0.647600 0.910700 0.281800
H6 H 1.174900 0.699200 0.939300
H7 H 0.197700 0.463900 0.441300
H8 H 0.519600 0.319100 0.129900
H9 H 0.263700 0.445300 0.839100
H10 H 0.736300 0.554700 0.160900
H11 H 0.480400 0.680900 0.870100
H12 H 0.935200 0.889300 0.664900
H13 H 0.802300 0.536100 0.558700
H14 H 1.148000 0.796300 0.728100
H15 H 0.199900 0.179100 -0.017700
H16 H -0.004600 0.276000 -0.081800
H17 H -0.174900 0.300800 0.060700
H18 H -0.148000 0.203700 0.271900
H19 H 0.352400 0.089300 0.718200
H20 H 0.064800 0.110700 0.335100
H21 H 0.342600 0.059200 0.133800
H22 H 0.241000 -0.041200 0.230100
C23 C 0.155900 0.134300 0.171800
C24 C 0.051500 0.144300 0.250200
C25 C 0.287700 0.064500 0.209600
C26 C -0.075400 0.201300 0.214000
C27 C 0.444500 0.165800 0.765400
C28 C -0.093300 0.256400 0.086700
C29 C 0.555700 0.271800 0.685900
C30 C 0.009200 0.243800 0.003700
C31 C 0.400700 0.123900 0.457600
C32 C 0.130300 0.186000 0.041800
C33 C 0.534000 0.259900 0.551200
C34 C 0.844100 0.865700 0.828200
C35 C 1.093300 0.743600 0.913300
C36 C 0.612800 0.360600 0.456800
C37 C 0.467200 0.700800 0.674000
C38 C 1.075400 0.798700 0.786000
C39 C 0.744100 0.493400 0.472800
C40 C 0.424800 0.635500 0.784000
C41 C 0.790000 0.564100 0.360600
C42 C 0.293000 0.495800 0.765100
C43 C 0.707000 0.504200 0.234900
C44 C 0.210000 0.435900 0.639400
C45 C 0.255900 0.506600 0.527200
C46 C 0.575200 0.364500 0.216000
C47 C 0.387200 0.639400 0.543200
C48 C 0.466000 0.740100 0.448800
C49 C 0.599300 0.876100 0.542400
C50 C 0.444300 0.728200 0.314100
C51 C 0.555500 0.834200 0.234600
C52 C 0.990800 0.756200 0.996300
C53 C 0.712300 0.935500 0.790400
C54 C 0.532800 0.299200 0.326000
C55 C 0.869700 0.814000 0.958200
C56 C 0.948500 0.855700 0.749800
N57 N 0.592100 0.842400 0.670900
N58 N 0.407900 0.157600 0.329100
O59 O 0.469800 0.176200 0.884400
O60 O 0.530200 0.823800 0.115600
O61 O 0.306200 0.012800 0.490900
O62 O 0.693800 0.987200 0.509100
Br63 Br 0.280670 0.571850 0.206880
Br64 Br 0.974040 0.745260 0.388230
Br65 Br 0.719330 0.428150 0.793120
Br66 Br 0.025960 0.254740 0.611770

#END
