./LACCEX_from_POSCAR.cif_generated_by_CrystalShift
_symmetry_cell_setting triclinic
_symmetry_space_group_name_H-M 'P 1'
loop_
_symmetry_equiv_pos_site_id
_symmetry_equiv_pos_as_xyz
1 x,y,z
_cell_length_a 11.134000
_cell_length_b 7.689000
_cell_length_c 15.548000
_cell_angle_alpha 90.000000
_cell_angle_beta 95.620000
_cell_angle_gamma 90.000000
_cell_volume 1324.655793
loop_
_atom_site_label
_atom_site_type_symbol
_atom_site_fract_x
_atom_site_fract_y
_atom_site_fract_z
H1 H 0.588700 0.170200 0.630700
H2 H 0.862000 0.767100 0.380200
H3 H 1.068100 0.648800 0.430900
H4 H 1.057400 0.893400 0.776800
H5 H 1.216900 0.712900 0.732100
H6 H 1.204800 0.625100 0.580800
H7 H 0.411300 -0.329800 0.869300
H8 H 0.257500 0.114200 0.753800
H9 H 0.371600 0.251200 0.748500
H10 H 0.390600 0.047000 0.728000
H11 H 0.563100 0.083300 0.934300
H12 H 0.742500 0.614200 0.746200
H13 H 0.576500 0.035200 0.829900
H14 H 0.556800 0.229600 0.860400
H15 H 0.279200 0.148200 0.943700
H16 H 0.313000 0.446000 1.052100
H17 H 0.246500 0.587100 0.971600
H18 H 0.628400 0.751200 0.751500
H19 H 0.609400 0.547000 0.772000
H20 H 1.068100 0.851200 -0.069100
H21 H 0.862000 0.732900 -0.119800
H22 H 0.879500 0.536400 0.189800
H23 H 1.057400 0.606600 0.276800
H24 H 1.216900 0.787100 0.232100
H25 H 1.204800 0.874900 0.080800
H26 H 0.753500 0.412900 0.028400
H27 H 0.687000 0.554000 -0.052100
H28 H 0.720800 0.851800 0.056300
H29 H 0.443200 0.770400 0.139600
H30 H 0.423500 0.964800 0.170100
H31 H 0.436900 0.916700 0.065700
H32 H 0.609400 0.953000 0.272000
H33 H 0.628400 0.748800 0.251500
H34 H 0.742500 0.885800 0.246200
H35 H 0.588700 1.329800 0.130700
H36 H -0.204800 0.125100 0.919200
H37 H -0.216900 0.212900 0.767900
H38 H -0.057400 0.393400 0.723200
H39 H 0.120500 0.463600 0.810200
H40 H 0.138000 0.267100 1.119800
H41 H -0.068100 0.148800 1.069100
H42 H 0.753500 1.087100 0.528400
H43 H 0.687000 0.946000 0.447900
H44 H 0.720800 0.648200 0.556300
H45 H 0.411300 0.829800 0.369300
H46 H 0.257500 0.385800 0.253800
H47 H 0.436900 0.583300 0.565700
H48 H 0.371600 0.248800 0.248500
H49 H 0.390600 0.453000 0.228000
H50 H 0.563100 0.416700 0.434300
H51 H 0.576500 0.464800 0.329900
H52 H 0.556800 0.270400 0.360400
H53 H 0.423500 0.535200 0.670100
H54 H 0.443200 0.729600 0.639600
H55 H -0.068100 0.351200 0.569100
H56 H 0.138000 0.232900 0.619800
H57 H 0.120500 0.036400 0.310200
H58 H -0.057400 0.106600 0.223200
H59 H -0.216900 0.287100 0.267900
H60 H -0.204800 0.374900 0.419200
H61 H 0.246500 -0.087100 0.471600
H62 H 0.313000 0.054000 0.552100
H63 H 0.279200 0.351800 0.443700
H64 H 0.879500 0.963600 0.689800
C65 C 0.537100 0.385500 0.372600
C66 C 0.400000 0.407600 0.358100
C67 C 0.362000 0.593300 0.379900
C68 C 0.896900 0.721000 -0.059100
C69 C 0.343900 0.125000 0.424500
C70 C 0.264500 0.047300 0.488500
C71 C 0.853100 0.640800 0.009000
C72 C 0.103100 0.279000 1.059100
C73 C 0.146900 0.359200 0.991000
C74 C 0.058400 0.337000 0.919200
C75 C 0.050000 0.392000 0.832600
C76 C -0.052900 0.348900 0.779900
C77 C -0.146200 0.253400 0.810000
C78 C -0.140700 0.197700 0.894100
C79 C -0.038500 0.242100 0.947800
C80 C 0.264500 0.452700 0.988500
C81 C 0.343900 0.375000 0.924500
C82 C -0.038500 0.257900 0.447800
C83 C 0.941600 0.663000 0.080800
C84 C 0.362000 -0.093300 0.879900
C85 C 0.400000 0.092400 0.858100
C86 C 0.537100 0.114500 0.872600
C87 C 0.351900 0.128000 0.764500
C88 C -0.140700 0.302300 0.394100
C89 C -0.146200 0.246600 0.310000
C90 C -0.052900 0.151100 0.279900
C91 C 0.050000 0.108000 0.332600
C92 C 0.058400 0.163000 0.419200
C93 C 0.146900 0.140800 0.491000
C94 C 0.103100 0.221000 0.559100
C95 C 0.950000 0.608000 0.167400
C96 C 0.648100 0.872000 0.235500
C97 C 0.462900 0.885500 0.127400
C98 C 0.600000 0.907600 0.141900
C99 C 0.638000 1.093300 0.120100
C100 C 0.648100 0.628000 0.735500
C101 C 0.656100 0.625000 0.075500
C102 C 0.735500 0.547300 0.011500
C103 C 1.038500 0.757900 0.052200
C104 C 1.140700 0.802300 0.105900
C105 C 1.146200 0.746600 0.190000
C106 C 0.462900 0.614500 0.627400
C107 C 0.896900 0.779000 0.440900
C108 C 0.853100 0.859200 0.509000
C109 C 0.941600 0.837000 0.580800
C110 C 0.950000 0.892000 0.667400
C111 C 1.052900 0.848900 0.720100
C112 C 1.146200 0.753400 0.690000
C113 C 1.140700 0.697700 0.605900
C114 C 1.038500 0.742100 0.552200
C115 C 0.735500 0.952700 0.511500
C116 C 0.656100 0.875000 0.575500
C117 C 1.052900 0.651100 0.220100
C118 C 0.600000 0.592400 0.641900
C119 C 0.638000 0.406700 0.620100
C120 C 0.351900 0.372000 0.264500
N121 N 0.660900 0.797600 0.082600
N122 N -0.008700 0.291400 0.533900
N123 N 0.339100 0.202400 0.917400
N124 N -0.008700 0.208600 1.033900
N125 N 0.339100 0.297600 0.417400
N126 N 1.008700 0.708600 0.466100
N127 N 0.660900 0.702400 0.582600
N128 N 1.008700 0.791400 -0.033900
O129 O 0.564400 0.289100 0.644600
O130 O 0.590600 0.965000 0.617600
O131 O 0.271100 -0.123900 0.913700
O132 O 0.435600 -0.210900 0.855400
O133 O 0.409400 0.465000 0.882400
O134 O 0.271100 0.623900 0.413700
O135 O 0.435600 0.710900 0.355400
O136 O 0.409400 0.035000 0.382400
O137 O 0.728900 1.123900 0.086300
O138 O 0.564400 1.210900 0.144600
O139 O 0.590600 0.535000 0.117600
O140 O 0.728900 0.376100 0.586300

#END
