./LACFUQ_from_POSCAR.cif_generated_by_CrystalShift
_symmetry_cell_setting triclinic
_symmetry_space_group_name_H-M 'P 1'
loop_
_symmetry_equiv_pos_site_id
_symmetry_equiv_pos_as_xyz
1 x,y,z
_cell_length_a 9.937000
_cell_length_b 11.187000
_cell_length_c 6.743000
_cell_angle_alpha 102.300000
_cell_angle_beta 94.200000
_cell_angle_gamma 93.700000
_cell_volume 727.939802
loop_
_atom_site_label
_atom_site_type_symbol
_atom_site_fract_x
_atom_site_fract_y
_atom_site_fract_z
H1 H 0.885100 -0.049800 0.316500
H2 H 0.999300 -0.015500 0.185000
H3 H 0.700800 0.085500 -0.182300
H4 H 0.556100 0.140000 -0.208000
H5 H 0.520800 0.194400 0.308200
H6 H 0.371700 0.189300 0.493800
H7 H 0.223900 0.237600 0.524800
H8 H 0.177500 0.287300 0.037300
H9 H -0.327800 0.490900 0.127300
H10 H -0.150500 0.443500 0.332900
H11 H 0.019800 0.278400 -0.165100
H12 H -0.157500 0.325800 -0.370700
H13 H 0.114900 1.049800 0.683500
H14 H 0.040800 0.917500 0.630600
H15 H 0.000700 1.015500 0.815000
H16 H 0.299200 0.914500 1.182300
H17 H 0.443900 0.860000 1.208000
H18 H 0.479200 0.805600 0.691800
H19 H 0.628300 0.810700 0.506200
H20 H 0.776100 0.762400 0.475200
H21 H 0.822500 0.712700 0.962700
H22 H 1.157500 0.674200 1.370700
H23 H 0.980200 0.721600 1.165100
H24 H 1.150500 0.556500 0.667100
H25 H 1.327800 0.509100 0.872700
H26 H 0.959200 0.082500 0.369400
C27 C 1.260200 0.587000 1.142100
C28 C 1.156100 0.650600 1.229700
C29 C 0.280800 0.902800 0.787400
C30 C 0.374900 0.881900 1.125500
C31 C 0.384500 0.866900 0.928100
C32 C 1.049900 0.679000 1.106500
C33 C 1.047800 0.643700 0.895700
C34 C 0.611600 0.791800 0.895300
C35 C 1.151900 0.580100 0.808100
C36 C -0.260200 0.413000 -0.142100
C37 C -0.156100 0.349400 -0.229700
C38 C -0.049900 0.321000 -0.106500
C39 C -0.047800 0.356300 0.104300
C40 C -0.151900 0.419900 0.191900
C41 C -0.258100 0.448300 0.068700
C42 C 0.057000 0.321400 0.245300
C43 C 1.258100 0.551700 0.931300
C44 C 0.943000 0.678600 0.754700
C45 C 0.285400 0.237300 0.254700
C46 C 0.294600 0.219600 0.443200
C47 C 0.388400 0.208200 0.104700
C48 C 0.714600 0.762700 0.745300
C49 C 0.705400 0.780400 0.556800
C50 C 0.615500 0.133100 0.071900
C51 C 0.625100 0.118100 -0.125500
C52 C 0.719200 0.097200 0.212600
C53 C 0.925700 0.014500 0.260700
C54 C 0.074300 0.985500 0.739300
N55 N 0.172600 0.283100 0.162400
N56 N 0.507900 0.180800 0.177600
N57 N 0.492100 0.819200 0.822400
N58 N 0.827400 0.716900 0.837600
O59 O 0.705400 0.108300 0.391700
O60 O 0.040900 0.324500 0.421600
O61 O 0.175600 0.945500 0.874700
O62 O 0.642200 0.793700 1.075700
O63 O 0.959100 0.675500 0.578400
O64 O 0.357800 0.206300 -0.075700
O65 O 0.294600 0.891700 0.608300
O66 O 0.824400 0.054500 0.125300
Br67 Br -0.407800 0.441900 -0.310100
Br68 Br 1.407800 0.558100 1.310100

#END
