./LACHUV_from_POSCAR.cif_generated_by_CrystalShift
_symmetry_cell_setting triclinic
_symmetry_space_group_name_H-M 'P 1'
loop_
_symmetry_equiv_pos_site_id
_symmetry_equiv_pos_as_xyz
1 x,y,z
_cell_length_a 7.159600
_cell_length_b 13.357200
_cell_length_c 13.099900
_cell_angle_alpha 90.000000
_cell_angle_beta 98.358000
_cell_angle_gamma 90.000000
_cell_volume 1239.466871
loop_
_atom_site_label
_atom_site_type_symbol
_atom_site_fract_x
_atom_site_fract_y
_atom_site_fract_z
H1 H 0.939900 1.361900 0.199200
H2 H 1.211000 1.159100 0.389900
H3 H 0.586500 0.468200 0.780900
H4 H 0.814900 1.235700 0.089400
H5 H 0.314900 0.264300 0.589400
H6 H 1.086500 1.031800 0.280900
H7 H 0.711000 0.340900 0.889900
H8 H 0.799400 0.016200 0.520500
H9 H 0.637900 0.176700 0.849600
H10 H 0.570100 0.229900 0.328700
H11 H 0.439900 0.138100 0.699200
H12 H 0.700600 0.516200 -0.020500
H13 H 0.617300 0.063300 0.367500
H14 H 0.934200 0.135300 0.636300
H15 H 0.560100 0.861900 0.300800
H16 H 0.362100 0.823300 0.150400
H17 H 0.289000 0.659100 0.110100
H18 H 0.685100 0.735700 0.410600
H19 H 0.065800 0.864700 0.363700
H20 H 0.413500 0.531800 0.219100
H21 H 0.565800 0.635300 -0.136300
H22 H 0.382700 0.936700 0.632500
H23 H 0.299400 0.483800 1.020500
H24 H 0.429900 0.770100 0.671300
H25 H 0.070100 0.270100 0.828700
H26 H 0.200600 0.983800 0.479500
H27 H 0.117300 0.436700 0.867500
H28 H 0.929900 0.729900 0.171300
H29 H 1.137900 1.323300 0.349600
H30 H 0.434200 0.364700 1.136300
H31 H 0.882700 0.563300 0.132500
H32 H -0.086500 -0.031800 0.719100
H33 H 0.060100 -0.361900 0.800800
H34 H 0.185100 -0.235700 0.910600
H35 H -0.137900 -0.323300 0.650400
H36 H -0.211000 -0.159100 0.610100
C37 C -0.087700 -0.272420 0.694520
C38 C -0.131100 -0.174490 0.670550
C39 C 0.030700 -0.295470 0.784440
C40 C 0.105500 -0.219950 0.850100
C41 C -0.056700 -0.098080 0.735830
C42 C 0.207800 0.109420 0.948610
C43 C 0.222300 0.215230 0.959210
C44 C 0.283800 0.043060 1.020590
C45 C 0.142500 -0.042630 0.897740
C46 C 0.331300 0.245280 1.051540
C47 C 0.361100 0.345400 1.074900
C48 C 0.062200 -0.120710 0.826120
C49 C 0.857200 0.711230 0.109520
C50 C 0.171100 0.388060 0.913430
C51 C 0.719600 0.583830 -0.005530
C52 C 0.142800 0.288770 0.890480
C53 C 0.219600 0.916170 0.494470
C54 C 0.280400 0.416170 1.005530
C55 C 0.357200 0.788770 0.609520
C56 C 0.828900 0.611940 0.086570
C57 C 0.604900 0.925200 -0.116000
C58 C 0.328900 0.888060 0.586570
C59 C 0.562200 0.620710 0.326120
C60 C 0.443300 0.598080 0.235830
C61 C 0.104900 0.574800 0.384000
C62 C 0.605500 0.719950 0.350100
C63 C 0.138900 0.845400 0.425100
C64 C 0.368900 0.674490 0.170550
C65 C 0.168700 0.745280 0.448460
C66 C 0.412300 0.772420 0.194520
C67 C 0.357500 0.457370 0.602260
C68 C 0.530700 0.795470 0.284440
C69 C 0.216200 0.543060 0.479410
C70 C 0.638900 0.654600 -0.074900
C71 C 0.707800 0.390580 0.448610
C72 C 0.722300 0.284770 0.459210
C73 C 0.783800 0.456940 0.520590
C74 C 0.642500 0.542630 0.397740
C75 C 0.831300 0.254720 0.551540
C76 C 0.861100 0.154600 0.574900
C77 C 0.277700 0.715230 0.540790
C78 C 0.895100 0.425200 0.616000
C79 C 0.671100 0.111940 0.413430
C80 C 0.292200 0.609420 0.551390
C81 C 0.642800 0.211230 0.390480
C82 C 0.469300 0.204530 0.715560
C83 C 0.780400 0.083830 0.505530
C84 C 0.587700 0.227580 0.805480
C85 C 0.668700 0.754720 -0.051540
C86 C 0.857500 1.042630 0.102260
C87 C 0.716200 0.956940 -0.020590
C88 C 0.937800 1.120710 0.173880
C89 C 1.056700 1.098080 0.264170
C90 C 0.631100 0.325510 0.829450
C91 C 0.894500 1.219950 0.149900
C92 C 0.394500 0.280050 0.649900
C93 C 1.131100 1.174490 0.329450
C94 C 0.556700 0.401920 0.764170
C95 C 1.087700 1.272420 0.305480
C96 C 0.395100 0.074800 1.116000
C97 C 0.969300 1.295470 0.215560
C98 C 0.437800 0.379290 0.673880
C99 C 0.777700 0.784770 0.040790
C100 C 0.792200 0.890580 0.051390
N101 N 0.241600 -0.054600 0.988030
N102 N 0.258400 0.445400 0.511970
N103 N 0.758400 1.054600 0.011970
N104 N 0.741600 0.554600 0.488030
O105 O 0.913280 0.322140 0.625250
O106 O 0.114380 0.056500 0.867520
O107 O 0.470700 0.023900 1.185610
O108 O 0.970700 0.476100 0.685610
O109 O 0.413280 0.177860 1.125250
O110 O 0.385620 0.556500 0.632480
O111 O 0.029300 0.523900 0.314390
O112 O 0.614380 0.443500 0.367520
O113 O 0.086720 0.677860 0.374750
O114 O 0.586720 0.822140 -0.125250
O115 O 0.529300 0.976100 -0.185610
O116 O 0.885620 0.943500 0.132480

#END
