./LACJAD_from_POSCAR.cif_generated_by_CrystalShift
_symmetry_cell_setting triclinic
_symmetry_space_group_name_H-M 'P 1'
loop_
_symmetry_equiv_pos_site_id
_symmetry_equiv_pos_as_xyz
1 x,y,z
_cell_length_a 4.698500
_cell_length_b 16.230400
_cell_length_c 19.704200
_cell_angle_alpha 90.000000
_cell_angle_beta 90.000000
_cell_angle_gamma 90.000000
_cell_volume 1502.613414
loop_
_atom_site_label
_atom_site_type_symbol
_atom_site_fract_x
_atom_site_fract_y
_atom_site_fract_z
H1 H 0.632600 0.441200 0.952200
H2 H 0.042900 0.660600 0.815500
H3 H 0.217000 -0.017700 0.296800
H4 H 1.543900 0.124700 0.942900
H5 H -0.167300 0.703200 0.913700
H6 H 1.692600 0.122700 0.831200
H7 H 1.506600 0.214400 0.753400
H8 H 1.006600 0.285600 0.246600
H9 H 0.717000 0.517700 0.703200
H10 H 1.192600 0.377300 0.168800
H11 H 0.475300 0.491800 1.048100
H12 H 1.043900 0.375300 0.057100
H13 H 1.457100 0.339400 0.315500
H14 H 0.713900 0.280800 0.020200
H15 H 1.667300 0.296800 0.413700
H16 H 1.707800 0.302400 0.539000
H17 H 1.566500 0.354500 0.641000
H18 H 1.220500 0.456800 0.645600
H19 H 0.132600 0.058800 0.047800
H20 H 1.024700 0.508200 0.548100
H21 H 0.867400 0.558800 0.452200
H22 H 0.286100 0.780800 0.479800
H23 H -0.024700 0.008200 -0.048100
H24 H -0.043900 0.875300 0.442900
H25 H -0.220500 -0.043200 -0.145600
H26 H -0.192600 0.877300 0.331200
H27 H -0.566500 -0.145500 -0.141000
H28 H -0.006600 0.785600 0.253400
H29 H -0.707800 -0.197600 -0.039000
H30 H 0.279500 0.543200 1.145600
H31 H 0.783000 0.482300 0.203200
H32 H -0.667300 -0.203200 0.086300
H33 H -0.066500 0.645500 1.141000
H34 H -0.457100 -0.160600 0.184500
H35 H 0.957100 1.160600 0.684500
H36 H 1.167300 1.203200 0.586300
H37 H 1.207800 1.197600 0.461000
H38 H 1.066500 1.145500 0.359000
H39 H 0.283000 1.017700 0.796800
H40 H -0.207800 0.697600 1.039000
H41 H 1.213900 0.219200 0.979800
H42 H 0.720500 1.043200 0.354400
H43 H 0.524700 0.991800 0.451900
H44 H -0.506600 0.714400 0.746600
H45 H 0.367400 0.941200 0.547800
H46 H -0.692600 0.622700 0.668800
H47 H -0.213900 0.719200 0.520200
H48 H -0.543900 0.624700 0.557100
C49 C -0.273000 0.719070 0.565230
C50 C -0.468900 0.662690 0.587520
C51 C -0.163300 0.776430 0.611340
C52 C 0.090900 0.881170 0.649730
C53 C 0.293800 0.949530 0.646300
C54 C 0.415900 0.970470 0.586660
C55 C -0.557900 0.661220 0.655020
C56 C 0.617700 1.036230 0.581500
C57 C 0.741800 1.064180 0.518780
C58 C 0.660500 1.033370 0.454590
C59 C -0.449300 0.715940 0.701420
C60 C 0.778600 1.063820 0.396240
C61 C -0.251200 0.773800 0.679260
C62 C -0.069200 0.656700 1.040310
C63 C 0.050600 0.628090 0.978890
C64 C 1.069200 1.156700 0.459690
C65 C -0.028300 0.662460 0.915220
C66 C 0.949400 1.128090 0.521110
C67 C 1.028300 1.162460 0.584780
C68 C 0.138300 0.003250 0.207420
C69 C 0.905200 1.137090 0.643310
C70 C -0.197500 -0.074680 0.140810
C71 C 0.697500 1.074680 0.640810
C72 C 0.361700 0.996750 0.707420
C73 C -0.405200 -0.137090 0.143310
C74 C 0.014100 0.625680 1.101130
C75 C -0.528300 -0.162460 0.084780
C76 C -0.449400 -0.128090 0.021110
C77 C 0.221400 0.563820 1.103760
C78 C 0.248800 0.726200 0.320740
C79 C 0.050700 0.784060 0.298580
C80 C -0.569200 -0.156700 -0.040310
C81 C -0.057900 0.838780 0.344980
C82 C -0.485900 -0.125680 -0.101130
C83 C 0.031100 0.837310 0.412480
C84 C -0.278600 -0.063820 -0.103760
C85 C 0.227000 0.780930 0.434770
C86 C -0.160500 -0.033370 -0.045410
C87 C 0.336700 0.723570 0.388660
C88 C 0.590900 0.618830 0.350270
C89 C 0.793800 0.550470 0.353700
C90 C 0.915900 0.529530 0.413340
C91 C -0.241800 -0.064180 0.018780
C92 C 1.117700 0.463770 0.418500
C93 C 1.241800 0.435820 0.481220
C94 C 1.160500 0.466630 0.545410
C95 C -0.117700 -0.036230 0.081500
C96 C 1.278600 0.436180 0.603760
C97 C 0.084100 0.029530 0.086660
C98 C 1.485900 0.374320 0.601130
C99 C 0.206200 0.050470 0.146300
C100 C 1.569200 0.343300 0.540310
C101 C 0.409100 0.118830 0.149730
C102 C 1.449400 0.371910 0.478890
C103 C 1.528300 0.337540 0.415220
C104 C 0.663300 0.223570 0.111340
C105 C 1.405200 0.362910 0.356690
C106 C 0.773000 0.280930 0.065230
C107 C 1.197500 0.425320 0.359190
C108 C 0.861700 0.503250 0.292580
C109 C 0.968900 0.337310 0.087520
C110 C 0.339500 0.533370 1.045410
C111 C 1.057900 0.338780 0.155020
C112 C 0.258200 0.564180 0.981220
C113 C 0.382300 0.536230 0.918500
C114 C 1.251200 0.273800 0.820740
C115 C 1.449300 0.215940 0.798580
C116 C 0.949300 0.284060 0.201420
C117 C 1.557900 0.161220 0.844980
C118 C 0.751200 0.226200 0.179260
C119 C 1.468900 0.162690 0.912480
C120 C 0.094800 0.637090 0.856690
C121 C 1.273000 0.219070 0.934770
C122 C 0.985900 1.125680 0.398870
C123 C 1.163300 0.276430 0.888660
C124 C 0.909100 0.381170 0.850270
C125 C 0.706200 0.449530 0.853700
C126 C 0.584100 0.470470 0.913340
C127 C 0.638300 0.496750 0.792580
C128 C 0.302500 0.574680 0.859190
N129 N 0.262700 0.013620 0.263370
N130 N 0.762700 0.486380 0.736630
N131 N 0.471700 0.161900 0.096010
N132 N 0.528300 0.661900 0.403990
N133 N 0.237300 0.986380 0.763370
N134 N 0.737300 0.513620 0.236630
N135 N 0.028300 0.838100 0.596010
N136 N 0.971700 0.338100 0.903990
O137 O 1.077000 0.445820 0.298020
O138 O 0.423000 0.554180 0.798020
O139 O -0.077000 -0.054180 0.201980
O140 O 0.577000 1.054180 0.701980
S141 S 1.083100 0.351020 0.775410
S142 S -0.083100 0.851020 0.724590
S143 S 0.416900 0.648980 0.275410
S144 S 0.583100 0.148980 0.224590

#END
