./LACJEE_from_POSCAR.cif_generated_by_CrystalShift
_symmetry_cell_setting triclinic
_symmetry_space_group_name_H-M 'P 1'
loop_
_symmetry_equiv_pos_site_id
_symmetry_equiv_pos_as_xyz
1 x,y,z
_cell_length_a 5.231000
_cell_length_b 15.190000
_cell_length_c 5.396600
_cell_angle_alpha 90.000000
_cell_angle_beta 117.070000
_cell_angle_gamma 90.000000
_cell_volume 381.832463
loop_
_atom_site_label
_atom_site_type_symbol
_atom_site_fract_x
_atom_site_fract_y
_atom_site_fract_z
H1 H 1.511000 0.356000 1.115000
H2 H 0.932000 0.372000 0.881000
H3 H 1.102000 0.370000 1.172000
H4 H 1.292000 0.494000 1.138000
H5 H 1.151000 0.497000 0.844000
H6 H 0.489000 0.644000 0.885000
H7 H 0.602000 0.130000 0.672000
H8 H 0.432000 0.128000 0.381000
H9 H 0.651000 0.003000 0.344000
H10 H 0.792000 0.006000 0.638000
H11 H 0.809000 0.225000 0.484000
H12 H 1.011000 0.144000 0.615000
H13 H 0.691000 0.725000 1.016000
H14 H 0.708000 0.506000 0.862000
H15 H 0.349000 -0.003000 0.656000
H16 H 0.208000 -0.006000 0.362000
H17 H 0.849000 0.503000 1.156000
H18 H 0.398000 -0.130000 0.328000
H19 H 0.568000 -0.128000 0.619000
H20 H 1.068000 0.628000 1.119000
H21 H 0.191000 -0.225000 0.516000
H22 H -0.011000 -0.144000 0.385000
H23 H 0.898000 0.630000 0.828000
H24 H 1.511000 0.356000 0.115000
H25 H 1.309000 0.275000 -0.016000
H26 H 0.932000 0.372000 -0.119000
H27 H 1.102000 0.370000 0.172000
H28 H 1.292000 0.494000 0.138000
H29 H 1.151000 0.497000 -0.156000
H30 H 0.489000 0.644000 -0.115000
H31 H 0.602000 1.130000 0.672000
H32 H 0.432000 1.128000 0.381000
H33 H 0.651000 1.003000 0.344000
H34 H 0.792000 1.006000 0.638000
H35 H 0.809000 1.225000 0.484000
H36 H 1.011000 1.144000 0.615000
H37 H 0.691000 0.725000 0.016000
H38 H 0.708000 0.506000 -0.138000
H39 H 0.349000 0.997000 0.656000
H40 H 0.208000 0.994000 0.362000
H41 H 0.849000 0.503000 0.156000
H42 H 0.398000 0.870000 0.328000
H43 H 0.568000 0.872000 0.619000
H44 H 1.068000 0.628000 0.119000
H45 H 0.191000 0.775000 0.516000
H46 H -0.011000 0.856000 0.385000
H47 H 0.898000 0.630000 -0.172000
H48 H 0.511000 0.356000 1.115000
H49 H 0.309000 0.275000 0.984000
H50 H -0.068000 0.372000 0.881000
H51 H 0.102000 0.370000 1.172000
H52 H 0.292000 0.494000 1.138000
H53 H 0.151000 0.497000 0.844000
H54 H -0.511000 0.644000 0.885000
H55 H -0.102000 0.630000 -0.172000
H56 H 0.068000 0.628000 0.119000
H57 H -0.151000 0.503000 0.156000
H58 H -0.292000 0.506000 -0.138000
H59 H -0.309000 0.725000 0.016000
H60 H -0.511000 0.644000 -0.115000
H61 H -0.309000 0.725000 1.016000
H62 H -0.292000 0.506000 0.862000
H63 H 0.151000 0.497000 -0.156000
H64 H 0.292000 0.494000 0.138000
H65 H -0.151000 0.503000 1.156000
H66 H 0.102000 0.370000 0.172000
H67 H -0.068000 0.372000 -0.119000
H68 H 0.068000 0.628000 1.119000
H69 H 0.309000 0.275000 -0.016000
H70 H 0.511000 0.356000 0.115000
H71 H 1.309000 0.275000 0.984000
H72 H -0.102000 0.630000 0.828000
C73 C 0.371400 0.978100 0.502200
C74 C 1.330800 0.335000 0.960200
C75 C 0.628600 0.021900 0.497800
C76 C -0.128600 0.521900 1.002200
C77 C -0.330800 0.665000 1.039800
C78 C -0.306000 0.652000 1.329900
C79 C 0.830800 0.165000 0.460200
C80 C 0.306000 0.348000 -0.329900
C81 C 0.330800 0.335000 -0.039800
C82 C 1.128600 0.478100 0.997800
C83 C 0.128600 0.478100 -0.002200
C84 C -0.306000 0.652000 0.329900
C85 C 0.128600 0.478100 0.997800
C86 C 0.806000 0.152000 0.170100
C87 C -0.330800 0.665000 0.039800
C88 C -0.128600 0.521900 0.002200
C89 C 0.330800 0.335000 0.960200
C90 C 0.371400 -0.021900 0.502200
C91 C 0.169200 -0.165000 0.539800
C92 C 0.306000 0.348000 0.670100
C93 C 0.194000 -0.152000 0.829900
C94 C 0.694000 0.652000 1.329900
C95 C 0.669200 0.665000 1.039800
C96 C 0.871400 0.521900 1.002200
C97 C 1.306000 0.348000 -0.329900
C98 C 1.330800 0.335000 -0.039800
C99 C 0.628600 1.021900 0.497800
C100 C 0.871400 0.521900 0.002200
C101 C 0.669200 0.665000 0.039800
C102 C 0.694000 0.652000 0.329900
C103 C 0.830800 1.165000 0.460200
C104 C 0.194000 0.848000 0.829900
C105 C 0.169200 0.835000 0.539800
C106 C 1.128600 0.478100 -0.002200
C107 C 1.306000 0.348000 0.670100
C108 C 0.806000 1.152000 0.170100
N109 N 0.401900 0.880300 0.506200
N110 N 1.098100 0.380300 -0.006200
N111 N -0.098100 0.619700 1.006200
N112 N 0.901900 0.619700 0.006200
N113 N 1.098100 0.380300 0.993800
N114 N 0.598100 1.119700 0.493800
N115 N 0.098100 0.380300 -0.006200
N116 N 0.098100 0.380300 0.993800
N117 N -0.098100 0.619700 0.006200
N118 N 0.401900 -0.119700 0.506200
N119 N 0.598100 0.119700 0.493800
N120 N 0.901900 0.619700 1.006200
O121 O 0.473600 0.663800 1.360800
O122 O 0.935500 0.631900 1.519500
O123 O 1.064500 0.368100 -0.519500
O124 O 1.526400 0.336200 -0.360800
O125 O 0.526400 0.336200 0.639200
O126 O 0.435500 0.868100 1.019500
O127 O -0.026400 -0.163800 0.860800
O128 O -0.526400 0.663800 0.360800
O129 O -0.064500 0.631900 0.519500
O130 O 0.435500 -0.131900 1.019500
O131 O 1.026400 1.163800 0.139200
O132 O 0.473600 0.663800 0.360800
O133 O 0.564500 1.131900 -0.019500
O134 O 0.935500 0.631900 0.519500
O135 O 0.064500 0.368100 -0.519500
O136 O -0.026400 0.836200 0.860800
O137 O -0.064500 0.631900 1.519500
O138 O 0.064500 0.368100 0.480500
O139 O 0.564500 0.131900 -0.019500
O140 O -0.526400 0.663800 1.360800
O141 O 0.526400 0.336200 -0.360800
O142 O 1.026400 0.163800 0.139200
O143 O 1.526400 0.336200 0.639200
O144 O 1.064500 0.368100 0.480500

#END
