
#######################################################################
#
#                 Cambridge Crystallographic Data Centre
#                                CCDC 
#
#######################################################################
#
# If this CIF has been generated from an entry in the Cambridge 
# Structural Database, then it will include bibliographic, chemical, 
# crystal, experimental, refinement or atomic coordinate data resulting 
# from the CCDC's data processing and validation procedures.
#
#######################################################################

data_LACLAC
_symmetry_cell_setting           monoclinic
_symmetry_space_group_name_H-M   'P 21/c'
_symmetry_Int_Tables_number      14
_space_group_name_Hall           '-P 2ybc'
loop_
_symmetry_equiv_pos_site_id
_symmetry_equiv_pos_as_xyz
1 x,y,z
2 -x,1/2+y,1/2-z
3 -x,-y,-z
4 x,1/2-y,1/2+z
_cell_length_a                   13.499(3)
_cell_length_b                   6.289(1)
_cell_length_c                   11.151(6)
_cell_angle_alpha                90
_cell_angle_beta                 93.5(3)
_cell_angle_gamma                90
_cell_volume                     944.901
loop_
_atom_site_label
_atom_site_type_symbol
_atom_site_fract_x
_atom_site_fract_y
_atom_site_fract_z
O1 O 0.0912(1) 1.2937(3) 0.1664(2)
O2 O 0.2374(2) 1.4322(3) 0.1662(2)
O3 O 0.5076(1) 0.7977(3) 0.4369(2)
O4 O 0.5099(1) 0.9759(4) 0.2737(2)
O5 O 0.1020(1) 0.4955(3) 0.4009(2)
N1 N 0.1799(2) 1.2941(3) 0.1953(2)
N2 N 0.4652(1) 0.8956(3) 0.3547(2)
N3 N 0.0757(2) 0.7406(3) 0.5424(2)
C1 C 0.3206(1) 1.0907(3) 0.2819(2)
C2 C 0.1552(1) 0.9855(4) 0.3264(2)
C3 C 0.1941(1) 0.8168(3) 0.3942(2)
C4 C 0.2199(2) 1.1191(3) 0.2711(2)
C5 C 0.3568(1) 0.9205(3) 0.3498(2)
C6 C 0.2965(2) 0.7772(3) 0.4081(2)
C7 C 0.1206(2) 0.6685(4) 0.4478(2)
C8 C 0.3347(2) 0.5891(4) 0.4797(2)
H1 H 0.088(2) 0.867(5) 0.573(3)
H2 H 0.016(2) 0.661(4) 0.569(2)
H3 H 0.363(2) 1.184(4) 0.245(2)
H4 H 0.080(2) 1.007(4) 0.316(2)
H5 H 0.388(2) 0.511(4) 0.443(2)
H6 H 0.372(2) 0.662(4) 0.549(2)
H7 H 0.282(2) 0.498(4) 0.494(2)
O1 O 0.9088(1) 0.7937(3) 0.3336(2)
O2 O 0.7626(2) 0.9322(3) 0.3338(2)
O3 O 0.4924(1) 0.2977(3) 0.0631(2)
O4 O 0.4901(1) 0.4759(4) 0.2263(2)
O5 O 0.8980(1) -0.0045(3) 0.0991(2)
N1 N 0.8201(2) 0.7941(3) 0.3047(2)
N2 N 0.5348(1) 0.3956(3) 0.1453(2)
N3 N 0.9243(2) 0.2406(3) -0.0424(2)
C1 C 0.6794(1) 0.5907(3) 0.2181(2)
C2 C 0.8448(1) 0.4855(4) 0.1736(2)
C3 C 0.8059(1) 0.3168(3) 0.1058(2)
C4 C 0.7801(2) 0.6191(3) 0.2289(2)
C5 C 0.6432(1) 0.4205(3) 0.1502(2)
C6 C 0.7035(2) 0.2772(3) 0.0919(2)
C7 C 0.8794(2) 0.1685(4) 0.0522(2)
C8 C 0.6653(2) 0.0891(4) 0.0203(2)
H1 H 0.912(2) 0.367(5) -0.073(3)
H2 H 0.984(2) 0.161(4) -0.069(2)
H3 H 0.637(2) 0.684(4) 0.255(2)
H4 H 0.920(2) 0.507(4) 0.184(2)
H5 H 0.612(2) 0.011(4) 0.057(2)
H6 H 0.628(2) 0.162(4) -0.049(2)
H7 H 0.718(2) -0.002(4) 0.006(2)
O1 O 0.9088(1) -0.2937(3) 0.8336(2)
O2 O 0.7626(2) -0.4322(3) 0.8338(2)
O3 O 0.4924(1) 0.2023(3) 0.5631(2)
O4 O 0.4901(1) 0.0241(4) 0.7263(2)
O5 O 0.8980(1) 0.5045(3) 0.5991(2)
N1 N 0.8201(2) -0.2941(3) 0.8047(2)
N2 N 0.5348(1) 0.1044(3) 0.6453(2)
N3 N 0.9243(2) 0.2594(3) 0.4576(2)
C1 C 0.6794(1) -0.0907(3) 0.7181(2)
C2 C 0.8448(1) 0.0145(4) 0.6736(2)
C3 C 0.8059(1) 0.1832(3) 0.6058(2)
C4 C 0.7801(2) -0.1191(3) 0.7289(2)
C5 C 0.6432(1) 0.0795(3) 0.6502(2)
C6 C 0.7035(2) 0.2228(3) 0.5919(2)
C7 C 0.8794(2) 0.3315(4) 0.5522(2)
C8 C 0.6653(2) 0.4109(4) 0.5203(2)
H1 H 0.912(2) 0.133(5) 0.427(3)
H2 H 0.984(2) 0.339(4) 0.431(2)
H3 H 0.637(2) -0.184(4) 0.755(2)
H4 H 0.920(2) -0.007(4) 0.684(2)
H5 H 0.612(2) 0.489(4) 0.557(2)
H6 H 0.628(2) 0.338(4) 0.451(2)
H7 H 0.718(2) 0.502(4) 0.506(2)
O1 O 0.0912(1) 0.2063(3) 0.6664(2)
O2 O 0.2374(2) 0.0678(3) 0.6662(2)
O3 O 0.5076(1) 0.7023(3) 0.9369(2)
O4 O 0.5099(1) 0.5241(4) 0.7737(2)
O5 O 0.1020(1) 1.0045(3) 0.9009(2)
N1 N 0.1799(2) 0.2059(3) 0.6953(2)
N2 N 0.4652(1) 0.6044(3) 0.8547(2)
N3 N 0.0757(2) 0.7594(3) 1.0424(2)
C1 C 0.3206(1) 0.4093(3) 0.7819(2)
C2 C 0.1552(1) 0.5145(4) 0.8264(2)
C3 C 0.1941(1) 0.6832(3) 0.8942(2)
C4 C 0.2199(2) 0.3809(3) 0.7711(2)
C5 C 0.3568(1) 0.5795(3) 0.8498(2)
C6 C 0.2965(2) 0.7228(3) 0.9081(2)
C7 C 0.1206(2) 0.8315(4) 0.9478(2)
C8 C 0.3347(2) 0.9109(4) 0.9797(2)
H1 H 0.088(2) 0.633(5) 1.073(3)
H2 H 0.016(2) 0.839(4) 1.069(2)
H3 H 0.363(2) 0.316(4) 0.745(2)
H4 H 0.080(2) 0.493(4) 0.816(2)
H5 H 0.388(2) 0.989(4) 0.943(2)
H6 H 0.372(2) 0.838(4) 1.049(2)
H7 H 0.282(2) 1.002(4) 0.994(2)

#END
