./LACSUG_from_POSCAR.cif_generated_by_CrystalShift
_symmetry_cell_setting triclinic
_symmetry_space_group_name_H-M 'P 1'
loop_
_symmetry_equiv_pos_site_id
_symmetry_equiv_pos_as_xyz
1 x,y,z
_cell_length_a 8.487000
_cell_length_b 12.008000
_cell_length_c 10.786000
_cell_angle_alpha 90.000000
_cell_angle_beta 102.885000
_cell_angle_gamma 90.000000
_cell_volume 1071.542876
loop_
_atom_site_label
_atom_site_type_symbol
_atom_site_fract_x
_atom_site_fract_y
_atom_site_fract_z
H1 H 0.411800 0.290900 0.799300
H2 H 0.408700 1.151700 1.015800
H3 H 0.548900 0.445900 0.758200
H4 H 0.781600 0.453800 1.111600
H5 H 0.095200 1.011500 0.729800
H6 H 0.645200 0.300000 1.153300
H7 H -0.162000 0.645500 0.929400
H8 H -0.077000 0.640300 1.065900
H9 H 0.588200 0.790900 0.700700
H10 H 0.451100 0.945900 0.741800
H11 H 0.218400 0.953800 0.388400
H12 H 0.354800 0.800000 0.346700
H13 H -0.100600 0.788900 0.789700
H14 H 0.588200 0.709100 0.200700
H15 H 0.451100 0.554100 0.241800
H16 H 0.124800 0.773900 1.160300
H17 H 0.218400 0.546200 -0.111600
H18 H 0.270700 0.928800 1.135700
H19 H 0.354800 0.700000 -0.153300
H20 H 0.591300 0.651700 0.484200
H21 H 0.411800 0.209100 0.299300
H22 H 0.548900 0.054100 0.258200
H23 H 0.904800 0.511500 0.770200
H24 H 0.781600 0.046200 0.611600
H25 H 1.162000 0.145500 0.570600
H26 H 1.077000 0.140300 0.434100
H27 H 0.645200 0.200000 0.653300
H28 H 0.270700 0.571200 0.635700
H29 H 0.124800 0.726100 0.660300
H30 H -0.100600 0.711100 0.289700
H31 H 1.100600 0.288900 0.710300
H32 H -0.077000 0.859700 0.565900
H33 H -0.162000 0.854500 0.429400
H34 H 0.875200 0.273900 0.339700
H35 H 0.095200 0.488500 0.229800
H36 H 0.729300 0.428800 0.364300
H37 H 0.408700 0.348300 0.515800
H38 H 0.591300 -0.151700 -0.015800
H39 H 0.729300 0.071200 -0.135700
H40 H 0.875200 0.226100 -0.160300
H41 H 0.904800 -0.011500 0.270200
H42 H 1.100600 0.211100 0.210300
H43 H 1.162000 0.354500 0.070600
H44 H 1.077000 0.359700 -0.065900
C45 C 0.732500 -0.055600 0.069900
C46 C 0.822500 0.044700 0.051600
C47 C 0.938000 0.089240 0.154700
C48 C 1.026100 0.183070 0.140700
C49 C 0.570200 0.417300 0.840400
C50 C 1.004700 0.236320 0.023000
C51 C 0.890900 0.192100 -0.081000
C52 C 0.705300 0.421900 1.045800
C53 C 0.803500 0.099100 -0.065900
C54 C 0.623200 0.328600 1.071200
C55 C 0.267500 1.055600 0.930100
C56 C 0.512600 0.823400 0.634900
C57 C 0.177500 0.955300 0.948400
C58 C 0.429800 0.917300 0.659600
C59 C 0.803500 0.400900 0.434100
C60 C 0.062000 0.910760 0.845300
C61 C 0.890900 0.307900 0.419000
C62 C 1.004700 0.263680 0.523000
C63 C 0.267500 0.444400 0.430100
C64 C 0.177500 0.544700 0.448400
C65 C 0.062000 0.589240 0.345300
C66 C -0.026100 0.683070 0.359300
C67 C 1.026100 0.316930 0.640700
C68 C -0.004700 0.736320 0.477000
C69 C 0.109100 0.692100 0.581000
C70 C 0.938000 0.410760 0.654700
C71 C 0.196500 0.599100 0.565900
C72 C 0.822500 0.455300 0.551600
C73 C 0.294700 0.921900 0.454200
C74 C -0.026100 0.816930 0.859300
C75 C 0.623200 0.171400 0.571200
C76 C 0.732500 0.555600 0.569900
C77 C 0.705300 0.078100 0.545800
C78 C 0.487400 0.323400 0.865100
C79 C 0.570200 0.082700 0.340400
C80 C 0.376800 0.828600 0.428800
C81 C 0.487400 0.176600 0.365100
C82 C -0.004700 0.763680 0.977000
C83 C 0.512600 0.676600 0.134900
C84 C 0.109100 0.807900 1.081000
C85 C 0.376800 0.671400 -0.071200
C86 C 0.429800 0.582700 0.159600
C87 C 0.294700 0.578100 -0.045800
C88 C 0.196500 0.900900 1.065900
N89 N 1.091900 0.171910 0.507300
N90 N 0.319900 0.531750 0.068900
N91 N 0.486600 0.721340 0.018900
N92 N -0.091900 0.671910 0.992700
N93 N 0.486600 0.778660 0.518900
N94 N 0.319900 0.968250 0.568900
N95 N 0.680100 0.468250 0.931100
N96 N 0.680100 0.031750 0.431100
N97 N 0.513400 0.221340 0.481100
N98 N -0.091900 0.828090 0.492700
N99 N 1.091900 0.328090 0.007300
N100 N 0.513400 0.278660 0.981100
O101 O 0.633200 -0.093850 -0.032950
O102 O 0.366800 0.406150 0.532950
O103 O 0.253000 0.398500 0.325600
O104 O 0.966500 0.458810 0.771290
O105 O 0.747000 -0.101500 0.174400
O106 O 0.747000 0.601500 0.674400
O107 O 0.966500 0.041190 0.271290
O108 O 0.033500 0.958810 0.728710
O109 O 0.033500 0.541190 0.228710
O110 O 0.253000 1.101500 0.825600
O111 O 0.633200 0.593850 0.467050
O112 O 0.366800 1.093850 1.032950

#END
