./LACTIV_from_POSCAR.cif_generated_by_CrystalShift
_symmetry_cell_setting triclinic
_symmetry_space_group_name_H-M 'P 1'
loop_
_symmetry_equiv_pos_site_id
_symmetry_equiv_pos_as_xyz
1 x,y,z
_cell_length_a 9.766000
_cell_length_b 10.590000
_cell_length_c 12.255000
_cell_angle_alpha 79.179000
_cell_angle_beta 87.373000
_cell_angle_gamma 86.947000
_cell_volume 1242.302121
loop_
_atom_site_label
_atom_site_type_symbol
_atom_site_fract_x
_atom_site_fract_y
_atom_site_fract_z
H1 H 0.575600 0.129600 0.560200
H2 H 0.790900 1.138200 1.066500
H3 H 0.424400 0.870400 0.439800
H4 H 0.605200 0.704800 -0.046300
H5 H 0.505500 1.088700 0.856100
H6 H 0.394800 0.295200 1.046300
H7 H 0.734800 0.735600 0.612500
H8 H 0.875100 0.700900 0.654500
H9 H 0.251000 0.431700 1.131700
H10 H 0.282800 1.011700 0.523500
H11 H 0.924100 0.926200 0.926200
H12 H 0.474100 0.356500 0.868300
H13 H 0.582800 0.885500 0.687100
H14 H 0.186200 0.631500 1.039700
H15 H 0.964700 0.795600 0.798000
H16 H 0.490300 0.674300 0.533600
H17 H 0.206200 0.954800 0.703100
H18 H 0.509700 0.325700 0.466400
H19 H 0.749000 0.568300 -0.131700
H20 H 0.209100 -0.138200 -0.066500
H21 H 0.933400 0.713200 0.081200
H22 H 0.717200 -0.011700 0.476500
H23 H 0.494500 -0.088700 0.143900
H24 H 0.891700 0.137900 0.692100
H25 H 0.265200 0.264400 0.387500
H26 H 0.124900 0.299100 0.345500
H27 H 0.782200 0.849500 0.160900
H28 H 0.688200 0.787400 0.335700
H29 H 0.075900 0.073800 0.073800
H30 H 0.731300 0.272300 0.767600
H31 H 0.417200 0.114500 0.312900
H32 H 1.003900 0.520600 0.181100
H33 H 0.035300 0.204400 0.202000
H34 H 0.659300 0.465700 0.669100
H35 H 0.986800 0.204800 0.519800
H36 H 0.813800 0.368500 -0.039700
H37 H 0.525900 0.643500 0.131700
H38 H 0.066600 0.286800 0.918800
H39 H 0.108300 0.862100 0.307900
H40 H 0.217800 0.150500 0.839100
H41 H 0.311800 0.212600 0.664300
H42 H 0.268700 0.727700 0.232400
H43 H -0.003900 0.479400 0.818900
H44 H 0.013200 0.795200 0.480200
H45 H 0.340700 0.534300 0.330900
H46 H 0.793800 0.045200 0.296900
C47 C 0.059300 0.426900 0.787000
C48 C 0.079300 0.742500 0.451600
C49 C 0.232400 0.700700 0.304000
C50 C 0.218800 0.540700 0.470800
C51 C 0.248100 0.267000 0.693400
C52 C 0.207100 0.389700 0.627900
C53 C 0.193000 0.231000 0.798300
C54 C 0.110500 0.469600 0.677300
C55 C 0.134400 0.782000 0.348900
C56 C 0.120300 0.621100 0.518000
C57 C 0.100000 0.312300 0.846200
C58 C 0.583500 0.587300 0.098800
C59 C 0.223500 0.174600 0.269100
C60 C 0.756000 0.422000 -0.004200
C61 C 0.879700 0.378900 0.482000
C62 C 0.889500 0.530400 0.322700
C63 C 0.792900 0.610300 0.372100
C64 C 0.781200 0.459300 0.529200
C65 C 0.920700 0.257500 0.548400
C66 C 0.368600 0.022200 0.191000
C67 C 0.725100 0.415000 0.637900
C68 C 0.292700 -0.077600 0.037700
C69 C 0.940700 0.573100 0.213000
C70 C 0.119800 0.160400 0.198100
C71 C 0.767600 0.299300 0.696000
C72 C 0.348200 0.105100 0.265500
C73 C 0.751900 0.733000 0.306600
C74 C 0.144400 0.080600 0.122400
C75 C 0.807000 0.769000 0.201700
C76 C 0.268000 0.009200 0.115400
C77 C 0.865600 0.218000 0.651100
C78 C 0.691900 0.068800 0.436000
C79 C 0.900000 0.687700 0.153800
C80 C 0.717500 0.541000 -0.058700
C81 C 0.776500 0.825400 0.730900
C82 C 0.567200 0.271600 0.431300
C83 C 0.262600 0.897600 0.670500
C84 C 0.631400 0.977800 0.809000
C85 C 0.378800 0.536000 0.839700
C86 C 0.301100 0.773500 0.733800
C87 C 0.291500 0.621700 0.892800
C88 C 0.386500 0.686300 0.681300
C89 C 0.432800 0.728400 0.568700
C90 C 0.707300 1.077600 0.962300
C91 C 0.244000 0.578000 1.004200
C92 C 0.880200 0.839600 0.801900
C93 C 0.416500 0.412700 0.901200
C94 C 0.651800 0.894900 0.734500
C95 C 0.308100 0.931200 0.564000
C96 C 0.855600 0.919400 0.877600
C97 C 0.282500 0.459000 1.058700
C98 C 0.732000 0.990800 0.884600
C99 C 0.369400 0.376400 1.007000
C100 C 0.630600 0.623600 -0.007000
C101 C 0.394100 0.845100 0.513300
C102 C 0.605900 0.154900 0.486700
C103 C 0.613500 0.313700 0.318700
C104 C 0.708500 0.378300 0.107200
C105 C 0.737400 0.102400 0.329500
C106 C 0.274900 0.585000 0.362100
C107 C 0.621200 0.464000 0.160300
C108 C 0.698900 0.226500 0.266200
N109 N 0.745600 0.260100 0.160400
N110 N 0.574600 0.430000 0.264700
N111 N 0.254400 0.739900 0.839600
N112 N 0.425400 0.570000 0.735300
N113 N 0.738800 0.575600 0.474400
N114 N 0.933500 0.414200 0.379200
N115 N 0.261200 0.424400 0.525600
N116 N 0.066500 0.585800 0.620800
N117 N 0.201800 0.256100 0.343200
N118 N 0.798200 0.743900 0.656800
O119 O 0.190200 -0.082900 -0.028800
O120 O 0.490600 -0.045800 0.193300
O121 O 0.509400 1.045800 0.806700
O122 O 0.600700 1.144600 0.966900
O123 O 0.809800 1.082900 1.028800
O124 O 0.399300 -0.144600 0.033100

#END
