./KACHUU_from_xyz.cif_generated_by_CrystalShift
_symmetry_cell_setting triclinic
_symmetry_space_group_name_H-M 'P 1'
loop_
_symmetry_equiv_pos_site_id
_symmetry_equiv_pos_as_xyz
1 x,y,z
_cell_length_a 14.733600
_cell_length_b 18.208400
_cell_length_c 9.405700
_cell_angle_alpha 90.000000
_cell_angle_beta 94.715000
_cell_angle_gamma 90.000000
_cell_volume 2514.777620
loop_
_atom_site_label
_atom_site_type_symbol
_atom_site_fract_x
_atom_site_fract_y
_atom_site_fract_z
C1 C 0.305400 1.089670 0.351000
C2 C 0.362500 1.129010 0.441400
H3 H 0.343700 1.166700 0.502400
C4 C 0.453600 1.106770 0.433400
H5 H 0.503500 1.128100 0.489100
C6 C 0.463000 1.050980 0.336500
C7 C 0.546800 1.018430 0.295400
C8 C 0.555800 0.963830 0.194900
C9 C 0.648200 0.946410 0.172400
C10 C 0.709600 0.989610 0.250700
C11 C 0.807800 1.001470 0.244200
C12 C 0.882200 0.974630 0.337400
H13 H 0.876700 0.944400 0.418600
C14 C 0.965400 1.000400 0.289200
H15 H 1.023000 0.989700 0.337600
C16 C 0.956100 1.040700 0.170600
H17 H 1.006100 1.060200 0.125400
C18 C 0.754900 0.857760 0.071100
H19 H 0.800600 0.897600 0.071400
H20 H 0.757000 0.829700 -0.018700
C21 C 0.777600 0.807500 0.196800
H22 H 0.778000 0.835800 0.285500
H23 H 0.837800 0.785600 0.189300
H24 H 0.731700 0.768500 0.197300
C25 C 0.590400 0.856280 0.004700
C26 C 0.500400 0.883520 0.027300
C27 C 0.421200 0.849950 -0.057000
C28 C 0.533400 0.768120 -0.156100
C29 C 0.368000 0.759260 -0.234600
H30 H 0.392400 0.737300 -0.319800
H31 H 0.323500 0.797600 -0.267900
C32 C 0.319500 0.700830 -0.157600
H33 H 0.300100 0.721200 -0.067300
H34 H 0.361900 0.659600 -0.133600
C35 C 0.236200 0.672300 -0.248300
H36 H 0.201100 0.714900 -0.288300
H37 H 0.257400 0.644100 -0.329400
C38 C 0.174000 0.624600 -0.171600
H39 H 0.210500 0.585100 -0.122500
H40 H 0.130300 0.601000 -0.243100
C41 C 0.119600 0.664000 -0.060900
H42 H 0.092300 0.626800 -0.000600
H43 H 0.161700 0.694400 0.001800
C44 C 0.044800 0.712500 -0.129100
H45 H 0.072600 0.749700 -0.188800
H46 H 0.003600 0.681900 -0.193100
C47 C -0.010600 0.751100 -0.026500
H48 H -0.032800 0.715400 0.040600
H49 H -0.062500 0.775300 -0.078800
H50 H 0.027100 0.787900 0.026300
Br51 Br 0.179180 1.101833 0.315860
N52 N 0.482480 0.933310 0.119800
N53 N 0.663080 0.889840 0.077900
N54 N 0.605310 0.800940 -0.079100
N55 N 0.443300 0.794110 -0.146500
O56 O 0.343780 0.870350 -0.048200
O57 O 0.544650 0.715640 -0.232600
S58 S 0.358020 1.024150 0.255450
S59 S 0.652410 1.047510 0.360070
S60 S 0.846250 1.053610 0.108340
C61 C 0.694600 0.589670 0.149000
C62 C 0.637500 0.629010 0.058600
H63 H 0.656300 0.666700 -0.002400
C64 C 0.546400 0.606770 0.066600
H65 H 0.496500 0.628100 0.010900
C66 C 0.537000 0.550980 0.163500
C67 C 0.453200 0.518430 0.204600
C68 C 0.444200 0.463830 0.305100
C69 C 0.351800 0.446410 0.327600
C70 C 0.290400 0.489610 0.249300
C71 C 0.192200 0.501470 0.255800
C72 C 0.117800 0.474630 0.162600
H73 H 0.123300 0.444400 0.081400
C74 C 0.034600 0.500400 0.210800
H75 H -0.023000 0.489700 0.162400
C76 C 0.043900 0.540700 0.329400
H77 H -0.006100 0.560200 0.374600
C78 C 0.245100 0.357760 0.428900
H79 H 0.199400 0.397600 0.428600
H80 H 0.243000 0.329700 0.518700
C81 C 0.222400 0.307500 0.303200
H82 H 0.222000 0.335800 0.214500
H83 H 0.162200 0.285600 0.310700
H84 H 0.268300 0.268500 0.302700
C85 C 0.409600 0.356280 0.495300
C86 C 0.499600 0.383520 0.472700
C87 C 0.578800 0.349950 0.557000
C88 C 0.466600 0.268120 0.656100
C89 C 0.632000 0.259260 0.734600
H90 H 0.607600 0.237300 0.819800
H91 H 0.676500 0.297600 0.767900
C92 C 0.680500 0.200830 0.657600
H93 H 0.699900 0.221200 0.567300
H94 H 0.638100 0.159600 0.633600
C95 C 0.763800 0.172300 0.748300
H96 H 0.798900 0.214900 0.788300
H97 H 0.742600 0.144100 0.829400
C98 C 0.826000 0.124600 0.671600
H99 H 0.789500 0.085100 0.622500
H100 H 0.869700 0.101000 0.743100
C101 C 0.880400 0.164000 0.560900
H102 H 0.907700 0.126800 0.500600
H103 H 0.838300 0.194400 0.498200
C104 C 0.955200 0.212500 0.629100
H105 H 0.927400 0.249700 0.688800
H106 H 0.996400 0.181900 0.693100
C107 C 1.010600 0.251100 0.526500
H108 H 1.032800 0.215400 0.459400
H109 H 1.062500 0.275300 0.578800
H110 H 0.972900 0.287900 0.473700
Br111 Br 0.820820 0.601833 0.184140
N112 N 0.517520 0.433310 0.380200
N113 N 0.336920 0.389840 0.422100
N114 N 0.394690 0.300940 0.579100
N115 N 0.556700 0.294110 0.646500
O116 O 0.656220 0.370350 0.548200
O117 O 0.455350 0.215640 0.732600
S118 S 0.641980 0.524150 0.244550
S119 S 0.347590 0.547510 0.139930
S120 S 0.153750 0.553610 0.391660
C121 C 0.694600 -0.089670 0.649000
C122 C 0.637500 -0.129010 0.558600
H123 H 0.656300 -0.166700 0.497600
C124 C 0.546400 -0.106770 0.566600
H125 H 0.496500 -0.128100 0.510900
C126 C 0.537000 -0.050980 0.663500
C127 C 0.453200 -0.018430 0.704600
C128 C 0.444200 0.036170 0.805100
C129 C 0.351800 0.053590 0.827600
C130 C 0.290400 0.010390 0.749300
C131 C 0.192200 -0.001470 0.755800
C132 C 0.117800 0.025370 0.662600
H133 H 0.123300 0.055600 0.581400
C134 C 0.034600 -0.000400 0.710800
H135 H -0.023000 0.010300 0.662400
C136 C 0.043900 -0.040700 0.829400
H137 H -0.006100 -0.060200 0.874600
C138 C 0.245100 0.142240 0.928900
H139 H 0.199400 0.102400 0.928600
H140 H 0.243000 0.170300 1.018700
C141 C 0.222400 0.192500 0.803200
H142 H 0.222000 0.164200 0.714500
H143 H 0.162200 0.214400 0.810700
H144 H 0.268300 0.231500 0.802700
C145 C 0.409600 0.143720 0.995300
C146 C 0.499600 0.116480 0.972700
C147 C 0.578800 0.150050 1.057000
C148 C 0.466600 0.231880 1.156100
C149 C 0.632000 0.240740 1.234600
H150 H 0.607600 0.262700 1.319800
H151 H 0.676500 0.202400 1.267900
C152 C 0.680500 0.299170 1.157600
H153 H 0.699900 0.278800 1.067300
H154 H 0.638100 0.340400 1.133600
C155 C 0.763800 0.327700 1.248300
H156 H 0.798900 0.285100 1.288300
H157 H 0.742600 0.355900 1.329400
C158 C 0.826000 0.375400 1.171600
H159 H 0.789500 0.414900 1.122500
H160 H 0.869700 0.399000 1.243100
C161 C 0.880400 0.336000 1.060900
H162 H 0.907700 0.373200 1.000600
H163 H 0.838300 0.305600 0.998200
C164 C 0.955200 0.287500 1.129100
H165 H 0.927400 0.250300 1.188800
H166 H 0.996400 0.318100 1.193100
C167 C 1.010600 0.248900 1.026500
H168 H 1.032800 0.284600 0.959400
H169 H 1.062500 0.224700 1.078800
H170 H 0.972900 0.212100 0.973700
Br171 Br 0.820820 -0.101833 0.684140
N172 N 0.517520 0.066690 0.880200
N173 N 0.336920 0.110160 0.922100
N174 N 0.394690 0.199060 1.079100
N175 N 0.556700 0.205890 1.146500
O176 O 0.656220 0.129650 1.048200
O177 O 0.455350 0.284360 1.232600
S178 S 0.641980 -0.024150 0.744550
S179 S 0.347590 -0.047510 0.639930
S180 S 0.153750 -0.053610 0.891660
C181 C 0.305400 0.410330 0.851000
C182 C 0.362500 0.370990 0.941400
H183 H 0.343700 0.333300 1.002400
C184 C 0.453600 0.393230 0.933400
H185 H 0.503500 0.371900 0.989100
C186 C 0.463000 0.449020 0.836500
C187 C 0.546800 0.481570 0.795400
C188 C 0.555800 0.536170 0.694900
C189 C 0.648200 0.553590 0.672400
C190 C 0.709600 0.510390 0.750700
C191 C 0.807800 0.498530 0.744200
C192 C 0.882200 0.525370 0.837400
H193 H 0.876700 0.555600 0.918600
C194 C 0.965400 0.499600 0.789200
H195 H 1.023000 0.510300 0.837600
C196 C 0.956100 0.459300 0.670600
H197 H 1.006100 0.439800 0.625400
C198 C 0.754900 0.642240 0.571100
H199 H 0.800600 0.602400 0.571400
H200 H 0.757000 0.670300 0.481300
C201 C 0.777600 0.692500 0.696800
H202 H 0.778000 0.664200 0.785500
H203 H 0.837800 0.714400 0.689300
H204 H 0.731700 0.731500 0.697300
C205 C 0.590400 0.643720 0.504700
C206 C 0.500400 0.616480 0.527300
C207 C 0.421200 0.650050 0.443000
C208 C 0.533400 0.731880 0.343900
C209 C 0.368000 0.740740 0.265400
H210 H 0.392400 0.762700 0.180200
H211 H 0.323500 0.702400 0.232100
C212 C 0.319500 0.799170 0.342400
H213 H 0.300100 0.778800 0.432700
H214 H 0.361900 0.840400 0.366400
C215 C 0.236200 0.827700 0.251700
H216 H 0.201100 0.785100 0.211700
H217 H 0.257400 0.855900 0.170600
C218 C 0.174000 0.875400 0.328400
H219 H 0.210500 0.914900 0.377500
H220 H 0.130300 0.899000 0.256900
C221 C 0.119600 0.836000 0.439100
H222 H 0.092300 0.873200 0.499400
H223 H 0.161700 0.805600 0.501800
C224 C 0.044800 0.787500 0.370900
H225 H 0.072600 0.750300 0.311200
H226 H 0.003600 0.818100 0.306900
C227 C -0.010600 0.748900 0.473500
H228 H -0.032800 0.784600 0.540600
H229 H -0.062500 0.724700 0.421200
H230 H 0.027100 0.712100 0.526300
Br231 Br 0.179180 0.398167 0.815860
N232 N 0.482480 0.566690 0.619800
N233 N 0.663080 0.610160 0.577900
N234 N 0.605310 0.699060 0.420900
N235 N 0.443300 0.705890 0.353500
O236 O 0.343780 0.629650 0.451800
O237 O 0.544650 0.784360 0.267400
S238 S 0.358020 0.475850 0.755450
S239 S 0.652410 0.452490 0.860070
S240 S 0.846250 0.446390 0.608340

#END
