./KACHAZ_from_xyz.cif_generated_by_CrystalShift
_symmetry_cell_setting triclinic
_symmetry_space_group_name_H-M 'P 1'
loop_
_symmetry_equiv_pos_site_id
_symmetry_equiv_pos_as_xyz
1 x,y,z
_cell_length_a 6.554900
_cell_length_b 11.735600
_cell_length_c 15.024900
_cell_angle_alpha 80.721000
_cell_angle_beta 82.675000
_cell_angle_gamma 78.464000
_cell_volume 1112.198927
loop_
_atom_site_label
_atom_site_type_symbol
_atom_site_fract_x
_atom_site_fract_y
_atom_site_fract_z
Zr1 Zr 0.501960 0.346370 0.687542
Cl2 Cl 0.232720 0.445400 0.586590
Cl3 Cl 0.264540 0.250060 0.798300
C4 C 0.423200 0.495100 0.801720
C5 C 0.619300 0.422100 0.816220
H6 H 0.650100 0.368700 0.868600
C7 C 0.759000 0.442600 0.740200
H8 H 0.900700 0.406900 0.733000
C9 C 0.652400 0.525400 0.676500
H10 H 0.708600 0.554000 0.618400
C11 C 0.446900 0.558100 0.714690
H12 H 0.341700 0.613500 0.686500
C13 C 0.234100 0.508400 0.868600
H14 H 0.231000 0.433200 0.907600
H15 H 0.109000 0.527000 0.835700
C16 C 0.224700 0.601600 0.927000
H17 H 0.108000 0.612500 0.970200
C18 C 0.359200 0.668000 0.924200
H19 H 0.478700 0.660600 0.882200
H20 H 0.338400 0.724100 0.964200
C21 C 0.691500 0.131600 0.674690
C22 C 0.843100 0.205700 0.659910
H23 H 0.948800 0.202300 0.697600
C24 C 0.809800 0.285300 0.579760
H25 H 0.889700 0.342900 0.554500
C26 C 0.635800 0.262900 0.544660
H27 H 0.580400 0.301700 0.490800
C28 C 0.558400 0.172200 0.603880
H29 H 0.438200 0.143100 0.597700
P30 P 0.667760 -0.006390 0.749490
C31 C 0.826200 -0.111700 0.670820
C32 C 0.681500 -0.116600 0.598700
H33 H 0.657100 -0.041200 0.560500
H34 H 0.549100 -0.134500 0.628500
H35 H 0.747200 -0.177100 0.561900
C36 C 1.030500 -0.078800 0.622200
H37 H 1.094600 -0.136000 0.582200
H38 H 1.125300 -0.078100 0.666600
H39 H 1.001200 -0.001500 0.587000
C40 C 0.872100 -0.235100 0.725300
H41 H 0.932000 -0.291800 0.684300
H42 H 0.743100 -0.255200 0.757200
H43 H 0.970300 -0.236300 0.768700
C44 C 0.823200 -0.012000 0.849200
C45 C 0.747000 0.103700 0.888390
H46 H 0.595200 0.119700 0.896400
H47 H 0.796400 0.167200 0.847100
H48 H 0.801000 0.097400 0.946500
C49 C 1.062000 -0.031700 0.833100
H50 H 1.119100 -0.025900 0.888400
H51 H 1.103800 0.027400 0.785100
H52 H 1.114600 -0.109100 0.815700
C53 C 0.756900 -0.110200 0.921000
H54 H 0.801500 -0.185000 0.898400
H55 H 0.605900 -0.095100 0.933900
H56 H 0.821400 -0.112400 0.976000
Zr57 Zr 0.498040 0.653630 0.312458
Cl58 Cl 0.767280 0.554600 0.413410
Cl59 Cl 0.735460 0.749940 0.201700
C60 C 0.576800 0.504900 0.198280
C61 C 0.380700 0.577900 0.183780
H62 H 0.349900 0.631300 0.131400
C63 C 0.241000 0.557400 0.259800
H64 H 0.099300 0.593100 0.267000
C65 C 0.347600 0.474600 0.323500
H66 H 0.291400 0.446000 0.381600
C67 C 0.553100 0.441900 0.285310
H68 H 0.658300 0.386500 0.313500
C69 C 0.765900 0.491600 0.131400
H70 H 0.769000 0.566800 0.092400
H71 H 0.891000 0.473000 0.164300
C72 C 0.775300 0.398400 0.073000
H73 H 0.892000 0.387500 0.029800
C74 C 0.640800 0.332000 0.075800
H75 H 0.521300 0.339400 0.117800
H76 H 0.661600 0.275900 0.035800
C77 C 0.308500 0.868400 0.325310
C78 C 0.156900 0.794300 0.340090
H79 H 0.051200 0.797700 0.302400
C80 C 0.190200 0.714700 0.420240
H81 H 0.110300 0.657100 0.445500
C82 C 0.364200 0.737100 0.455340
H83 H 0.419600 0.698300 0.509200
C84 C 0.441600 0.827800 0.396120
H85 H 0.561800 0.856900 0.402300
P86 P 0.332240 1.006390 0.250510
C87 C 0.173800 1.111700 0.329180
C88 C 0.318500 1.116600 0.401300
H89 H 0.342900 1.041200 0.439500
H90 H 0.450900 1.134500 0.371500
H91 H 0.252800 1.177100 0.438100
C92 C -0.030500 1.078800 0.377800
H93 H -0.094600 1.136000 0.417800
H94 H -0.125300 1.078100 0.333400
H95 H -0.001200 1.001500 0.413000
C96 C 0.127900 1.235100 0.274700
H97 H 0.068000 1.291800 0.315700
H98 H 0.256900 1.255200 0.242800
H99 H 0.029700 1.236300 0.231300
C100 C 0.176800 1.012000 0.150800
C101 C 0.253000 0.896300 0.111610
H102 H 0.404800 0.880300 0.103600
H103 H 0.203600 0.832800 0.152900
H104 H 0.199000 0.902600 0.053500
C105 C -0.062000 1.031700 0.166900
H106 H -0.119100 1.025900 0.111600
H107 H -0.103800 0.972600 0.214900
H108 H -0.114600 1.109100 0.184300
C109 C 0.243100 1.110200 0.079000
H110 H 0.198500 1.185000 0.101600
H111 H 0.394100 1.095100 0.066100
H112 H 0.178600 1.112400 0.024000

#END
