./KACJUW_from_xyz.cif_generated_by_CrystalShift
_symmetry_cell_setting triclinic
_symmetry_space_group_name_H-M 'P 1'
loop_
_symmetry_equiv_pos_site_id
_symmetry_equiv_pos_as_xyz
1 x,y,z
_cell_length_a 5.200500
_cell_length_b 13.556000
_cell_length_c 15.621500
_cell_angle_alpha 73.584000
_cell_angle_beta 85.490000
_cell_angle_gamma 87.120000
_cell_volume 1052.667160
loop_
_atom_site_label
_atom_site_type_symbol
_atom_site_fract_x
_atom_site_fract_y
_atom_site_fract_z
Cl1 Cl 0.462000 0.662660 0.680290
Cl2 Cl 0.875700 0.913000 -0.328790
O3 O 0.137400 0.585600 0.326490
O4 O -0.158200 0.476700 0.121000
N5 N 0.448200 0.706600 0.292200
N6 N 0.427400 0.697500 0.031100
C7 C 0.286700 0.756000 0.426000
H8 H 0.171000 0.802400 0.391900
C9 C 0.289900 0.745500 0.516300
H10 H 0.176900 0.784900 0.543200
C11 C 0.458700 0.677500 0.565600
C12 C 0.628300 0.620000 0.527900
H13 H 0.745900 0.574800 0.562200
C14 C 0.623200 0.630000 0.437100
H15 H 0.735500 0.590200 0.410400
C16 C 0.452800 0.698500 0.386900
C17 C 0.812800 0.841600 0.081000
H18 H 0.825000 0.844700 0.020600
C19 C 0.973700 0.900900 0.111800
H20 H 1.093600 0.942700 0.072500
C21 C 0.953800 0.897200 0.201200
H22 H 1.059800 0.937400 0.222000
C23 C 0.779200 0.834800 0.259800
H24 H 0.767200 0.833900 0.319700
C25 C 0.618600 0.772400 0.230600
C26 C 0.633000 0.777500 0.138800
C27 C 0.460700 0.711900 0.114100
C28 C 0.295600 0.647600 0.175500
C29 C 0.281500 0.641800 0.269500
C30 C 0.248000 0.623700 0.042800
H31 H 0.195600 0.598800 -0.002500
C32 C 0.156000 0.591300 0.130700
C33 C -0.045600 0.519200 0.164800
H34 H -0.093600 0.503800 0.225700
C35 C 0.540000 0.750300 -0.055200
C36 C 0.452600 0.847100 -0.097600
H37 H 0.322900 0.879200 -0.069700
C38 C 0.556700 0.897900 -0.182400
H39 H 0.498300 0.963900 -0.211700
C40 C 0.745200 0.849300 -0.221800
C41 C 0.831600 0.752500 -0.180200
H42 H 0.960400 0.720500 -0.208500
C43 C 0.729200 0.702000 -0.096700
H44 H 0.787000 0.635600 -0.068300
Cl45 Cl 0.538000 0.337340 0.319710
Cl46 Cl 0.124300 0.087000 1.328790
O47 O 0.862600 0.414400 0.673510
O48 O 1.158200 0.523300 0.879000
N49 N 0.551800 0.293400 0.707800
N50 N 0.572600 0.302500 0.968900
C51 C 0.713300 0.244000 0.574000
H52 H 0.829000 0.197600 0.608100
C53 C 0.710100 0.254500 0.483700
H54 H 0.823100 0.215100 0.456800
C55 C 0.541300 0.322500 0.434400
C56 C 0.371700 0.380000 0.472100
H57 H 0.254100 0.425200 0.437800
C58 C 0.376800 0.370000 0.562900
H59 H 0.264500 0.409800 0.589600
C60 C 0.547200 0.301500 0.613100
C61 C 0.187200 0.158400 0.919000
H62 H 0.175000 0.155300 0.979400
C63 C 0.026300 0.099100 0.888200
H64 H -0.093600 0.057300 0.927500
C65 C 0.046200 0.102800 0.798800
H66 H -0.059800 0.062600 0.778000
C67 C 0.220800 0.165200 0.740200
H68 H 0.232800 0.166100 0.680300
C69 C 0.381400 0.227600 0.769400
C70 C 0.367000 0.222500 0.861200
C71 C 0.539300 0.288100 0.885900
C72 C 0.704400 0.352400 0.824500
C73 C 0.718500 0.358200 0.730500
C74 C 0.752000 0.376300 0.957200
H75 H 0.804400 0.401200 1.002500
C76 C 0.844000 0.408700 0.869300
C77 C 1.045600 0.480800 0.835200
H78 H 1.093600 0.496200 0.774300
C79 C 0.460000 0.249700 1.055200
C80 C 0.547400 0.152900 1.097600
H81 H 0.677100 0.120800 1.069700
C82 C 0.443300 0.102100 1.182400
H83 H 0.501700 0.036100 1.211700
C84 C 0.254800 0.150700 1.221800
C85 C 0.168400 0.247500 1.180200
H86 H 0.039600 0.279500 1.208500
C87 C 0.270800 0.298000 1.096700
H88 H 0.213000 0.364400 1.068300

#END
