./KACJOQ_from_xyz.cif_generated_by_CrystalShift
_symmetry_cell_setting triclinic
_symmetry_space_group_name_H-M 'P 1'
loop_
_symmetry_equiv_pos_site_id
_symmetry_equiv_pos_as_xyz
1 x,y,z
_cell_length_a 6.377500
_cell_length_b 12.168600
_cell_length_c 13.412100
_cell_angle_alpha 80.819000
_cell_angle_beta 88.955000
_cell_angle_gamma 75.537000
_cell_volume 994.698009
loop_
_atom_site_label
_atom_site_type_symbol
_atom_site_fract_x
_atom_site_fract_y
_atom_site_fract_z
Cl1 Cl 0.596600 0.583610 -0.437290
Cl2 Cl 0.831200 0.875370 0.604200
O3 O 1.062100 0.813770 -0.157850
O4 O 1.452900 1.009460 0.135820
N5 N 0.843200 0.720420 -0.060350
N6 N 1.051500 0.845060 0.177780
C7 C 0.711400 0.694700 0.212790
H8 H 0.745600 0.719300 0.271200
C9 C 0.568000 0.625800 0.217300
H10 H 0.508200 0.603400 0.278600
C11 C 0.513600 0.590400 0.131000
H12 H 0.415400 0.544900 0.134200
C13 C 0.603300 0.621500 0.040100
H14 H 0.565900 0.596400 -0.017500
C15 C 0.750400 0.690740 0.033240
C16 C 0.806500 0.728210 0.121530
C17 C 0.962700 0.796740 0.109020
C18 C 1.055200 0.822060 0.016610
C19 C 0.993300 0.787420 -0.074390
C20 C 1.204100 0.887260 0.028800
H21 H 1.288600 0.915800 -0.021100
C22 C 1.200600 0.900450 0.127650
C23 C 1.326800 0.959700 0.178680
H24 H 1.309800 0.959500 0.247700
C25 C 0.778300 0.684410 -0.150050
C26 C 0.572800 0.731700 -0.191480
H27 H 0.474700 0.785600 -0.160700
C28 C 0.512600 0.699100 -0.278600
H29 H 0.373100 0.728700 -0.305800
C30 C 0.663900 0.621500 -0.324200
C31 C 0.867800 0.573000 -0.283600
H32 H 0.966300 0.519900 -0.315100
C33 C 0.925400 0.604300 -0.194900
H34 H 1.062600 0.571500 -0.165800
C35 C 0.993400 0.851400 0.281350
C36 C 0.844900 0.946000 0.304060
H37 H 0.780000 1.004900 0.252700
C38 C 0.791300 0.953800 0.403300
H39 H 0.689800 1.017700 0.419200
C40 C 0.889700 0.866300 0.478410
C41 C 1.034500 0.770600 0.456200
H42 H 1.097300 0.711100 0.507600
C43 C 1.087100 0.762800 0.356500
H44 H 1.185300 0.697900 0.340500
Cl45 Cl 0.403400 0.416390 1.437290
Cl46 Cl 0.168800 0.124630 0.395800
O47 O -0.062100 0.186230 1.157850
O48 O -0.452900 -0.009460 0.864180
N49 N 0.156800 0.279580 1.060350
N50 N -0.051500 0.154940 0.822220
C51 C 0.288600 0.305300 0.787210
H52 H 0.254400 0.280700 0.728800
C53 C 0.432000 0.374200 0.782700
H54 H 0.491800 0.396600 0.721400
C55 C 0.486400 0.409600 0.869000
H56 H 0.584600 0.455100 0.865800
C57 C 0.396700 0.378500 0.959900
H58 H 0.434100 0.403600 1.017500
C59 C 0.249600 0.309260 0.966760
C60 C 0.193500 0.271790 0.878470
C61 C 0.037300 0.203260 0.890980
C62 C -0.055200 0.177940 0.983390
C63 C 0.006700 0.212580 1.074390
C64 C -0.204100 0.112740 0.971200
H65 H -0.288600 0.084200 1.021100
C66 C -0.200600 0.099550 0.872350
C67 C -0.326800 0.040300 0.821320
H68 H -0.309800 0.040500 0.752300
C69 C 0.221700 0.315590 1.150050
C70 C 0.427200 0.268300 1.191480
H71 H 0.525300 0.214400 1.160700
C72 C 0.487400 0.300900 1.278600
H73 H 0.626900 0.271300 1.305800
C74 C 0.336100 0.378500 1.324200
C75 C 0.132200 0.427000 1.283600
H76 H 0.033700 0.480100 1.315100
C77 C 0.074600 0.395700 1.194900
H78 H -0.062600 0.428500 1.165800
C79 C 0.006600 0.148600 0.718650
C80 C 0.155100 0.054000 0.695940
H81 H 0.220000 -0.004900 0.747300
C82 C 0.208700 0.046200 0.596700
H83 H 0.310200 -0.017700 0.580800
C84 C 0.110300 0.133700 0.521590
C85 C -0.034500 0.229400 0.543800
H86 H -0.097300 0.288900 0.492400
C87 C -0.087100 0.237200 0.643500
H88 H -0.185300 0.302100 0.659500

#END
