./KACKEE_from_xyz.cif_generated_by_CrystalShift
_symmetry_cell_setting triclinic
_symmetry_space_group_name_H-M 'P 1'
loop_
_symmetry_equiv_pos_site_id
_symmetry_equiv_pos_as_xyz
1 x,y,z
_cell_length_a 17.150000
_cell_length_b 17.150000
_cell_length_c 24.995000
_cell_angle_alpha 90.000000
_cell_angle_beta 90.000000
_cell_angle_gamma 120.000000
_cell_volume 6366.665472
loop_
_atom_site_label
_atom_site_type_symbol
_atom_site_fract_x
_atom_site_fract_y
_atom_site_fract_z
C1 C 0.063800 0.178200 0.110600
C2 C 0.037500 0.254600 0.106900
C3 C 0.046600 0.144900 0.167100
C4 C 0.108700 0.207400 0.197300
C5 C 0.168200 0.285200 0.161500
C6 C 0.108900 0.326400 0.144900
C7 C 0.225200 0.518000 0.037000
C8 C 0.200200 0.429800 0.067700
C9 C 0.140600 0.523900 0.032900
C10 C 0.086400 0.461200 -0.001100
C11 C 0.134200 0.412800 -0.020800
C12 C 0.137200 0.356900 0.027400
C13 C 0.047000 0.287400 0.049400
O14 O -0.017900 0.256100 0.020100
C15 C 0.154700 0.420600 0.121100
O16 O 0.217600 0.484700 0.158900
C17 C 0.166700 0.233300 0.111600
C18 C 0.231200 0.489700 -0.019800
C19 C -0.059200 0.221100 0.124800
H20 H 0.034900 0.132300 0.083800
H21 H -0.001500 0.087800 0.179000
H22 H 0.115000 0.204200 0.235300
H23 H 0.225700 0.328600 0.175700
H24 H 0.085000 0.338000 0.176700
H25 H 0.275600 0.570700 0.051900
H26 H 0.252400 0.426400 0.077800
H27 H 0.128400 0.565500 0.051600
H28 H 0.027300 0.448800 -0.011400
H29 H 0.109600 0.379000 -0.053100
H30 H 0.159600 0.317700 0.017100
H31 H 0.107100 0.433100 0.113800
H32 H 0.192200 0.270900 0.080700
H33 H 0.194700 0.197400 0.116800
H34 H 0.243100 0.535500 -0.045800
H35 H 0.274400 0.470000 -0.023600
H36 H -0.065900 0.202000 0.161400
H37 H -0.098600 0.171000 0.102700
H38 H -0.074100 0.267900 0.121400
H39 H 0.199200 0.522600 0.165500
C40 C 0.821800 0.885600 0.110600
C41 C 0.745400 0.782900 0.106900
C42 C 0.855100 0.901700 0.167100
C43 C 0.792600 0.901300 0.197300
C44 C 0.714800 0.883000 0.161500
C45 C 0.673600 0.782500 0.144900
C46 C 0.482000 0.707200 0.037000
C47 C 0.570200 0.770400 0.067700
C48 C 0.476100 0.616700 0.032900
C49 C 0.538800 0.625200 -0.001100
C50 C 0.587200 0.721400 -0.020800
C51 C 0.643100 0.780300 0.027400
C52 C 0.712600 0.759600 0.049400
O53 O 0.743900 0.726000 0.020100
C54 C 0.579400 0.734100 0.121100
O55 O 0.515300 0.732900 0.158900
C56 C 0.766700 0.933400 0.111600
C57 C 0.510300 0.741500 -0.019800
C58 C 0.778900 0.719700 0.124800
H59 H 0.867700 0.902600 0.083800
H60 H 0.912200 0.910700 0.179000
H61 H 0.795800 0.910800 0.235300
H62 H 0.671400 0.897100 0.175700
H63 H 0.662000 0.747000 0.176700
H64 H 0.429300 0.704900 0.051900
H65 H 0.573600 0.826000 0.077800
H66 H 0.434500 0.562900 0.051600
H67 H 0.551200 0.578500 -0.011400
H68 H 0.621000 0.730600 -0.053100
H69 H 0.682300 0.841900 0.017100
H70 H 0.566900 0.674000 0.113800
H71 H 0.729100 0.921300 0.080700
H72 H 0.802600 0.997300 0.116800
H73 H 0.464500 0.707600 -0.045800
H74 H 0.530000 0.804400 -0.023600
H75 H 0.798000 0.732100 0.161400
H76 H 0.829000 0.730400 0.102700
H77 H 0.732100 0.658000 0.121400
H78 H 0.477400 0.676600 0.165500
C79 C 0.114400 0.936200 0.110600
C80 C 0.217100 0.962500 0.106900
C81 C 0.098300 0.953400 0.167100
C82 C 0.098700 0.891300 0.197300
C83 C 0.117000 0.831800 0.161500
C84 C 0.217500 0.891100 0.144900
C85 C 0.292800 0.774800 0.037000
C86 C 0.229600 0.799800 0.067700
C87 C 0.383300 0.859400 0.032900
C88 C 0.374800 0.913600 -0.001100
C89 C 0.278600 0.865800 -0.020800
C90 C 0.219700 0.862800 0.027400
C91 C 0.240400 0.953000 0.049400
O92 O 0.274000 1.017900 0.020100
C93 C 0.265900 0.845300 0.121100
O94 O 0.267100 0.782400 0.158900
C95 C 0.066600 0.833300 0.111600
C96 C 0.258500 0.768800 -0.019800
C97 C 0.280300 1.059200 0.124800
H98 H 0.097400 0.965100 0.083800
H99 H 0.089300 1.001500 0.179000
H100 H 0.089200 0.885000 0.235300
H101 H 0.102900 0.774300 0.175700
H102 H 0.253000 0.915000 0.176700
H103 H 0.295100 0.724400 0.051900
H104 H 0.174000 0.747600 0.077800
H105 H 0.437100 0.871600 0.051600
H106 H 0.421500 0.972700 -0.011400
H107 H 0.269400 0.890400 -0.053100
H108 H 0.158100 0.840400 0.017100
H109 H 0.326000 0.892900 0.113800
H110 H 0.078700 0.807800 0.080700
H111 H 0.002700 0.805300 0.116800
H112 H 0.292400 0.756900 -0.045800
H113 H 0.195600 0.725600 -0.023600
H114 H 0.267900 1.065900 0.161400
H115 H 0.269600 1.098600 0.102700
H116 H 0.342000 1.074100 0.121400
H117 H 0.323400 0.800800 0.165500
C118 C 0.397100 -0.155100 0.777300
C119 C 0.370800 -0.078700 0.773600
C120 C 0.379900 -0.188400 0.833800
C121 C 0.442000 -0.125900 0.864000
C122 C 0.501500 -0.048100 0.828200
C123 C 0.442200 -0.006900 0.811600
C124 C 0.558500 0.184700 0.703700
C125 C 0.533500 0.096500 0.734400
C126 C 0.473900 0.190600 0.699600
C127 C 0.419700 0.127900 0.665600
C128 C 0.467500 0.079500 0.645900
C129 C 0.470500 0.023600 0.694100
C130 C 0.380300 -0.045900 0.716100
O131 O 0.315400 -0.077200 0.686800
C132 C 0.488000 0.087300 0.787800
O133 O 0.550900 0.151400 0.825600
C134 C 0.500000 -0.100000 0.778300
C135 C 0.564500 0.156400 0.646900
C136 C 0.274100 -0.112200 0.791500
H137 H 0.368200 -0.201000 0.750500
H138 H 0.331800 -0.245500 0.845700
H139 H 0.448300 -0.129100 0.902000
H140 H 0.559000 -0.004700 0.842400
H141 H 0.418300 0.004700 0.843400
H142 H 0.608900 0.237400 0.718600
H143 H 0.585700 0.093100 0.744500
H144 H 0.461700 0.232200 0.718300
H145 H 0.360600 0.115500 0.655300
H146 H 0.442900 0.045700 0.613600
H147 H 0.492900 -0.015600 0.683800
H148 H 0.440400 0.099800 0.780500
H149 H 0.525500 -0.062400 0.747400
H150 H 0.528000 -0.135900 0.783500
H151 H 0.576400 0.202200 0.620900
H152 H 0.607700 0.136700 0.643100
H153 H 0.267400 -0.131300 0.828100
H154 H 0.234700 -0.162300 0.769400
H155 H 0.259200 -0.065400 0.788100
H156 H 0.532500 0.189300 0.832200
C157 C 1.155100 0.552300 0.777300
C158 C 1.078700 0.449600 0.773600
C159 C 1.188400 0.568400 0.833800
C160 C 1.125900 0.568000 0.864000
C161 C 1.048100 0.549700 0.828200
C162 C 1.006900 0.449200 0.811600
C163 C 0.815300 0.373900 0.703700
C164 C 0.903500 0.437100 0.734400
C165 C 0.809400 0.283400 0.699600
C166 C 0.872100 0.291900 0.665600
C167 C 0.920500 0.388100 0.645900
C168 C 0.976400 0.447000 0.694100
C169 C 1.045900 0.426300 0.716100
O170 O 1.077200 0.392700 0.686800
C171 C 0.912700 0.400800 0.787800
O172 O 0.848600 0.399600 0.825600
C173 C 1.100000 0.600100 0.778300
C174 C 0.843600 0.408200 0.646900
C175 C 1.112200 0.386400 0.791500
H176 H 1.201000 0.569300 0.750500
H177 H 1.245500 0.577400 0.845700
H178 H 1.129100 0.577500 0.902000
H179 H 1.004700 0.563800 0.842400
H180 H 0.995300 0.413700 0.843400
H181 H 0.762600 0.371600 0.718600
H182 H 0.906900 0.492700 0.744500
H183 H 0.767800 0.229600 0.718300
H184 H 0.884500 0.245200 0.655300
H185 H 0.954300 0.397300 0.613600
H186 H 1.015600 0.508600 0.683800
H187 H 0.900200 0.340700 0.780500
H188 H 1.062400 0.588000 0.747400
H189 H 1.135900 0.664000 0.783500
H190 H 0.797800 0.374300 0.620900
H191 H 0.863300 0.471100 0.643100
H192 H 1.131300 0.398800 0.828100
H193 H 1.162300 0.397100 0.769400
H194 H 1.065400 0.324700 0.788100
H195 H 0.810700 0.343300 0.832200
C196 C 0.447700 0.602900 0.777300
C197 C 0.550400 0.629200 0.773600
C198 C 0.431600 0.620100 0.833800
C199 C 0.432000 0.558000 0.864000
C200 C 0.450300 0.498500 0.828200
C201 C 0.550800 0.557800 0.811600
C202 C 0.626100 0.441500 0.703700
C203 C 0.562900 0.466500 0.734400
C204 C 0.716600 0.526100 0.699600
C205 C 0.708100 0.580300 0.665600
C206 C 0.611900 0.532500 0.645900
C207 C 0.553000 0.529500 0.694100
C208 C 0.573700 0.619700 0.716100
O209 O 0.607300 0.684600 0.686800
C210 C 0.599200 0.512000 0.787800
O211 O 0.600400 0.449100 0.825600
C212 C 0.399900 0.500000 0.778300
C213 C 0.591800 0.435500 0.646900
C214 C 0.613600 0.725900 0.791500
H215 H 0.430700 0.631800 0.750500
H216 H 0.422600 0.668200 0.845700
H217 H 0.422500 0.551700 0.902000
H218 H 0.436200 0.441000 0.842400
H219 H 0.586300 0.581700 0.843400
H220 H 0.628400 0.391100 0.718600
H221 H 0.507300 0.414300 0.744500
H222 H 0.770400 0.538300 0.718300
H223 H 0.754800 0.639400 0.655300
H224 H 0.602700 0.557100 0.613600
H225 H 0.491400 0.507100 0.683800
H226 H 0.659300 0.559600 0.780500
H227 H 0.412000 0.474500 0.747400
H228 H 0.336000 0.472000 0.783500
H229 H 0.625700 0.423600 0.620900
H230 H 0.528900 0.392300 0.643100
H231 H 0.601200 0.732600 0.828100
H232 H 0.602900 0.765300 0.769400
H233 H 0.675300 0.740800 0.788100
H234 H 0.656700 0.467500 0.832200
C235 C 0.730500 0.511500 0.443900
C236 C 0.704200 0.587900 0.440200
C237 C 0.713300 0.478200 0.500400
C238 C 0.775400 0.540700 0.530600
C239 C 0.834900 0.618500 0.494800
C240 C 0.775600 0.659700 0.478200
C241 C 0.891900 0.851300 0.370300
C242 C 0.866900 0.763100 0.401000
C243 C 0.807300 0.857200 0.366200
C244 C 0.753100 0.794500 0.332200
C245 C 0.800900 0.746100 0.312500
C246 C 0.803900 0.690200 0.360700
C247 C 0.713700 0.620700 0.382700
O248 O 0.648800 0.589400 0.353400
C249 C 0.821400 0.753900 0.454400
O250 O 0.884300 0.818000 0.492200
C251 C 0.833400 0.566600 0.444900
C252 C 0.897900 0.823000 0.313500
C253 C 0.607500 0.554400 0.458100
H254 H 0.701600 0.465600 0.417100
H255 H 0.665200 0.421100 0.512300
H256 H 0.781700 0.537500 0.568600
H257 H 0.892400 0.661900 0.509000
H258 H 0.751700 0.671300 0.510000
H259 H 0.942300 0.904000 0.385200
H260 H 0.919100 0.759700 0.411100
H261 H 0.795100 0.898800 0.384900
H262 H 0.694000 0.782100 0.321900
H263 H 0.776300 0.712300 0.280200
H264 H 0.826300 0.651000 0.350400
H265 H 0.773800 0.766400 0.447100
H266 H 0.858900 0.604200 0.414000
H267 H 0.861400 0.530700 0.450100
H268 H 0.909800 0.868800 0.287500
H269 H 0.941100 0.803300 0.309700
H270 H 0.600800 0.535300 0.494700
H271 H 0.568100 0.504300 0.436000
H272 H 0.592600 0.601200 0.454700
H273 H 0.865900 0.855900 0.498800
C274 C 0.488500 0.218900 0.443900
C275 C 0.412100 0.116200 0.440200
C276 C 0.521800 0.235000 0.500400
C277 C 0.459300 0.234600 0.530600
C278 C 0.381500 0.216300 0.494800
C279 C 0.340300 0.115800 0.478200
C280 C 0.148700 0.040500 0.370300
C281 C 0.236900 0.103700 0.401000
C282 C 0.142800 -0.050000 0.366200
C283 C 0.205500 -0.041500 0.332200
C284 C 0.253900 0.054700 0.312500
C285 C 0.309800 0.113600 0.360700
C286 C 0.379300 0.092900 0.382700
O287 O 0.410600 0.059300 0.353400
C288 C 0.246100 0.067400 0.454400
O289 O 0.182000 0.066200 0.492200
C290 C 0.433400 0.266700 0.444900
C291 C 0.177000 0.074800 0.313500
C292 C 0.445600 0.053000 0.458100
H293 H 0.534400 0.235900 0.417100
H294 H 0.578900 0.244000 0.512300
H295 H 0.462500 0.244100 0.568600
H296 H 0.338100 0.230400 0.509000
H297 H 0.328700 0.080300 0.510000
H298 H 0.096000 0.038200 0.385200
H299 H 0.240300 0.159300 0.411100
H300 H 0.101200 -0.103800 0.384900
H301 H 0.217900 -0.088200 0.321900
H302 H 0.287700 0.063900 0.280200
H303 H 0.349000 0.175200 0.350400
H304 H 0.233600 0.007300 0.447100
H305 H 0.395800 0.254600 0.414000
H306 H 0.469300 0.330600 0.450100
H307 H 0.131200 0.040900 0.287500
H308 H 0.196700 0.137700 0.309700
H309 H 0.464700 0.065400 0.494700
H310 H 0.495700 0.063700 0.436000
H311 H 0.398800 -0.008700 0.454700
H312 H 0.144100 0.009900 0.498800
C313 C 0.781100 0.269500 0.443900
C314 C 0.883800 0.295800 0.440200
C315 C 0.765000 0.286700 0.500400
C316 C 0.765400 0.224600 0.530600
C317 C 0.783700 0.165100 0.494800
C318 C 0.884200 0.224400 0.478200
C319 C 0.959500 0.108100 0.370300
C320 C 0.896300 0.133100 0.401000
C321 C 1.050000 0.192700 0.366200
C322 C 1.041500 0.246900 0.332200
C323 C 0.945300 0.199100 0.312500
C324 C 0.886400 0.196100 0.360700
C325 C 0.907100 0.286300 0.382700
O326 O 0.940700 0.351200 0.353400
C327 C 0.932600 0.178600 0.454400
O328 O 0.933800 0.115700 0.492200
C329 C 0.733300 0.166600 0.444900
C330 C 0.925200 0.102100 0.313500
C331 C 0.947000 0.392500 0.458100
H332 H 0.764100 0.298400 0.417100
H333 H 0.756000 0.334800 0.512300
H334 H 0.755900 0.218300 0.568600
H335 H 0.769600 0.107600 0.509000
H336 H 0.919700 0.248300 0.510000
H337 H 0.961800 0.057700 0.385200
H338 H 0.840700 0.080900 0.411100
H339 H 1.103800 0.204900 0.384900
H340 H 1.088200 0.306000 0.321900
H341 H 0.936100 0.223700 0.280200
H342 H 0.824800 0.173700 0.350400
H343 H 0.992700 0.226200 0.447100
H344 H 0.745400 0.141100 0.414000
H345 H 0.669400 0.138600 0.450100
H346 H 0.959100 0.090200 0.287500
H347 H 0.862300 0.058900 0.309700
H348 H 0.934600 0.399200 0.494700
H349 H 0.936300 0.431900 0.436000
H350 H 1.008700 0.407400 0.454700
H351 H 0.990100 0.134100 0.498800
C352 C 0.936200 0.821800 0.889400
C353 C 0.962500 0.745400 0.893100
C354 C 0.953400 0.855100 0.832900
C355 C 0.891300 0.792600 0.802700
C356 C 0.831800 0.714800 0.838500
C357 C 0.891100 0.673600 0.855100
C358 C 0.774800 0.482000 0.963000
C359 C 0.799800 0.570200 0.932300
C360 C 0.859400 0.476100 0.967100
C361 C 0.913600 0.538800 1.001100
C362 C 0.865800 0.587200 1.020800
C363 C 0.862800 0.643100 0.972600
C364 C 0.953000 0.712600 0.950600
O365 O 1.017900 0.743900 0.979900
C366 C 0.845300 0.579400 0.878900
O367 O 0.782400 0.515300 0.841100
C368 C 0.833300 0.766700 0.888400
C369 C 0.768800 0.510300 1.019800
C370 C 1.059200 0.778900 0.875200
H371 H 0.965100 0.867700 0.916200
H372 H 1.001500 0.912200 0.821000
H373 H 0.885000 0.795800 0.764700
H374 H 0.774300 0.671400 0.824300
H375 H 0.915000 0.662000 0.823300
H376 H 0.724400 0.429300 0.948100
H377 H 0.747600 0.573600 0.922200
H378 H 0.871600 0.434500 0.948400
H379 H 0.972700 0.551200 1.011400
H380 H 0.890400 0.621000 1.053100
H381 H 0.840400 0.682300 0.982900
H382 H 0.892900 0.566900 0.886200
H383 H 0.807800 0.729100 0.919300
H384 H 0.805300 0.802600 0.883200
H385 H 0.756900 0.464500 1.045800
H386 H 0.725600 0.530000 1.023600
H387 H 1.065900 0.798000 0.838600
H388 H 1.098600 0.829000 0.897300
H389 H 1.074100 0.732100 0.878600
H390 H 0.800800 0.477400 0.834500
C391 C 0.178200 0.114400 0.889400
C392 C 0.254600 0.217100 0.893100
C393 C 0.144900 0.098300 0.832900
C394 C 0.207400 0.098700 0.802700
C395 C 0.285200 0.117000 0.838500
C396 C 0.326400 0.217500 0.855100
C397 C 0.518000 0.292800 0.963000
C398 C 0.429800 0.229600 0.932300
C399 C 0.523900 0.383300 0.967100
C400 C 0.461200 0.374800 1.001100
C401 C 0.412800 0.278600 1.020800
C402 C 0.356900 0.219700 0.972600
C403 C 0.287400 0.240400 0.950600
O404 O 0.256100 0.274000 0.979900
C405 C 0.420600 0.265900 0.878900
O406 O 0.484700 0.267100 0.841100
C407 C 0.233300 0.066600 0.888400
C408 C 0.489700 0.258500 1.019800
C409 C 0.221100 0.280300 0.875200
H410 H 0.132300 0.097400 0.916200
H411 H 0.087800 0.089300 0.821000
H412 H 0.204200 0.089200 0.764700
H413 H 0.328600 0.102900 0.824300
H414 H 0.338000 0.253000 0.823300
H415 H 0.570700 0.295100 0.948100
H416 H 0.426400 0.174000 0.922200
H417 H 0.565500 0.437100 0.948400
H418 H 0.448800 0.421500 1.011400
H419 H 0.379000 0.269400 1.053100
H420 H 0.317700 0.158100 0.982900
H421 H 0.433100 0.326000 0.886200
H422 H 0.270900 0.078700 0.919300
H423 H 0.197400 0.002700 0.883200
H424 H 0.535500 0.292400 1.045800
H425 H 0.470000 0.195600 1.023600
H426 H 0.202000 0.267900 0.838600
H427 H 0.171000 0.269600 0.897300
H428 H 0.267900 0.342000 0.878600
H429 H 0.522600 0.323400 0.834500
C430 C 0.885600 0.063800 0.889400
C431 C 0.782900 0.037500 0.893100
C432 C 0.901700 0.046600 0.832900
C433 C 0.901300 0.108700 0.802700
C434 C 0.883000 0.168200 0.838500
C435 C 0.782500 0.108900 0.855100
C436 C 0.707200 0.225200 0.963000
C437 C 0.770400 0.200200 0.932300
C438 C 0.616700 0.140600 0.967100
C439 C 0.625200 0.086400 1.001100
C440 C 0.721400 0.134200 1.020800
C441 C 0.780300 0.137200 0.972600
C442 C 0.759600 0.047000 0.950600
O443 O 0.726000 -0.017900 0.979900
C444 C 0.734100 0.154700 0.878900
O445 O 0.732900 0.217600 0.841100
C446 C 0.933400 0.166700 0.888400
C447 C 0.741500 0.231200 1.019800
C448 C 0.719700 -0.059200 0.875200
H449 H 0.902600 0.034900 0.916200
H450 H 0.910700 -0.001500 0.821000
H451 H 0.910800 0.115000 0.764700
H452 H 0.897100 0.225700 0.824300
H453 H 0.747000 0.085000 0.823300
H454 H 0.704900 0.275600 0.948100
H455 H 0.826000 0.252400 0.922200
H456 H 0.562900 0.128400 0.948400
H457 H 0.578500 0.027300 1.011400
H458 H 0.730600 0.109600 1.053100
H459 H 0.841900 0.159600 0.982900
H460 H 0.674000 0.107100 0.886200
H461 H 0.921300 0.192200 0.919300
H462 H 0.997300 0.194700 0.883200
H463 H 0.707600 0.243100 1.045800
H464 H 0.804400 0.274400 1.023600
H465 H 0.732100 -0.065900 0.838600
H466 H 0.730400 -0.098600 0.897300
H467 H 0.658000 -0.074100 0.878600
H468 H 0.676600 0.199200 0.834500
C469 C 0.602900 1.155100 0.222700
C470 C 0.629200 1.078700 0.226400
C471 C 0.620100 1.188400 0.166200
C472 C 0.558000 1.125900 0.136000
C473 C 0.498500 1.048100 0.171800
C474 C 0.557800 1.006900 0.188400
C475 C 0.441500 0.815300 0.296300
C476 C 0.466500 0.903500 0.265600
C477 C 0.526100 0.809400 0.300400
C478 C 0.580300 0.872100 0.334400
C479 C 0.532500 0.920500 0.354100
C480 C 0.529500 0.976400 0.305900
C481 C 0.619700 1.045900 0.283900
O482 O 0.684600 1.077200 0.313200
C483 C 0.512000 0.912700 0.212200
O484 O 0.449100 0.848600 0.174400
C485 C 0.500000 1.100000 0.221700
C486 C 0.435500 0.843600 0.353100
C487 C 0.725900 1.112200 0.208500
H488 H 0.631800 1.201000 0.249500
H489 H 0.668200 1.245500 0.154300
H490 H 0.551700 1.129100 0.098000
H491 H 0.441000 1.004700 0.157600
H492 H 0.581700 0.995300 0.156600
H493 H 0.391100 0.762600 0.281400
H494 H 0.414300 0.906900 0.255500
H495 H 0.538300 0.767800 0.281700
H496 H 0.639400 0.884500 0.344700
H497 H 0.557100 0.954300 0.386400
H498 H 0.507100 1.015600 0.316200
H499 H 0.559600 0.900200 0.219500
H500 H 0.474500 1.062400 0.252600
H501 H 0.472000 1.135900 0.216500
H502 H 0.423600 0.797800 0.379100
H503 H 0.392300 0.863300 0.356900
H504 H 0.732600 1.131300 0.171900
H505 H 0.765300 1.162300 0.230600
H506 H 0.740800 1.065400 0.211900
H507 H 0.467500 0.810700 0.167800
C508 C -0.155100 0.447700 0.222700
C509 C -0.078700 0.550400 0.226400
C510 C -0.188400 0.431600 0.166200
C511 C -0.125900 0.432000 0.136000
C512 C -0.048100 0.450300 0.171800
C513 C -0.006900 0.550800 0.188400
C514 C 0.184700 0.626100 0.296300
C515 C 0.096500 0.562900 0.265600
C516 C 0.190600 0.716600 0.300400
C517 C 0.127900 0.708100 0.334400
C518 C 0.079500 0.611900 0.354100
C519 C 0.023600 0.553000 0.305900
C520 C -0.045900 0.573700 0.283900
O521 O -0.077200 0.607300 0.313200
C522 C 0.087300 0.599200 0.212200
O523 O 0.151400 0.600400 0.174400
C524 C -0.100000 0.399900 0.221700
C525 C 0.156400 0.591800 0.353100
C526 C -0.112200 0.613600 0.208500
H527 H -0.201000 0.430700 0.249500
H528 H -0.245500 0.422600 0.154300
H529 H -0.129100 0.422500 0.098000
H530 H -0.004700 0.436200 0.157600
H531 H 0.004700 0.586300 0.156600
H532 H 0.237400 0.628400 0.281400
H533 H 0.093100 0.507300 0.255500
H534 H 0.232200 0.770400 0.281700
H535 H 0.115500 0.754800 0.344700
H536 H 0.045700 0.602700 0.386400
H537 H -0.015600 0.491400 0.316200
H538 H 0.099800 0.659300 0.219500
H539 H -0.062400 0.412000 0.252600
H540 H -0.135900 0.336000 0.216500
H541 H 0.202200 0.625700 0.379100
H542 H 0.136700 0.528900 0.356900
H543 H -0.131300 0.601200 0.171900
H544 H -0.162300 0.602900 0.230600
H545 H -0.065400 0.675300 0.211900
H546 H 0.189300 0.656700 0.167800
C547 C 0.552300 0.397100 0.222700
C548 C 0.449600 0.370800 0.226400
C549 C 0.568400 0.379900 0.166200
C550 C 0.568000 0.442000 0.136000
C551 C 0.549700 0.501500 0.171800
C552 C 0.449200 0.442200 0.188400
C553 C 0.373900 0.558500 0.296300
C554 C 0.437100 0.533500 0.265600
C555 C 0.283400 0.473900 0.300400
C556 C 0.291900 0.419700 0.334400
C557 C 0.388100 0.467500 0.354100
C558 C 0.447000 0.470500 0.305900
C559 C 0.426300 0.380300 0.283900
O560 O 0.392700 0.315400 0.313200
C561 C 0.400800 0.488000 0.212200
O562 O 0.399600 0.550900 0.174400
C563 C 0.600100 0.500000 0.221700
C564 C 0.408200 0.564500 0.353100
C565 C 0.386400 0.274100 0.208500
H566 H 0.569300 0.368200 0.249500
H567 H 0.577400 0.331800 0.154300
H568 H 0.577500 0.448300 0.098000
H569 H 0.563800 0.559000 0.157600
H570 H 0.413700 0.418300 0.156600
H571 H 0.371600 0.608900 0.281400
H572 H 0.492700 0.585700 0.255500
H573 H 0.229600 0.461700 0.281700
H574 H 0.245200 0.360600 0.344700
H575 H 0.397300 0.442900 0.386400
H576 H 0.508600 0.492900 0.316200
H577 H 0.340700 0.440400 0.219500
H578 H 0.588000 0.525500 0.252600
H579 H 0.664000 0.528000 0.216500
H580 H 0.374300 0.576400 0.379100
H581 H 0.471100 0.607700 0.356900
H582 H 0.398800 0.267400 0.171900
H583 H 0.397100 0.234700 0.230600
H584 H 0.324700 0.259200 0.211900
H585 H 0.343300 0.532500 0.167800
C586 C 0.269500 0.488500 0.556100
C587 C 0.295800 0.412100 0.559800
C588 C 0.286700 0.521800 0.499600
C589 C 0.224600 0.459300 0.469400
C590 C 0.165100 0.381500 0.505200
C591 C 0.224400 0.340300 0.521800
C592 C 0.108100 0.148700 0.629700
C593 C 0.133100 0.236900 0.599000
C594 C 0.192700 0.142800 0.633800
C595 C 0.246900 0.205500 0.667800
C596 C 0.199100 0.253900 0.687500
C597 C 0.196100 0.309800 0.639300
C598 C 0.286300 0.379300 0.617300
O599 O 0.351200 0.410600 0.646600
C600 C 0.178600 0.246100 0.545600
O601 O 0.115700 0.182000 0.507800
C602 C 0.166600 0.433400 0.555100
C603 C 0.102100 0.177000 0.686500
C604 C 0.392500 0.445600 0.541900
H605 H 0.298400 0.534400 0.582900
H606 H 0.334800 0.578900 0.487700
H607 H 0.218300 0.462500 0.431400
H608 H 0.107600 0.338100 0.491000
H609 H 0.248300 0.328700 0.490000
H610 H 0.057700 0.096000 0.614800
H611 H 0.080900 0.240300 0.588900
H612 H 0.204900 0.101200 0.615100
H613 H 0.306000 0.217900 0.678100
H614 H 0.223700 0.287700 0.719800
H615 H 0.173700 0.349000 0.649600
H616 H 0.226200 0.233600 0.552900
H617 H 0.141100 0.395800 0.586000
H618 H 0.138600 0.469300 0.549900
H619 H 0.090200 0.131200 0.712500
H620 H 0.058900 0.196700 0.690300
H621 H 0.399200 0.464700 0.505300
H622 H 0.431900 0.495700 0.564000
H623 H 0.407400 0.398800 0.545300
H624 H 0.134100 0.144100 0.501200
C625 C 0.511500 0.781100 0.556100
C626 C 0.587900 0.883800 0.559800
C627 C 0.478200 0.765000 0.499600
C628 C 0.540700 0.765400 0.469400
C629 C 0.618500 0.783700 0.505200
C630 C 0.659700 0.884200 0.521800
C631 C 0.851300 0.959500 0.629700
C632 C 0.763100 0.896300 0.599000
C633 C 0.857200 1.050000 0.633800
C634 C 0.794500 1.041500 0.667800
C635 C 0.746100 0.945300 0.687500
C636 C 0.690200 0.886400 0.639300
C637 C 0.620700 0.907100 0.617300
O638 O 0.589400 0.940700 0.646600
C639 C 0.753900 0.932600 0.545600
O640 O 0.818000 0.933800 0.507800
C641 C 0.566600 0.733300 0.555100
C642 C 0.823000 0.925200 0.686500
C643 C 0.554400 0.947000 0.541900
H644 H 0.465600 0.764100 0.582900
H645 H 0.421100 0.756000 0.487700
H646 H 0.537500 0.755900 0.431400
H647 H 0.661900 0.769600 0.491000
H648 H 0.671300 0.919700 0.490000
H649 H 0.904000 0.961800 0.614800
H650 H 0.759700 0.840700 0.588900
H651 H 0.898800 1.103800 0.615100
H652 H 0.782100 1.088200 0.678100
H653 H 0.712300 0.936100 0.719800
H654 H 0.651000 0.824800 0.649600
H655 H 0.766400 0.992700 0.552900
H656 H 0.604200 0.745400 0.586000
H657 H 0.530700 0.669400 0.549900
H658 H 0.868800 0.959100 0.712500
H659 H 0.803300 0.862300 0.690300
H660 H 0.535300 0.934600 0.505300
H661 H 0.504300 0.936300 0.564000
H662 H 0.601200 1.008700 0.545300
H663 H 0.855900 0.990100 0.501200
C664 C 0.218900 0.730500 0.556100
C665 C 0.116200 0.704200 0.559800
C666 C 0.235000 0.713300 0.499600
C667 C 0.234600 0.775400 0.469400
C668 C 0.216300 0.834900 0.505200
C669 C 0.115800 0.775600 0.521800
C670 C 0.040500 0.891900 0.629700
C671 C 0.103700 0.866900 0.599000
C672 C -0.050000 0.807300 0.633800
C673 C -0.041500 0.753100 0.667800
C674 C 0.054700 0.800900 0.687500
C675 C 0.113600 0.803900 0.639300
C676 C 0.092900 0.713700 0.617300
O677 O 0.059300 0.648800 0.646600
C678 C 0.067400 0.821400 0.545600
O679 O 0.066200 0.884300 0.507800
C680 C 0.266700 0.833400 0.555100
C681 C 0.074800 0.897900 0.686500
C682 C 0.053000 0.607500 0.541900
H683 H 0.235900 0.701600 0.582900
H684 H 0.244000 0.665200 0.487700
H685 H 0.244100 0.781700 0.431400
H686 H 0.230400 0.892400 0.491000
H687 H 0.080300 0.751700 0.490000
H688 H 0.038200 0.942300 0.614800
H689 H 0.159300 0.919100 0.588900
H690 H -0.103800 0.795100 0.615100
H691 H -0.088200 0.694000 0.678100
H692 H 0.063900 0.776300 0.719800
H693 H 0.175200 0.826300 0.649600
H694 H 0.007300 0.773800 0.552900
H695 H 0.254600 0.858900 0.586000
H696 H 0.330600 0.861400 0.549900
H697 H 0.040900 0.909800 0.712500
H698 H 0.137700 0.941100 0.690300
H699 H 0.065400 0.600800 0.505300
H700 H 0.063700 0.568100 0.564000
H701 H -0.008700 0.592600 0.545300
H702 H 0.009900 0.865900 0.501200

#END
