
#######################################################################
#
#                 Cambridge Crystallographic Data Centre
#                                CCDC 
#
#######################################################################
#
# If this CIF has been generated from an entry in the Cambridge 
# Structural Database, then it will include bibliographic, chemical, 
# crystal, experimental, refinement or atomic coordinate data resulting 
# from the CCDC's data processing and validation procedures.
#
#######################################################################

data_KACKEE
_symmetry_cell_setting           rhombohedral
_symmetry_space_group_name_H-M   'R -3'
_symmetry_Int_Tables_number      148
_space_group_name_Hall           '-R 3'
loop_
_symmetry_equiv_pos_site_id
_symmetry_equiv_pos_as_xyz
1 x,y,z
2 -y,x-y,z
3 -x+y,-x,z
4 1/3+x,2/3+y,2/3+z
5 1/3-y,2/3+x-y,2/3+z
6 1/3-x+y,2/3-x,2/3+z
7 2/3+x,1/3+y,1/3+z
8 2/3-y,1/3+x-y,1/3+z
9 2/3-x+y,1/3-x,1/3+z
10 -x,-y,-z
11 y,-x+y,-z
12 x-y,x,-z
13 2/3-x,1/3-y,1/3-z
14 2/3+y,1/3-x+y,1/3-z
15 2/3+x-y,1/3+x,1/3-z
16 1/3-x,2/3-y,2/3-z
17 1/3+y,2/3-x+y,2/3-z
18 1/3+x-y,2/3+x,2/3-z
_cell_length_a                   17.150(2)
_cell_length_b                   17.150(2)
_cell_length_c                   24.995(3)
_cell_angle_alpha                90
_cell_angle_beta                 90
_cell_angle_gamma                120
_cell_volume                     6366.67
loop_
_atom_site_label
_atom_site_type_symbol
_atom_site_fract_x
_atom_site_fract_y
_atom_site_fract_z
C1 C 0.0638(2) 0.1782(2) 0.1106(1)
C2 C 0.0375(1) 0.2546(1) 0.1069(1)
C3 C 0.0466(2) 0.1449(2) 0.1671(1)
C4 C 0.1087(2) 0.2074(2) 0.1973(1)
C5 C 0.1682(2) 0.2852(2) 0.1615(1)
C6 C 0.1089(1) 0.3264(1) 0.1449(1)
C7 C 0.2252(2) 0.5180(2) 0.0370(1)
C8 C 0.2002(1) 0.4298(1) 0.0677(1)
C9 C 0.1406(2) 0.5239(2) 0.0329(1)
C10 C 0.0864(2) 0.4612(2) -0.0011(1)
C11 C 0.1342(2) 0.4128(2) -0.0208(1)
C12 C 0.1372(2) 0.3569(2) 0.0274(1)
C13 C 0.0470(2) 0.2874(2) 0.0494(1)
O1 O -0.0179(1) 0.2561(2) 0.0201(1)
C14 C 0.1547(1) 0.4206(1) 0.1211(1)
O2 O 0.2176(1) 0.4847(1) 0.1589(1)
C15 C 0.1667(2) 0.2333(2) 0.1116(1)
C16 C 0.2312(2) 0.4897(2) -0.0198(1)
C17 C -0.0592(2) 0.2211(2) 0.1248(1)
H1 H 0.0349 0.1323 0.0838
H2 H -0.0015 0.0878 0.1790
H3 H 0.1150 0.2042 0.2353
H4 H 0.2257 0.3286 0.1757
H5 H 0.0850 0.3380 0.1767
H6 H 0.2756 0.5707 0.0519
H7 H 0.2524 0.4264 0.0778
H8 H 0.1284 0.5655 0.0516
H9 H 0.0273 0.4488 -0.0114
H10 H 0.1096 0.3790 -0.0531
H11 H 0.1596 0.3177 0.0171
H12 H 0.1071 0.4331 0.1138
H13 H 0.1922 0.2709 0.0807
H14 H 0.1947 0.1974 0.1168
H15 H 0.2431 0.5355 -0.0458
H16 H 0.2744 0.4700 -0.0236
H17 H -0.0659 0.2020 0.1614
H18 H -0.0986 0.1710 0.1027
H19 H -0.0741 0.2679 0.1214
H20 H 0.1992(16) 0.5226(17) 0.1655(10)
C1 C 0.8218(2) 0.8856(3) 0.1106(1)
C2 C 0.7454(1) 0.7829(1) 0.1069(1)
C3 C 0.8551(2) 0.9017(3) 0.1671(1)
C4 C 0.7926(2) 0.9013(3) 0.1973(1)
C5 C 0.7148(2) 0.8830(3) 0.1615(1)
C6 C 0.6736(1) 0.7825(1) 0.1449(1)
C7 C 0.4820(2) 0.7072(3) 0.0370(1)
C8 C 0.5702(1) 0.7704(1) 0.0677(1)
C9 C 0.4761(2) 0.6167(3) 0.0329(1)
C10 C 0.5388(2) 0.6252(3) -0.0011(1)
C11 C 0.5872(2) 0.7214(3) -0.0208(1)
C12 C 0.6431(2) 0.7803(3) 0.0274(1)
C13 C 0.7126(2) 0.7596(3) 0.0494(1)
O1 O 0.7439(2) 0.7260(2) 0.0201(1)
C14 C 0.5794(1) 0.7341(1) 0.1211(1)
O2 O 0.5153(1) 0.7329(1) 0.1589(1)
C15 C 0.7667(2) 0.9334(3) 0.1116(1)
C16 C 0.5103(2) 0.7415(3) -0.0198(1)
C17 C 0.7789(2) 0.7197(3) 0.1248(1)
H1 H 0.8677 0.9026 0.0838
H2 H 0.9122 0.9107 0.1790
H3 H 0.7958 0.9108 0.2353
H4 H 0.6714 0.8971 0.1757
H5 H 0.6620 0.7470 0.1767
H6 H 0.4293 0.7049 0.0519
H7 H 0.5736 0.8260 0.0778
H8 H 0.4345 0.5629 0.0516
H9 H 0.5512 0.5785 -0.0114
H10 H 0.6210 0.7306 -0.0531
H11 H 0.6823 0.8419 0.0171
H12 H 0.5669 0.6740 0.1138
H13 H 0.7291 0.9213 0.0807
H14 H 0.8026 0.9973 0.1168
H15 H 0.4645 0.7076 -0.0458
H16 H 0.5300 0.8044 -0.0236
H17 H 0.7980 0.7321 0.1614
H18 H 0.8290 0.7304 0.1027
H19 H 0.7321 0.6580 0.1214
H20 H 0.4774(17) 0.6766(23) 0.1655(10)
C1 C 0.1144(3) 0.9362(2) 0.1106(1)
C2 C 0.2171(1) 0.9625(1) 0.1069(1)
C3 C 0.0983(3) 0.9534(2) 0.1671(1)
C4 C 0.0987(3) 0.8913(2) 0.1973(1)
C5 C 0.1170(3) 0.8318(2) 0.1615(1)
C6 C 0.2175(1) 0.8911(1) 0.1449(1)
C7 C 0.2928(3) 0.7748(2) 0.0370(1)
C8 C 0.2296(1) 0.7998(1) 0.0677(1)
C9 C 0.3833(3) 0.8594(2) 0.0329(1)
C10 C 0.3748(3) 0.9136(2) -0.0011(1)
C11 C 0.2786(3) 0.8658(2) -0.0208(1)
C12 C 0.2197(3) 0.8628(2) 0.0274(1)
C13 C 0.2404(3) 0.9530(2) 0.0494(1)
O1 O 0.2740(2) 1.0179(1) 0.0201(1)
C14 C 0.2659(1) 0.8453(1) 0.1211(1)
O2 O 0.2671(1) 0.7824(1) 0.1589(1)
C15 C 0.0666(3) 0.8333(2) 0.1116(1)
C16 C 0.2585(3) 0.7688(2) -0.0198(1)
C17 C 0.2803(3) 1.0592(2) 0.1248(1)
H1 H 0.0974 0.9651 0.0838
H2 H 0.0893 1.0015 0.1790
H3 H 0.0892 0.8850 0.2353
H4 H 0.1029 0.7743 0.1757
H5 H 0.2530 0.9150 0.1767
H6 H 0.2951 0.7244 0.0519
H7 H 0.1740 0.7476 0.0778
H8 H 0.4371 0.8716 0.0516
H9 H 0.4215 0.9727 -0.0114
H10 H 0.2694 0.8904 -0.0531
H11 H 0.1581 0.8404 0.0171
H12 H 0.3260 0.8929 0.1138
H13 H 0.0787 0.8078 0.0807
H14 H 0.0027 0.8053 0.1168
H15 H 0.2924 0.7569 -0.0458
H16 H 0.1956 0.7256 -0.0236
H17 H 0.2679 1.0659 0.1614
H18 H 0.2696 1.0986 0.1027
H19 H 0.3420 1.0741 0.1214
H20 H 0.3234(23) 0.8008(16) 0.1655(10)
C1 C 0.3971(2) -0.1551(2) 0.7773(1)
C2 C 0.3708(1) -0.0787(1) 0.7736(1)
C3 C 0.3799(2) -0.1884(2) 0.8338(1)
C4 C 0.4420(2) -0.1259(2) 0.8640(1)
C5 C 0.5015(2) -0.0481(2) 0.8282(1)
C6 C 0.4422(1) -0.0069(1) 0.8116(1)
C7 C 0.5585(2) 0.1847(2) 0.7037(1)
C8 C 0.5335(1) 0.0965(1) 0.7344(1)
C9 C 0.4739(2) 0.1906(2) 0.6996(1)
C10 C 0.4197(2) 0.1279(2) 0.6656(1)
C11 C 0.4675(2) 0.0795(2) 0.6459(1)
C12 C 0.4705(2) 0.0236(2) 0.6941(1)
C13 C 0.3803(2) -0.0459(2) 0.7161(1)
O1 O 0.3154(1) -0.0772(2) 0.6868(1)
C14 C 0.4880(1) 0.0873(1) 0.7878(1)
O2 O 0.5509(1) 0.1514(1) 0.8256(1)
C15 C 0.5000(2) -0.1000(2) 0.7783(1)
C16 C 0.5645(2) 0.1564(2) 0.6469(1)
C17 C 0.2741(2) -0.1122(2) 0.7915(1)
H1 H 0.3682 -0.2010 0.7505
H2 H 0.3318 -0.2455 0.8457
H3 H 0.4483 -0.1291 0.9020
H4 H 0.5590 -0.0047 0.8424
H5 H 0.4183 0.0047 0.8434
H6 H 0.6089 0.2374 0.7186
H7 H 0.5857 0.0931 0.7445
H8 H 0.4617 0.2322 0.7183
H9 H 0.3606 0.1155 0.6553
H10 H 0.4429 0.0457 0.6136
H11 H 0.4929 -0.0156 0.6838
H12 H 0.4404 0.0998 0.7805
H13 H 0.5255 -0.0624 0.7474
H14 H 0.5280 -0.1359 0.7835
H15 H 0.5764 0.2022 0.6209
H16 H 0.6077 0.1367 0.6431
H17 H 0.2674 -0.1313 0.8281
H18 H 0.2347 -0.1623 0.7694
H19 H 0.2592 -0.0654 0.7881
H20 H 0.5325(16) 0.1893(17) 0.8322(10)
C1 C 1.1551(2) 0.5523(3) 0.7773(1)
C2 C 1.0787(1) 0.4496(1) 0.7736(1)
C3 C 1.1884(2) 0.5684(3) 0.8338(1)
C4 C 1.1259(2) 0.5680(3) 0.8640(1)
C5 C 1.0481(2) 0.5497(3) 0.8282(1)
C6 C 1.0069(1) 0.4492(1) 0.8116(1)
C7 C 0.8153(2) 0.3739(3) 0.7037(1)
C8 C 0.9035(1) 0.4371(1) 0.7344(1)
C9 C 0.8094(2) 0.2834(3) 0.6996(1)
C10 C 0.8721(2) 0.2919(3) 0.6656(1)
C11 C 0.9205(2) 0.3881(3) 0.6459(1)
C12 C 0.9764(2) 0.4470(3) 0.6941(1)
C13 C 1.0459(2) 0.4263(3) 0.7161(1)
O1 O 1.0772(2) 0.3927(2) 0.6868(1)
C14 C 0.9127(1) 0.4008(1) 0.7878(1)
O2 O 0.8486(1) 0.3996(1) 0.8256(1)
C15 C 1.1000(2) 0.6001(3) 0.7783(1)
C16 C 0.8436(2) 0.4082(3) 0.6469(1)
C17 C 1.1122(2) 0.3864(3) 0.7915(1)
H1 H 1.2010 0.5693 0.7505
H2 H 1.2455 0.5774 0.8457
H3 H 1.1291 0.5775 0.9020
H4 H 1.0047 0.5638 0.8424
H5 H 0.9953 0.4137 0.8434
H6 H 0.7626 0.3716 0.7186
H7 H 0.9069 0.4927 0.7445
H8 H 0.7678 0.2296 0.7183
H9 H 0.8845 0.2452 0.6553
H10 H 0.9543 0.3973 0.6136
H11 H 1.0156 0.5086 0.6838
H12 H 0.9002 0.3407 0.7805
H13 H 1.0624 0.5880 0.7474
H14 H 1.1359 0.6640 0.7835
H15 H 0.7978 0.3743 0.6209
H16 H 0.8633 0.4711 0.6431
H17 H 1.1313 0.3988 0.8281
H18 H 1.1623 0.3971 0.7694
H19 H 1.0654 0.3247 0.7881
H20 H 0.8107(17) 0.3433(23) 0.8322(10)
C1 C 0.4477(3) 0.6029(2) 0.7773(1)
C2 C 0.5504(1) 0.6292(1) 0.7736(1)
C3 C 0.4316(3) 0.6201(2) 0.8338(1)
C4 C 0.4320(3) 0.5580(2) 0.8640(1)
C5 C 0.4503(3) 0.4985(2) 0.8282(1)
C6 C 0.5508(1) 0.5578(1) 0.8116(1)
C7 C 0.6261(3) 0.4415(2) 0.7037(1)
C8 C 0.5629(1) 0.4665(1) 0.7344(1)
C9 C 0.7166(3) 0.5261(2) 0.6996(1)
C10 C 0.7081(3) 0.5803(2) 0.6656(1)
C11 C 0.6119(3) 0.5325(2) 0.6459(1)
C12 C 0.5530(3) 0.5295(2) 0.6941(1)
C13 C 0.5737(3) 0.6197(2) 0.7161(1)
O1 O 0.6073(2) 0.6846(1) 0.6868(1)
C14 C 0.5992(1) 0.5120(1) 0.7878(1)
O2 O 0.6004(1) 0.4491(1) 0.8256(1)
C15 C 0.3999(3) 0.5000(2) 0.7783(1)
C16 C 0.5918(3) 0.4355(2) 0.6469(1)
C17 C 0.6136(3) 0.7259(2) 0.7915(1)
H1 H 0.4307 0.6318 0.7505
H2 H 0.4226 0.6682 0.8457
H3 H 0.4225 0.5517 0.9020
H4 H 0.4362 0.4410 0.8424
H5 H 0.5863 0.5817 0.8434
H6 H 0.6284 0.3911 0.7186
H7 H 0.5073 0.4143 0.7445
H8 H 0.7704 0.5383 0.7183
H9 H 0.7548 0.6394 0.6553
H10 H 0.6027 0.5571 0.6136
H11 H 0.4914 0.5071 0.6838
H12 H 0.6593 0.5596 0.7805
H13 H 0.4120 0.4745 0.7474
H14 H 0.3360 0.4720 0.7835
H15 H 0.6257 0.4236 0.6209
H16 H 0.5289 0.3923 0.6431
H17 H 0.6012 0.7326 0.8281
H18 H 0.6029 0.7653 0.7694
H19 H 0.6753 0.7408 0.7881
H20 H 0.6567(23) 0.4675(16) 0.8322(10)
C1 C 0.7305(2) 0.5115(2) 0.4439(1)
C2 C 0.7042(1) 0.5879(1) 0.4402(1)
C3 C 0.7133(2) 0.4782(2) 0.5004(1)
C4 C 0.7754(2) 0.5407(2) 0.5306(1)
C5 C 0.8349(2) 0.6185(2) 0.4948(1)
C6 C 0.7756(1) 0.6597(1) 0.4782(1)
C7 C 0.8919(2) 0.8513(2) 0.3703(1)
C8 C 0.8669(1) 0.7631(1) 0.4010(1)
C9 C 0.8073(2) 0.8572(2) 0.3662(1)
C10 C 0.7531(2) 0.7945(2) 0.3322(1)
C11 C 0.8009(2) 0.7461(2) 0.3125(1)
C12 C 0.8039(2) 0.6902(2) 0.3607(1)
C13 C 0.7137(2) 0.6207(2) 0.3827(1)
O1 O 0.6488(1) 0.5894(2) 0.3534(1)
C14 C 0.8214(1) 0.7539(1) 0.4544(1)
O2 O 0.8843(1) 0.8180(1) 0.4922(1)
C15 C 0.8334(2) 0.5666(2) 0.4449(1)
C16 C 0.8979(2) 0.8230(2) 0.3135(1)
C17 C 0.6075(2) 0.5544(2) 0.4581(1)
H1 H 0.7016 0.4656 0.4171
H2 H 0.6652 0.4211 0.5123
H3 H 0.7817 0.5375 0.5686
H4 H 0.8924 0.6619 0.5090
H5 H 0.7517 0.6713 0.5100
H6 H 0.9423 0.9040 0.3852
H7 H 0.9191 0.7597 0.4111
H8 H 0.7951 0.8988 0.3849
H9 H 0.6940 0.7821 0.3219
H10 H 0.7763 0.7123 0.2802
H11 H 0.8263 0.6510 0.3504
H12 H 0.7738 0.7664 0.4471
H13 H 0.8589 0.6042 0.4140
H14 H 0.8614 0.5307 0.4501
H15 H 0.9098 0.8688 0.2875
H16 H 0.9411 0.8033 0.3097
H17 H 0.6008 0.5353 0.4947
H18 H 0.5681 0.5043 0.4360
H19 H 0.5926 0.6012 0.4547
H20 H 0.8659(16) 0.8559(17) 0.4988(10)
C1 C 0.4885(2) 0.2189(3) 0.4439(1)
C2 C 0.4121(1) 0.1162(1) 0.4402(1)
C3 C 0.5218(2) 0.2350(3) 0.5004(1)
C4 C 0.4593(2) 0.2346(3) 0.5306(1)
C5 C 0.3815(2) 0.2163(3) 0.4948(1)
C6 C 0.3403(1) 0.1158(1) 0.4782(1)
C7 C 0.1487(2) 0.0405(3) 0.3703(1)
C8 C 0.2369(1) 0.1037(1) 0.4010(1)
C9 C 0.1428(2) -0.0500(3) 0.3662(1)
C10 C 0.2055(2) -0.0415(3) 0.3322(1)
C11 C 0.2539(2) 0.0547(3) 0.3125(1)
C12 C 0.3098(2) 0.1136(3) 0.3607(1)
C13 C 0.3793(2) 0.0929(3) 0.3827(1)
O1 O 0.4106(2) 0.0593(2) 0.3534(1)
C14 C 0.2461(1) 0.0674(1) 0.4544(1)
O2 O 0.1820(1) 0.0662(1) 0.4922(1)
C15 C 0.4334(2) 0.2667(3) 0.4449(1)
C16 C 0.1770(2) 0.0748(3) 0.3135(1)
C17 C 0.4456(2) 0.0530(3) 0.4581(1)
H1 H 0.5344 0.2359 0.4171
H2 H 0.5789 0.2440 0.5123
H3 H 0.4625 0.2441 0.5686
H4 H 0.3381 0.2304 0.5090
H5 H 0.3287 0.0803 0.5100
H6 H 0.0960 0.0382 0.3852
H7 H 0.2403 0.1593 0.4111
H8 H 0.1012 -0.1038 0.3849
H9 H 0.2179 -0.0882 0.3219
H10 H 0.2877 0.0639 0.2802
H11 H 0.3490 0.1752 0.3504
H12 H 0.2336 0.0073 0.4471
H13 H 0.3958 0.2546 0.4140
H14 H 0.4693 0.3306 0.4501
H15 H 0.1312 0.0409 0.2875
H16 H 0.1967 0.1377 0.3097
H17 H 0.4647 0.0654 0.4947
H18 H 0.4957 0.0637 0.4360
H19 H 0.3988 -0.0087 0.4547
H20 H 0.1441(17) 0.0099(23) 0.4988(10)
C1 C 0.7811(3) 0.2695(2) 0.4439(1)
C2 C 0.8838(1) 0.2958(1) 0.4402(1)
C3 C 0.7650(3) 0.2867(2) 0.5004(1)
C4 C 0.7654(3) 0.2246(2) 0.5306(1)
C5 C 0.7837(3) 0.1651(2) 0.4948(1)
C6 C 0.8842(1) 0.2244(1) 0.4782(1)
C7 C 0.9595(3) 0.1081(2) 0.3703(1)
C8 C 0.8963(1) 0.1331(1) 0.4010(1)
C9 C 1.0500(3) 0.1927(2) 0.3662(1)
C10 C 1.0415(3) 0.2469(2) 0.3322(1)
C11 C 0.9453(3) 0.1991(2) 0.3125(1)
C12 C 0.8864(3) 0.1961(2) 0.3607(1)
C13 C 0.9071(3) 0.2863(2) 0.3827(1)
O1 O 0.9407(2) 0.3512(1) 0.3534(1)
C14 C 0.9326(1) 0.1786(1) 0.4544(1)
O2 O 0.9338(1) 0.1157(1) 0.4922(1)
C15 C 0.7333(3) 0.1666(2) 0.4449(1)
C16 C 0.9252(3) 0.1021(2) 0.3135(1)
C17 C 0.9470(3) 0.3925(2) 0.4581(1)
H1 H 0.7641 0.2984 0.4171
H2 H 0.7560 0.3348 0.5123
H3 H 0.7559 0.2183 0.5686
H4 H 0.7696 0.1076 0.5090
H5 H 0.9197 0.2483 0.5100
H6 H 0.9618 0.0577 0.3852
H7 H 0.8407 0.0809 0.4111
H8 H 1.1038 0.2049 0.3849
H9 H 1.0882 0.3060 0.3219
H10 H 0.9361 0.2237 0.2802
H11 H 0.8248 0.1737 0.3504
H12 H 0.9927 0.2262 0.4471
H13 H 0.7454 0.1411 0.4140
H14 H 0.6694 0.1386 0.4501
H15 H 0.9591 0.0902 0.2875
H16 H 0.8623 0.0589 0.3097
H17 H 0.9346 0.3992 0.4947
H18 H 0.9363 0.4319 0.4360
H19 H 1.0087 0.4074 0.4547
H20 H 0.9901(23) 0.1341(16) 0.4988(10)
C1 C 0.9362(2) 0.8218(2) 0.8894(1)
C2 C 0.9625(1) 0.7454(1) 0.8931(1)
C3 C 0.9534(2) 0.8551(2) 0.8329(1)
C4 C 0.8913(2) 0.7926(2) 0.8027(1)
C5 C 0.8318(2) 0.7148(2) 0.8385(1)
C6 C 0.8911(1) 0.6736(1) 0.8551(1)
C7 C 0.7748(2) 0.4820(2) 0.9630(1)
C8 C 0.7998(1) 0.5702(1) 0.9323(1)
C9 C 0.8594(2) 0.4761(2) 0.9671(1)
C10 C 0.9136(2) 0.5388(2) 1.0011(1)
C11 C 0.8658(2) 0.5872(2) 1.0208(1)
C12 C 0.8628(2) 0.6431(2) 0.9726(1)
C13 C 0.9530(2) 0.7126(2) 0.9506(1)
O1 O 1.0179(1) 0.7439(2) 0.9799(1)
C14 C 0.8453(1) 0.5794(1) 0.8789(1)
O2 O 0.7824(1) 0.5153(1) 0.8411(1)
C15 C 0.8333(2) 0.7667(2) 0.8884(1)
C16 C 0.7688(2) 0.5103(2) 1.0198(1)
C17 C 1.0592(2) 0.7789(2) 0.8752(1)
H1 H 0.9651 0.8677 0.9162
H2 H 1.0015 0.9122 0.8210
H3 H 0.8850 0.7958 0.7647
H4 H 0.7743 0.6714 0.8243
H5 H 0.9150 0.6620 0.8233
H6 H 0.7244 0.4293 0.9481
H7 H 0.7476 0.5736 0.9222
H8 H 0.8716 0.4345 0.9484
H9 H 0.9727 0.5512 1.0114
H10 H 0.8904 0.6210 1.0531
H11 H 0.8404 0.6823 0.9829
H12 H 0.8929 0.5669 0.8862
H13 H 0.8078 0.7291 0.9193
H14 H 0.8053 0.8026 0.8832
H15 H 0.7569 0.4645 1.0458
H16 H 0.7256 0.5300 1.0236
H17 H 1.0659 0.7980 0.8386
H18 H 1.0986 0.8290 0.8973
H19 H 1.0741 0.7321 0.8786
H20 H 0.8008(16) 0.4774(17) 0.8345(10)
C1 C 0.1782(2) 0.1144(3) 0.8894(1)
C2 C 0.2546(1) 0.2171(1) 0.8931(1)
C3 C 0.1449(2) 0.0983(3) 0.8329(1)
C4 C 0.2074(2) 0.0987(3) 0.8027(1)
C5 C 0.2852(2) 0.1170(3) 0.8385(1)
C6 C 0.3264(1) 0.2175(1) 0.8551(1)
C7 C 0.5180(2) 0.2928(3) 0.9630(1)
C8 C 0.4298(1) 0.2296(1) 0.9323(1)
C9 C 0.5239(2) 0.3833(3) 0.9671(1)
C10 C 0.4612(2) 0.3748(3) 1.0011(1)
C11 C 0.4128(2) 0.2786(3) 1.0208(1)
C12 C 0.3569(2) 0.2197(3) 0.9726(1)
C13 C 0.2874(2) 0.2404(3) 0.9506(1)
O1 O 0.2561(2) 0.2740(2) 0.9799(1)
C14 C 0.4206(1) 0.2659(1) 0.8789(1)
O2 O 0.4847(1) 0.2671(1) 0.8411(1)
C15 C 0.2333(2) 0.0666(3) 0.8884(1)
C16 C 0.4897(2) 0.2585(3) 1.0198(1)
C17 C 0.2211(2) 0.2803(3) 0.8752(1)
H1 H 0.1323 0.0974 0.9162
H2 H 0.0878 0.0893 0.8210
H3 H 0.2042 0.0892 0.7647
H4 H 0.3286 0.1029 0.8243
H5 H 0.3380 0.2530 0.8233
H6 H 0.5707 0.2951 0.9481
H7 H 0.4264 0.1740 0.9222
H8 H 0.5655 0.4371 0.9484
H9 H 0.4488 0.4215 1.0114
H10 H 0.3790 0.2694 1.0531
H11 H 0.3177 0.1581 0.9829
H12 H 0.4331 0.3260 0.8862
H13 H 0.2709 0.0787 0.9193
H14 H 0.1974 0.0027 0.8832
H15 H 0.5355 0.2924 1.0458
H16 H 0.4700 0.1956 1.0236
H17 H 0.2020 0.2679 0.8386
H18 H 0.1710 0.2696 0.8973
H19 H 0.2679 0.3420 0.8786
H20 H 0.5226(17) 0.3234(23) 0.8345(10)
C1 C 0.8856(3) 0.0638(2) 0.8894(1)
C2 C 0.7829(1) 0.0375(1) 0.8931(1)
C3 C 0.9017(3) 0.0466(2) 0.8329(1)
C4 C 0.9013(3) 0.1087(2) 0.8027(1)
C5 C 0.8830(3) 0.1682(2) 0.8385(1)
C6 C 0.7825(1) 0.1089(1) 0.8551(1)
C7 C 0.7072(3) 0.2252(2) 0.9630(1)
C8 C 0.7704(1) 0.2002(1) 0.9323(1)
C9 C 0.6167(3) 0.1406(2) 0.9671(1)
C10 C 0.6252(3) 0.0864(2) 1.0011(1)
C11 C 0.7214(3) 0.1342(2) 1.0208(1)
C12 C 0.7803(3) 0.1372(2) 0.9726(1)
C13 C 0.7596(3) 0.0470(2) 0.9506(1)
O1 O 0.7260(2) -0.0179(1) 0.9799(1)
C14 C 0.7341(1) 0.1547(1) 0.8789(1)
O2 O 0.7329(1) 0.2176(1) 0.8411(1)
C15 C 0.9334(3) 0.1667(2) 0.8884(1)
C16 C 0.7415(3) 0.2312(2) 1.0198(1)
C17 C 0.7197(3) -0.0592(2) 0.8752(1)
H1 H 0.9026 0.0349 0.9162
H2 H 0.9107 -0.0015 0.8210
H3 H 0.9108 0.1150 0.7647
H4 H 0.8971 0.2257 0.8243
H5 H 0.7470 0.0850 0.8233
H6 H 0.7049 0.2756 0.9481
H7 H 0.8260 0.2524 0.9222
H8 H 0.5629 0.1284 0.9484
H9 H 0.5785 0.0273 1.0114
H10 H 0.7306 0.1096 1.0531
H11 H 0.8419 0.1596 0.9829
H12 H 0.6740 0.1071 0.8862
H13 H 0.9213 0.1922 0.9193
H14 H 0.9973 0.1947 0.8832
H15 H 0.7076 0.2431 1.0458
H16 H 0.8044 0.2744 1.0236
H17 H 0.7321 -0.0659 0.8386
H18 H 0.7304 -0.0986 0.8973
H19 H 0.6580 -0.0741 0.8786
H20 H 0.6766(23) 0.1992(16) 0.8345(10)
C1 C 0.6029(2) 1.1551(2) 0.2227(1)
C2 C 0.6292(1) 1.0787(1) 0.2264(1)
C3 C 0.6201(2) 1.1884(2) 0.1662(1)
C4 C 0.5580(2) 1.1259(2) 0.1360(1)
C5 C 0.4985(2) 1.0481(2) 0.1718(1)
C6 C 0.5578(1) 1.0069(1) 0.1884(1)
C7 C 0.4415(2) 0.8153(2) 0.2963(1)
C8 C 0.4665(1) 0.9035(1) 0.2656(1)
C9 C 0.5261(2) 0.8094(2) 0.3004(1)
C10 C 0.5803(2) 0.8721(2) 0.3344(1)
C11 C 0.5325(2) 0.9205(2) 0.3541(1)
C12 C 0.5295(2) 0.9764(2) 0.3059(1)
C13 C 0.6197(2) 1.0459(2) 0.2839(1)
O1 O 0.6846(1) 1.0772(2) 0.3132(1)
C14 C 0.5120(1) 0.9127(1) 0.2122(1)
O2 O 0.4491(1) 0.8486(1) 0.1744(1)
C15 C 0.5000(2) 1.1000(2) 0.2217(1)
C16 C 0.4355(2) 0.8436(2) 0.3531(1)
C17 C 0.7259(2) 1.1122(2) 0.2085(1)
H1 H 0.6318 1.2010 0.2495
H2 H 0.6682 1.2455 0.1543
H3 H 0.5517 1.1291 0.0980
H4 H 0.4410 1.0047 0.1576
H5 H 0.5817 0.9953 0.1566
H6 H 0.3911 0.7626 0.2814
H7 H 0.4143 0.9069 0.2555
H8 H 0.5383 0.7678 0.2817
H9 H 0.6394 0.8845 0.3447
H10 H 0.5571 0.9543 0.3864
H11 H 0.5071 1.0156 0.3162
H12 H 0.5596 0.9002 0.2195
H13 H 0.4745 1.0624 0.2526
H14 H 0.4720 1.1359 0.2165
H15 H 0.4236 0.7978 0.3791
H16 H 0.3923 0.8633 0.3569
H17 H 0.7326 1.1313 0.1719
H18 H 0.7653 1.1623 0.2306
H19 H 0.7408 1.0654 0.2119
H20 H 0.4675(16) 0.8107(17) 0.1678(10)
C1 C -0.1551(2) 0.4477(3) 0.2227(1)
C2 C -0.0787(1) 0.5504(1) 0.2264(1)
C3 C -0.1884(2) 0.4316(3) 0.1662(1)
C4 C -0.1259(2) 0.4320(3) 0.1360(1)
C5 C -0.0481(2) 0.4503(3) 0.1718(1)
C6 C -0.0069(1) 0.5508(1) 0.1884(1)
C7 C 0.1847(2) 0.6261(3) 0.2963(1)
C8 C 0.0965(1) 0.5629(1) 0.2656(1)
C9 C 0.1906(2) 0.7166(3) 0.3004(1)
C10 C 0.1279(2) 0.7081(3) 0.3344(1)
C11 C 0.0795(2) 0.6119(3) 0.3541(1)
C12 C 0.0236(2) 0.5530(3) 0.3059(1)
C13 C -0.0459(2) 0.5737(3) 0.2839(1)
O1 O -0.0772(2) 0.6073(2) 0.3132(1)
C14 C 0.0873(1) 0.5992(1) 0.2122(1)
O2 O 0.1514(1) 0.6004(1) 0.1744(1)
C15 C -0.1000(2) 0.3999(3) 0.2217(1)
C16 C 0.1564(2) 0.5918(3) 0.3531(1)
C17 C -0.1122(2) 0.6136(3) 0.2085(1)
H1 H -0.2010 0.4307 0.2495
H2 H -0.2455 0.4226 0.1543
H3 H -0.1291 0.4225 0.0980
H4 H -0.0047 0.4362 0.1576
H5 H 0.0047 0.5863 0.1566
H6 H 0.2374 0.6284 0.2814
H7 H 0.0931 0.5073 0.2555
H8 H 0.2322 0.7704 0.2817
H9 H 0.1155 0.7548 0.3447
H10 H 0.0457 0.6027 0.3864
H11 H -0.0156 0.4914 0.3162
H12 H 0.0998 0.6593 0.2195
H13 H -0.0624 0.4120 0.2526
H14 H -0.1359 0.3360 0.2165
H15 H 0.2022 0.6257 0.3791
H16 H 0.1367 0.5289 0.3569
H17 H -0.1313 0.6012 0.1719
H18 H -0.1623 0.6029 0.2306
H19 H -0.0654 0.6753 0.2119
H20 H 0.1893(17) 0.6567(23) 0.1678(10)
C1 C 0.5523(3) 0.3971(2) 0.2227(1)
C2 C 0.4496(1) 0.3708(1) 0.2264(1)
C3 C 0.5684(3) 0.3799(2) 0.1662(1)
C4 C 0.5680(3) 0.4420(2) 0.1360(1)
C5 C 0.5497(3) 0.5015(2) 0.1718(1)
C6 C 0.4492(1) 0.4422(1) 0.1884(1)
C7 C 0.3739(3) 0.5585(2) 0.2963(1)
C8 C 0.4371(1) 0.5335(1) 0.2656(1)
C9 C 0.2834(3) 0.4739(2) 0.3004(1)
C10 C 0.2919(3) 0.4197(2) 0.3344(1)
C11 C 0.3881(3) 0.4675(2) 0.3541(1)
C12 C 0.4470(3) 0.4705(2) 0.3059(1)
C13 C 0.4263(3) 0.3803(2) 0.2839(1)
O1 O 0.3927(2) 0.3154(1) 0.3132(1)
C14 C 0.4008(1) 0.4880(1) 0.2122(1)
O2 O 0.3996(1) 0.5509(1) 0.1744(1)
C15 C 0.6001(3) 0.5000(2) 0.2217(1)
C16 C 0.4082(3) 0.5645(2) 0.3531(1)
C17 C 0.3864(3) 0.2741(2) 0.2085(1)
H1 H 0.5693 0.3682 0.2495
H2 H 0.5774 0.3318 0.1543
H3 H 0.5775 0.4483 0.0980
H4 H 0.5638 0.5590 0.1576
H5 H 0.4137 0.4183 0.1566
H6 H 0.3716 0.6089 0.2814
H7 H 0.4927 0.5857 0.2555
H8 H 0.2296 0.4617 0.2817
H9 H 0.2452 0.3606 0.3447
H10 H 0.3973 0.4429 0.3864
H11 H 0.5086 0.4929 0.3162
H12 H 0.3407 0.4404 0.2195
H13 H 0.5880 0.5255 0.2526
H14 H 0.6640 0.5280 0.2165
H15 H 0.3743 0.5764 0.3791
H16 H 0.4711 0.6077 0.3569
H17 H 0.3988 0.2674 0.1719
H18 H 0.3971 0.2347 0.2306
H19 H 0.3247 0.2592 0.2119
H20 H 0.3433(23) 0.5325(16) 0.1678(10)
C1 C 0.2695(2) 0.4885(2) 0.5561(1)
C2 C 0.2958(1) 0.4121(1) 0.5598(1)
C3 C 0.2867(2) 0.5218(2) 0.4996(1)
C4 C 0.2246(2) 0.4593(2) 0.4694(1)
C5 C 0.1651(2) 0.3815(2) 0.5052(1)
C6 C 0.2244(1) 0.3403(1) 0.5218(1)
C7 C 0.1081(2) 0.1487(2) 0.6297(1)
C8 C 0.1331(1) 0.2369(1) 0.5990(1)
C9 C 0.1927(2) 0.1428(2) 0.6338(1)
C10 C 0.2469(2) 0.2055(2) 0.6678(1)
C11 C 0.1991(2) 0.2539(2) 0.6875(1)
C12 C 0.1961(2) 0.3098(2) 0.6393(1)
C13 C 0.2863(2) 0.3793(2) 0.6173(1)
O1 O 0.3512(1) 0.4106(2) 0.6466(1)
C14 C 0.1786(1) 0.2461(1) 0.5456(1)
O2 O 0.1157(1) 0.1820(1) 0.5078(1)
C15 C 0.1666(2) 0.4334(2) 0.5551(1)
C16 C 0.1021(2) 0.1770(2) 0.6865(1)
C17 C 0.3925(2) 0.4456(2) 0.5419(1)
H1 H 0.2984 0.5344 0.5829
H2 H 0.3348 0.5789 0.4877
H3 H 0.2183 0.4625 0.4314
H4 H 0.1076 0.3381 0.4910
H5 H 0.2483 0.3287 0.4900
H6 H 0.0577 0.0960 0.6148
H7 H 0.0809 0.2403 0.5889
H8 H 0.2049 0.1012 0.6151
H9 H 0.3060 0.2179 0.6781
H10 H 0.2237 0.2877 0.7198
H11 H 0.1737 0.3490 0.6496
H12 H 0.2262 0.2336 0.5529
H13 H 0.1411 0.3958 0.5860
H14 H 0.1386 0.4693 0.5499
H15 H 0.0902 0.1312 0.7125
H16 H 0.0589 0.1967 0.6903
H17 H 0.3992 0.4647 0.5053
H18 H 0.4319 0.4957 0.5640
H19 H 0.4074 0.3988 0.5453
H20 H 0.1341(16) 0.1441(17) 0.5012(10)
C1 C 0.5115(2) 0.7811(3) 0.5561(1)
C2 C 0.5879(1) 0.8838(1) 0.5598(1)
C3 C 0.4782(2) 0.7650(3) 0.4996(1)
C4 C 0.5407(2) 0.7654(3) 0.4694(1)
C5 C 0.6185(2) 0.7837(3) 0.5052(1)
C6 C 0.6597(1) 0.8842(1) 0.5218(1)
C7 C 0.8513(2) 0.9595(3) 0.6297(1)
C8 C 0.7631(1) 0.8963(1) 0.5990(1)
C9 C 0.8572(2) 1.0500(3) 0.6338(1)
C10 C 0.7945(2) 1.0415(3) 0.6678(1)
C11 C 0.7461(2) 0.9453(3) 0.6875(1)
C12 C 0.6902(2) 0.8864(3) 0.6393(1)
C13 C 0.6207(2) 0.9071(3) 0.6173(1)
O1 O 0.5894(2) 0.9407(2) 0.6466(1)
C14 C 0.7539(1) 0.9326(1) 0.5456(1)
O2 O 0.8180(1) 0.9338(1) 0.5078(1)
C15 C 0.5666(2) 0.7333(3) 0.5551(1)
C16 C 0.8230(2) 0.9252(3) 0.6865(1)
C17 C 0.5544(2) 0.9470(3) 0.5419(1)
H1 H 0.4656 0.7641 0.5829
H2 H 0.4211 0.7560 0.4877
H3 H 0.5375 0.7559 0.4314
H4 H 0.6619 0.7696 0.4910
H5 H 0.6713 0.9197 0.4900
H6 H 0.9040 0.9618 0.6148
H7 H 0.7597 0.8407 0.5889
H8 H 0.8988 1.1038 0.6151
H9 H 0.7821 1.0882 0.6781
H10 H 0.7123 0.9361 0.7198
H11 H 0.6510 0.8248 0.6496
H12 H 0.7664 0.9927 0.5529
H13 H 0.6042 0.7454 0.5860
H14 H 0.5307 0.6694 0.5499
H15 H 0.8688 0.9591 0.7125
H16 H 0.8033 0.8623 0.6903
H17 H 0.5353 0.9346 0.5053
H18 H 0.5043 0.9363 0.5640
H19 H 0.6012 1.0087 0.5453
H20 H 0.8559(17) 0.9901(23) 0.5012(10)
C1 C 0.2189(3) 0.7305(2) 0.5561(1)
C2 C 0.1162(1) 0.7042(1) 0.5598(1)
C3 C 0.2350(3) 0.7133(2) 0.4996(1)
C4 C 0.2346(3) 0.7754(2) 0.4694(1)
C5 C 0.2163(3) 0.8349(2) 0.5052(1)
C6 C 0.1158(1) 0.7756(1) 0.5218(1)
C7 C 0.0405(3) 0.8919(2) 0.6297(1)
C8 C 0.1037(1) 0.8669(1) 0.5990(1)
C9 C -0.0500(3) 0.8073(2) 0.6338(1)
C10 C -0.0415(3) 0.7531(2) 0.6678(1)
C11 C 0.0547(3) 0.8009(2) 0.6875(1)
C12 C 0.1136(3) 0.8039(2) 0.6393(1)
C13 C 0.0929(3) 0.7137(2) 0.6173(1)
O1 O 0.0593(2) 0.6488(1) 0.6466(1)
C14 C 0.0674(1) 0.8214(1) 0.5456(1)
O2 O 0.0662(1) 0.8843(1) 0.5078(1)
C15 C 0.2667(3) 0.8334(2) 0.5551(1)
C16 C 0.0748(3) 0.8979(2) 0.6865(1)
C17 C 0.0530(3) 0.6075(2) 0.5419(1)
H1 H 0.2359 0.7016 0.5829
H2 H 0.2440 0.6652 0.4877
H3 H 0.2441 0.7817 0.4314
H4 H 0.2304 0.8924 0.4910
H5 H 0.0803 0.7517 0.4900
H6 H 0.0382 0.9423 0.6148
H7 H 0.1593 0.9191 0.5889
H8 H -0.1038 0.7951 0.6151
H9 H -0.0882 0.6940 0.6781
H10 H 0.0639 0.7763 0.7198
H11 H 0.1752 0.8263 0.6496
H12 H 0.0073 0.7738 0.5529
H13 H 0.2546 0.8589 0.5860
H14 H 0.3306 0.8614 0.5499
H15 H 0.0409 0.9098 0.7125
H16 H 0.1377 0.9411 0.6903
H17 H 0.0654 0.6008 0.5053
H18 H 0.0637 0.5681 0.5640
H19 H -0.0087 0.5926 0.5453
H20 H 0.0099(23) 0.8659(16) 0.5012(10)

#END
