./KACLAD_from_xyz.cif_generated_by_CrystalShift
_symmetry_cell_setting triclinic
_symmetry_space_group_name_H-M 'P 1'
loop_
_symmetry_equiv_pos_site_id
_symmetry_equiv_pos_as_xyz
1 x,y,z
_cell_length_a 7.656200
_cell_length_b 13.851200
_cell_length_c 20.546600
_cell_angle_alpha 97.616000
_cell_angle_beta 95.602000
_cell_angle_gamma 102.434000
_cell_volume 2091.049574
loop_
_atom_site_label
_atom_site_type_symbol
_atom_site_fract_x
_atom_site_fract_y
_atom_site_fract_z
N1 N 0.752600 0.288480 0.576180
C2 C 0.584000 0.109300 0.685740
H3 H 0.595400 0.052600 0.658300
C4 C 0.485500 0.170200 0.793870
H5 H 0.503300 0.234900 0.784000
N6 N 0.709800 0.122100 0.558280
O7 O 0.340200 0.043310 0.928020
C8 C 0.695000 0.200600 0.599730
C9 C 0.803800 0.262300 0.515910
C10 C 0.426800 -0.021700 0.823540
H11 H 0.407500 -0.086600 0.833300
C12 C 0.517000 0.093600 0.748240
C13 C 0.484800 -0.001500 0.764600
H14 H 0.502500 -0.053900 0.734600
C15 C 0.428800 0.151000 0.853250
H16 H 0.410700 0.202800 0.883600
C17 C 0.866300 0.332200 0.474100
C18 C 0.630800 0.195900 0.663450
H19 H 0.621800 0.254600 0.689300
C20 C 0.774700 0.160100 0.506050
C21 C 0.398700 0.054400 0.868030
C22 C 0.766500 0.389800 0.608940
H23 H 0.861000 0.406200 0.645700
H24 H 0.654200 0.394600 0.624700
H25 H 0.793600 0.435500 0.578100
C26 C 0.806000 0.096700 0.449700
C27 C 0.304100 -0.055200 0.944500
H28 H 0.209400 -0.098300 0.912900
H29 H 0.268000 -0.053500 0.988000
H30 H 0.411600 -0.080200 0.943600
N31 N 0.915900 0.387800 0.439870
N32 N 0.831100 0.047000 0.405050
N33 N 0.247400 0.711520 0.423820
C34 C 0.416000 0.890700 0.314260
H35 H 0.404600 0.947400 0.341700
C36 C 0.514500 0.829800 0.206130
H37 H 0.496700 0.765100 0.216000
N38 N 0.290200 0.877900 0.441720
O39 O 0.659800 0.956690 0.071980
C40 C 0.305000 0.799400 0.400270
C41 C 0.196200 0.737700 0.484090
C42 C 0.573200 1.021700 0.176460
H43 H 0.592500 1.086600 0.166700
C44 C 0.483000 0.906400 0.251760
C45 C 0.515200 1.001500 0.235400
H46 H 0.497500 1.053900 0.265400
C47 C 0.571200 0.849000 0.146750
H48 H 0.589300 0.797200 0.116400
C49 C 0.133700 0.667800 0.525900
C50 C 0.369200 0.804100 0.336550
H51 H 0.378200 0.745400 0.310700
C52 C 0.225300 0.839900 0.493950
C53 C 0.601300 0.945600 0.131970
C54 C 0.233500 0.610200 0.391060
H55 H 0.139000 0.593800 0.354300
H56 H 0.345800 0.605400 0.375300
H57 H 0.206400 0.564500 0.421900
C58 C 0.194000 0.903300 0.550300
C59 C 0.695900 1.055200 0.055500
H60 H 0.790600 1.098300 0.087100
H61 H 0.732000 1.053500 0.012000
H62 H 0.588400 1.080200 0.056400
N63 N 0.084100 0.612200 0.560130
N64 N 0.168900 0.953000 0.594950
N65 N 0.304900 0.549210 -0.065950
N66 N 0.377600 0.407170 -0.105020
C67 C 0.361100 0.560000 -0.126540
C68 C 0.362200 0.647200 -0.155480
C69 C 0.159600 0.338900 0.125730
H70 H 0.157700 0.405300 0.123600
C71 C 0.251900 0.323000 0.012820
H72 H 0.274900 0.279100 -0.021900
C73 C 0.249900 0.625100 -0.022040
H74 H 0.250900 0.683000 -0.043200
H75 H 0.332300 0.643500 0.018300
H76 H 0.130400 0.599100 -0.012200
C77 C 0.204500 0.282200 0.072330
C78 C 0.405100 0.472500 -0.149170
C79 C 0.474300 0.449900 -0.209980
C80 C 0.316500 0.455600 -0.055360
C81 C 0.264600 0.417200 0.003870
H82 H 0.239000 0.461400 0.037800
C83 C 0.206800 0.183500 0.077410
H84 H 0.236100 0.143100 0.042200
C85 C 0.118700 0.202700 0.185650
N86 N 0.533000 0.434800 -0.258000
O87 O 0.077600 0.157900 0.239270
C88 C 0.166200 0.145000 0.133860
H89 H 0.171500 0.079200 0.136900
C90 C 0.116000 0.300500 0.181800
H91 H 0.086200 0.340700 0.217000
C92 C 0.001900 0.208900 0.289000
H93 H 0.087400 0.269300 0.309500
H94 H -0.027900 0.166800 0.321800
H95 H -0.105400 0.225300 0.269900
N96 N 0.359700 0.717200 -0.178750
N97 N 0.695100 0.450790 1.065950
N98 N 0.622400 0.592830 1.105020
C99 C 0.638900 0.440000 1.126540
C100 C 0.637800 0.352800 1.155480
C101 C 0.840400 0.661100 0.874270
H102 H 0.842300 0.594700 0.876400
C103 C 0.748100 0.677000 0.987180
H104 H 0.725100 0.720900 1.021900
C105 C 0.750100 0.374900 1.022040
H106 H 0.749100 0.317000 1.043200
H107 H 0.667700 0.356500 0.981700
H108 H 0.869600 0.400900 1.012200
C109 C 0.795500 0.717800 0.927670
C110 C 0.594900 0.527500 1.149170
C111 C 0.525700 0.550100 1.209980
C112 C 0.683500 0.544400 1.055360
C113 C 0.735400 0.582800 0.996130
H114 H 0.761000 0.538600 0.962200
C115 C 0.793200 0.816500 0.922590
H116 H 0.763900 0.856900 0.957800
C117 C 0.881300 0.797300 0.814350
N118 N 0.467000 0.565200 1.258000
O119 O 0.922400 0.842100 0.760730
C120 C 0.833800 0.855000 0.866140
H121 H 0.828500 0.920800 0.863100
C122 C 0.884000 0.699500 0.818200
H123 H 0.913800 0.659300 0.783000
C124 C 0.998100 0.791100 0.711000
H125 H 0.912600 0.730700 0.690500
H126 H 1.027900 0.833200 0.678200
H127 H 1.105400 0.774700 0.730100
N128 N 0.640300 0.282800 1.178750
C129 C -0.078300 0.155900 0.856710
N130 N 0.027900 0.160010 0.747760
C131 C -0.012500 0.302200 0.795030
C132 C -0.027300 0.204500 0.802630
N133 N 0.050800 0.320510 0.737410
C134 C -0.061000 0.375800 0.840220
C135 C 0.199400 0.286900 0.612400
H136 H 0.193100 0.351400 0.629800
N137 N -0.101900 0.430600 0.878680
C138 C 0.270000 0.274500 0.549260
C139 C 0.075900 0.233100 0.709990
C140 C 0.142400 0.214500 0.647480
H141 H 0.146400 0.149300 0.630900
C142 C 0.320000 0.356500 0.518040
H143 H 0.312300 0.419300 0.538400
N144 N -0.116000 0.120700 0.902030
C145 C 0.024800 0.053800 0.732750
H146 H -0.079300 0.020800 0.701500
H147 H 0.019300 0.025000 0.772800
H148 H 0.132000 0.045400 0.714200
C149 C 0.282500 0.183000 0.516590
H150 H 0.248300 0.126200 0.536100
C151 C 0.343000 0.173400 0.456270
H152 H 0.349600 0.110500 0.435700
C153 C 0.381900 0.347500 0.456400
H154 H 0.414200 0.403400 0.435800
O155 O 0.456200 0.237600 0.366660
C156 C 0.394700 0.255500 0.426400
C157 C 0.504900 0.318100 0.331400
H158 H 0.405300 0.349300 0.325400
H159 H 0.534300 0.293300 0.288900
H160 H 0.607600 0.366200 0.355700
C161 C 1.078300 0.844100 0.143290
N162 N 0.972100 0.839990 0.252240
C163 C 1.012500 0.697800 0.204970
C164 C 1.027300 0.795500 0.197370
N165 N 0.949200 0.679490 0.262590
C166 C 1.061000 0.624200 0.159780
C167 C 0.800600 0.713100 0.387600
H168 H 0.806900 0.648600 0.370200
N169 N 1.101900 0.569400 0.121320
C170 C 0.730000 0.725500 0.450740
C171 C 0.924100 0.766900 0.290010
C172 C 0.857600 0.785500 0.352520
H173 H 0.853600 0.850700 0.369100
C174 C 0.680000 0.643500 0.481960
H175 H 0.687700 0.580700 0.461600
N176 N 1.116000 0.879300 0.097970
C177 C 0.975200 0.946200 0.267250
H178 H 1.079300 0.979200 0.298500
H179 H 0.980700 0.975000 0.227200
H180 H 0.868000 0.954600 0.285800
C181 C 0.717500 0.817000 0.483410
H182 H 0.751700 0.873800 0.463900
C183 C 0.657000 0.826600 0.543730
H184 H 0.650400 0.889500 0.564300
C185 C 0.618100 0.652500 0.543600
H186 H 0.585800 0.596600 0.564200
O187 O 0.543800 0.762400 0.633340
C188 C 0.605300 0.744500 0.573600
C189 C 0.495100 0.681900 0.668600
H190 H 0.594700 0.650700 0.674600
H191 H 0.465700 0.706700 0.711100
H192 H 0.392400 0.633800 0.644300

#END
