./KACNIN_from_xyz.cif_generated_by_CrystalShift
_symmetry_cell_setting triclinic
_symmetry_space_group_name_H-M 'P 1'
loop_
_symmetry_equiv_pos_site_id
_symmetry_equiv_pos_as_xyz
1 x,y,z
_cell_length_a 12.042200
_cell_length_b 11.931100
_cell_length_c 13.377000
_cell_angle_alpha 90.000000
_cell_angle_beta 115.765000
_cell_angle_gamma 90.000000
_cell_volume 1730.890067
loop_
_atom_site_label
_atom_site_type_symbol
_atom_site_fract_x
_atom_site_fract_y
_atom_site_fract_z
O1 O 1.279450 1.457480 0.998390
O2 O 1.090550 1.510700 0.918500
O3 O 0.892110 0.969180 0.833990
O4 O 0.657650 0.965740 0.728640
O5 O 0.652390 0.391040 0.490740
N6 N 1.168680 1.437390 0.951380
N7 N 0.704930 0.460120 0.716550
C8 C 1.129170 1.320280 0.933530
C9 C 1.218190 1.237940 0.972820
H10 H 1.306400 1.258000 1.012600
C11 C 1.181210 1.127640 0.955670
H12 H 1.243400 1.067800 0.981800
C13 C 1.056820 1.099980 0.898920
C14 C 0.969410 1.184680 0.860530
H15 H 0.887100 1.164800 0.822300
C16 C 1.004730 1.296450 0.878110
H17 H 0.943200 1.356100 0.850400
C18 C 1.023280 0.977910 0.880750
H19 H 1.059400 0.939200 0.951100
H20 H 1.054000 0.944600 0.828500
C21 C 0.842000 0.864130 0.808440
C22 C 0.712450 0.862610 0.749860
C23 C 0.652280 0.761180 0.718810
H24 H 0.564600 0.758900 0.676300
C25 C 0.718460 0.660490 0.745210
C26 C 0.845850 0.663510 0.804350
H27 H 0.891300 0.597100 0.822300
C28 C 0.907500 0.764880 0.835750
H29 H 0.993400 0.764600 0.871700
C30 C 0.652480 0.555220 0.702400
H31 H 0.562000 0.560300 0.656900
C32 C 0.625070 0.365190 0.658290
H33 H 0.638700 0.300700 0.713600
H34 H 0.530500 0.387000 0.620000
C35 C 0.662610 0.318490 0.574360
C36 C 0.708520 0.220300 0.560840
H37 H 0.723700 0.158000 0.611300
C38 C 0.728830 0.230330 0.463520
H39 H 0.764300 0.170300 0.431500
C40 C 0.694040 0.334200 0.424510
H41 H 0.687100 0.371400 0.358700
C42 C 0.530010 0.969080 0.653060
H43 H 0.521000 0.933800 0.583900
H44 H 0.481400 0.928800 0.685000
H45 H 0.510100 1.049500 0.645100
O46 O -0.279450 0.957480 0.501610
O47 O -0.090550 1.010700 0.581500
O48 O 0.107890 0.469180 0.666010
O49 O 0.342350 0.465740 0.771360
O50 O 0.347610 -0.108960 1.009260
N51 N -0.168680 0.937390 0.548620
N52 N 0.295070 -0.039880 0.783450
C53 C -0.129170 0.820280 0.566470
C54 C -0.218190 0.737940 0.527180
H55 H -0.306400 0.758000 0.487400
C56 C -0.181210 0.627640 0.544330
H57 H -0.243400 0.567800 0.518200
C58 C -0.056820 0.599980 0.601080
C59 C 0.030590 0.684680 0.639470
H60 H 0.112900 0.664800 0.677700
C61 C -0.004730 0.796450 0.621890
H62 H 0.056800 0.856100 0.649600
C63 C -0.023280 0.477910 0.619250
H64 H -0.059400 0.439200 0.548900
H65 H -0.054000 0.444600 0.671500
C66 C 0.158000 0.364130 0.691560
C67 C 0.287550 0.362610 0.750140
C68 C 0.347720 0.261180 0.781190
H69 H 0.435400 0.258900 0.823700
C70 C 0.281540 0.160490 0.754790
C71 C 0.154150 0.163510 0.695650
H72 H 0.108700 0.097100 0.677700
C73 C 0.092500 0.264880 0.664250
H74 H 0.006600 0.264600 0.628300
C75 C 0.347520 0.055220 0.797600
H76 H 0.438000 0.060300 0.843100
C77 C 0.374930 -0.134810 0.841710
H78 H 0.361300 -0.199300 0.786400
H79 H 0.469500 -0.113000 0.880000
C80 C 0.337390 -0.181510 0.925640
C81 C 0.291480 -0.279700 0.939160
H82 H 0.276300 -0.342000 0.888700
C83 C 0.271170 -0.269670 1.036480
H84 H 0.235700 -0.329700 1.068500
C85 C 0.305960 -0.165800 1.075490
H86 H 0.312900 -0.128600 1.141300
C87 C 0.469990 0.469080 0.846940
H88 H 0.479000 0.433800 0.916100
H89 H 0.518600 0.428800 0.815000
H90 H 0.489900 0.549500 0.854900
O91 O -0.279450 -0.457480 0.001610
O92 O -0.090550 -0.510700 0.081500
O93 O 0.107890 0.030820 0.166010
O94 O 0.342350 0.034260 0.271360
O95 O 0.347610 0.608960 0.509260
N96 N -0.168680 -0.437390 0.048620
N97 N 0.295070 0.539880 0.283450
C98 C -0.129170 -0.320280 0.066470
C99 C -0.218190 -0.237940 0.027180
H100 H -0.306400 -0.258000 -0.012600
C101 C -0.181210 -0.127640 0.044330
H102 H -0.243400 -0.067800 0.018200
C103 C -0.056820 -0.099980 0.101080
C104 C 0.030590 -0.184680 0.139470
H105 H 0.112900 -0.164800 0.177700
C106 C -0.004730 -0.296450 0.121890
H107 H 0.056800 -0.356100 0.149600
C108 C -0.023280 0.022090 0.119250
H109 H -0.059400 0.060800 0.048900
H110 H -0.054000 0.055400 0.171500
C111 C 0.158000 0.135870 0.191560
C112 C 0.287550 0.137390 0.250140
C113 C 0.347720 0.238820 0.281190
H114 H 0.435400 0.241100 0.323700
C115 C 0.281540 0.339510 0.254790
C116 C 0.154150 0.336490 0.195650
H117 H 0.108700 0.402900 0.177700
C118 C 0.092500 0.235120 0.164250
H119 H 0.006600 0.235400 0.128300
C120 C 0.347520 0.444780 0.297600
H121 H 0.438000 0.439700 0.343100
C122 C 0.374930 0.634810 0.341710
H123 H 0.361300 0.699300 0.286400
H124 H 0.469500 0.613000 0.380000
C125 C 0.337390 0.681510 0.425640
C126 C 0.291480 0.779700 0.439160
H127 H 0.276300 0.842000 0.388700
C128 C 0.271170 0.769670 0.536480
H129 H 0.235700 0.829700 0.568500
C130 C 0.305960 0.665800 0.575490
H131 H 0.312900 0.628600 0.641300
C132 C 0.469990 0.030920 0.346940
H133 H 0.479000 0.066200 0.416100
H134 H 0.518600 0.071200 0.315000
H135 H 0.489900 -0.049500 0.354900
O136 O 1.279450 0.042520 0.498390
O137 O 1.090550 -0.010700 0.418500
O138 O 0.892110 0.530820 0.333990
O139 O 0.657650 0.534260 0.228640
O140 O 0.652390 1.108960 -0.009260
N141 N 1.168680 0.062610 0.451380
N142 N 0.704930 1.039880 0.216550
C143 C 1.129170 0.179720 0.433530
C144 C 1.218190 0.262060 0.472820
H145 H 1.306400 0.242000 0.512600
C146 C 1.181210 0.372360 0.455670
H147 H 1.243400 0.432200 0.481800
C148 C 1.056820 0.400020 0.398920
C149 C 0.969410 0.315320 0.360530
H150 H 0.887100 0.335200 0.322300
C151 C 1.004730 0.203550 0.378110
H152 H 0.943200 0.143900 0.350400
C153 C 1.023280 0.522090 0.380750
H154 H 1.059400 0.560800 0.451100
H155 H 1.054000 0.555400 0.328500
C156 C 0.842000 0.635870 0.308440
C157 C 0.712450 0.637390 0.249860
C158 C 0.652280 0.738820 0.218810
H159 H 0.564600 0.741100 0.176300
C160 C 0.718460 0.839510 0.245210
C161 C 0.845850 0.836490 0.304350
H162 H 0.891300 0.902900 0.322300
C163 C 0.907500 0.735120 0.335750
H164 H 0.993400 0.735400 0.371700
C165 C 0.652480 0.944780 0.202400
H166 H 0.562000 0.939700 0.156900
C167 C 0.625070 1.134810 0.158290
H168 H 0.638700 1.199300 0.213600
H169 H 0.530500 1.113000 0.120000
C170 C 0.662610 1.181510 0.074360
C171 C 0.708520 1.279700 0.060840
H172 H 0.723700 1.342000 0.111300
C173 C 0.728830 1.269670 -0.036480
H174 H 0.764300 1.329700 -0.068500
C175 C 0.694040 1.165800 -0.075490
H176 H 0.687100 1.128600 -0.141300
C177 C 0.530010 0.530920 0.153060
H178 H 0.521000 0.566200 0.083900
H179 H 0.481400 0.571200 0.185000
H180 H 0.510100 0.450500 0.145100

#END
