./KACQUA_from_xyz.cif_generated_by_CrystalShift
_symmetry_cell_setting triclinic
_symmetry_space_group_name_H-M 'P 1'
loop_
_symmetry_equiv_pos_site_id
_symmetry_equiv_pos_as_xyz
1 x,y,z
_cell_length_a 19.509000
_cell_length_b 9.942000
_cell_length_c 23.397000
_cell_angle_alpha 90.000000
_cell_angle_beta 101.460000
_cell_angle_gamma 90.000000
_cell_volume 4447.574384
loop_
_atom_site_label
_atom_site_type_symbol
_atom_site_fract_x
_atom_site_fract_y
_atom_site_fract_z
O1 O 0.525200 0.375000 0.325700
O2 O 0.703500 0.310800 0.322800
O3 O 0.463900 0.559800 0.310300
N4 N 0.576000 0.716600 0.311400
C5 C 0.591500 0.307300 0.348500
C6 C 0.652900 0.378800 0.327800
C7 C 0.646700 0.519200 0.318100
C8 C 0.586000 0.584900 0.318700
C9 C 0.520500 0.508600 0.318900
C10 C 0.581400 0.165600 0.326900
C11 C 0.604400 0.317700 0.414400
C12 C 0.672100 0.306600 0.447300
C13 C 0.683400 0.315000 0.507700
C14 C 0.626900 0.334600 0.535100
C15 C 0.559300 0.345700 0.502100
C16 C 0.548000 0.337300 0.441800
H17 H 0.610300 0.767100 0.306800
H18 H 0.535800 0.751700 0.311900
H19 H 0.686300 0.568900 0.310800
H20 H 0.623400 0.114900 0.340300
H21 H 0.570500 0.165400 0.285200
H22 H 0.543500 0.125600 0.341400
H23 H 0.710900 0.293100 0.428500
H24 H 0.729900 0.307400 0.530400
H25 H 0.634700 0.340400 0.576700
H26 H 0.520400 0.359200 0.521000
H27 H 0.501400 0.344900 0.419100
O28 O 0.974800 0.875000 0.174300
O29 O 0.796500 0.810800 0.177200
O30 O 1.036100 1.059800 0.189700
N31 N 0.924000 1.216600 0.188600
C32 C 0.908500 0.807300 0.151500
C33 C 0.847100 0.878800 0.172200
C34 C 0.853300 1.019200 0.181900
C35 C 0.914000 1.084900 0.181300
C36 C 0.979500 1.008600 0.181100
C37 C 0.918600 0.665600 0.173100
C38 C 0.895600 0.817700 0.085600
C39 C 0.827900 0.806600 0.052700
C40 C 0.816600 0.815000 -0.007700
C41 C 0.873100 0.834600 -0.035100
C42 C 0.940700 0.845700 -0.002100
C43 C 0.952000 0.837300 0.058200
H44 H 0.889700 1.267100 0.193200
H45 H 0.964200 1.251700 0.188100
H46 H 0.813700 1.068900 0.189200
H47 H 0.876600 0.614900 0.159700
H48 H 0.929500 0.665400 0.214800
H49 H 0.956500 0.625600 0.158600
H50 H 0.789100 0.793100 0.071500
H51 H 0.770100 0.807400 -0.030400
H52 H 0.865300 0.840400 -0.076700
H53 H 0.979600 0.859200 -0.021000
H54 H 0.998600 0.844900 0.080900
O55 O 0.474800 0.625000 0.674300
O56 O 0.296500 0.689200 0.677200
O57 O 0.536100 0.440200 0.689700
N58 N 0.424000 0.283400 0.688600
C59 C 0.408500 0.692700 0.651500
C60 C 0.347100 0.621200 0.672200
C61 C 0.353300 0.480800 0.681900
C62 C 0.414000 0.415100 0.681300
C63 C 0.479500 0.491400 0.681100
C64 C 0.418600 0.834400 0.673100
C65 C 0.395600 0.682300 0.585600
C66 C 0.327900 0.693400 0.552700
C67 C 0.316600 0.685000 0.492300
C68 C 0.373100 0.665400 0.464900
C69 C 0.440700 0.654300 0.497900
C70 C 0.452000 0.662700 0.558200
H71 H 0.389700 0.232900 0.693200
H72 H 0.464200 0.248300 0.688100
H73 H 0.313700 0.431100 0.689200
H74 H 0.376600 0.885100 0.659700
H75 H 0.429500 0.834600 0.714800
H76 H 0.456500 0.874400 0.658600
H77 H 0.289100 0.706900 0.571500
H78 H 0.270100 0.692600 0.469600
H79 H 0.365300 0.659600 0.423300
H80 H 0.479600 0.640800 0.479000
H81 H 0.498600 0.655100 0.580900
O82 O 0.025200 0.125000 0.825700
O83 O 0.203500 0.189200 0.822800
O84 O -0.036100 -0.059800 0.810300
N85 N 0.076000 -0.216600 0.811400
C86 C 0.091500 0.192700 0.848500
C87 C 0.152900 0.121200 0.827800
C88 C 0.146700 -0.019200 0.818100
C89 C 0.086000 -0.084900 0.818700
C90 C 0.020500 -0.008600 0.818900
C91 C 0.081400 0.334400 0.826900
C92 C 0.104400 0.182300 0.914400
C93 C 0.172100 0.193400 0.947300
C94 C 0.183400 0.185000 1.007700
C95 C 0.126900 0.165400 1.035100
C96 C 0.059300 0.154300 1.002100
C97 C 0.048000 0.162700 0.941800
H98 H 0.110300 -0.267100 0.806800
H99 H 0.035800 -0.251700 0.811900
H100 H 0.186300 -0.068900 0.810800
H101 H 0.123400 0.385100 0.840300
H102 H 0.070500 0.334600 0.785200
H103 H 0.043500 0.374400 0.841400
H104 H 0.210900 0.206900 0.928500
H105 H 0.229900 0.192600 1.030400
H106 H 0.134700 0.159600 1.076700
H107 H 0.020400 0.140800 1.021000
H108 H 0.001400 0.155100 0.919100
O109 O 0.403500 0.081500 0.338100
O110 O 0.220900 0.144800 0.337200
O111 O 0.456400 -0.102600 0.320800
N112 N 0.340400 -0.256500 0.311500
C113 C 0.345400 0.154300 0.355300
C114 C 0.274300 0.081000 0.337900
C115 C 0.275900 -0.057400 0.324500
C116 C 0.335200 -0.123400 0.321700
C117 C 0.403500 -0.049500 0.327600
C118 C 0.341700 0.284500 0.320100
C119 C 0.361900 0.166300 0.420600
C120 C 0.346900 0.284400 0.447800
C121 C 0.361300 0.292700 0.508300
C122 C 0.390700 0.183000 0.541500
C123 C 0.405700 0.065000 0.514200
C124 C 0.391300 0.056700 0.453800
H125 H 0.303300 -0.305700 0.305800
H126 H 0.380400 -0.292100 0.310800
H127 H 0.232500 -0.106300 0.316700
H128 H 0.304700 0.340200 0.328300
H129 H 0.332900 0.263100 0.279500
H130 H 0.385400 0.331700 0.330400
H131 H 0.326700 0.359800 0.425000
H132 H 0.351000 0.373900 0.527000
H133 H 0.400600 0.188800 0.583100
H134 H 0.425900 -0.010500 0.537100
H135 H 0.401600 -0.024600 0.435000
O136 O 0.096500 0.581500 0.161900
O137 O 0.279100 0.644800 0.162800
O138 O 0.043600 0.397400 0.179200
N139 N 0.159600 0.243500 0.188500
C140 C 0.154600 0.654300 0.144700
C141 C 0.225700 0.581000 0.162100
C142 C 0.224100 0.442600 0.175500
C143 C 0.164800 0.376600 0.178300
C144 C 0.096500 0.450500 0.172400
C145 C 0.158300 0.784500 0.179900
C146 C 0.138100 0.666300 0.079400
C147 C 0.153100 0.784400 0.052200
C148 C 0.138700 0.792700 -0.008300
C149 C 0.109300 0.683000 -0.041500
C150 C 0.094300 0.565000 -0.014200
C151 C 0.108700 0.556700 0.046200
H152 H 0.196700 0.194300 0.194200
H153 H 0.119600 0.207900 0.189200
H154 H 0.267500 0.393700 0.183300
H155 H 0.195300 0.840200 0.171700
H156 H 0.167100 0.763100 0.220500
H157 H 0.114600 0.831700 0.169600
H158 H 0.173300 0.859800 0.075000
H159 H 0.149000 0.873900 -0.027000
H160 H 0.099400 0.688800 -0.083100
H161 H 0.074100 0.489500 -0.037100
H162 H 0.098400 0.475400 0.065000
O163 O 0.596500 0.918500 0.661900
O164 O 0.779100 0.855200 0.662800
O165 O 0.543600 1.102600 0.679200
N166 N 0.659600 1.256500 0.688500
C167 C 0.654600 0.845700 0.644700
C168 C 0.725700 0.919000 0.662100
C169 C 0.724100 1.057400 0.675500
C170 C 0.664800 1.123400 0.678300
C171 C 0.596500 1.049500 0.672400
C172 C 0.658300 0.715500 0.679900
C173 C 0.638100 0.833700 0.579400
C174 C 0.653100 0.715600 0.552200
C175 C 0.638700 0.707300 0.491700
C176 C 0.609300 0.817000 0.458500
C177 C 0.594300 0.935000 0.485800
C178 C 0.608700 0.943300 0.546200
H179 H 0.696700 1.305700 0.694200
H180 H 0.619600 1.292100 0.689200
H181 H 0.767500 1.106300 0.683300
H182 H 0.695300 0.659800 0.671700
H183 H 0.667100 0.736900 0.720500
H184 H 0.614600 0.668300 0.669600
H185 H 0.673300 0.640200 0.575000
H186 H 0.649000 0.626100 0.473000
H187 H 0.599400 0.811200 0.416900
H188 H 0.574100 1.010500 0.462900
H189 H 0.598400 1.024600 0.565000
O190 O 0.903500 0.418500 0.838100
O191 O 0.720900 0.355200 0.837200
O192 O 0.956400 0.602600 0.820800
N193 N 0.840400 0.756500 0.811500
C194 C 0.845400 0.345700 0.855300
C195 C 0.774300 0.419000 0.837900
C196 C 0.775900 0.557400 0.824500
C197 C 0.835200 0.623400 0.821700
C198 C 0.903500 0.549500 0.827600
C199 C 0.841700 0.215500 0.820100
C200 C 0.861900 0.333700 0.920600
C201 C 0.846900 0.215600 0.947800
C202 C 0.861300 0.207300 1.008300
C203 C 0.890700 0.317000 1.041500
C204 C 0.905700 0.435000 1.014200
C205 C 0.891300 0.443300 0.953800
H206 H 0.803300 0.805700 0.805800
H207 H 0.880400 0.792100 0.810800
H208 H 0.732500 0.606300 0.816700
H209 H 0.804700 0.159800 0.828300
H210 H 0.832900 0.236900 0.779500
H211 H 0.885400 0.168300 0.830400
H212 H 0.826700 0.140200 0.925000
H213 H 0.851000 0.126100 1.027000
H214 H 0.900600 0.311200 1.083100
H215 H 0.925900 0.510500 1.037100
H216 H 0.901600 0.524600 0.935000
O217 O 0.024200 0.580600 0.331600
O218 O 0.204500 0.648800 0.333400
O219 O -0.036000 0.396500 0.309800
N220 N 0.078000 0.243600 0.309700
C221 C 0.089100 0.656400 0.350000
C222 C 0.151500 0.582200 0.333400
C223 C 0.147400 0.442300 0.322300
C224 C 0.086200 0.375700 0.317200
C225 C 0.020100 0.450200 0.320700
C226 C 0.074700 0.789800 0.319000
C227 C 0.102400 0.665700 0.415900
C228 C 0.127700 0.784900 0.443800
C229 C 0.140600 0.792600 0.504200
C230 C 0.128200 0.681000 0.536800
C231 C 0.103000 0.561800 0.508900
C232 C 0.090100 0.554100 0.448400
H233 H 0.113200 0.193400 0.307300
H234 H 0.037200 0.208400 0.307100
H235 H 0.188800 0.393800 0.318500
H236 H 0.115200 0.846500 0.328900
H237 H 0.035400 0.832700 0.330400
H238 H 0.064500 0.774600 0.277800
H239 H 0.136200 0.861600 0.421400
H240 H 0.158000 0.874600 0.523400
H241 H 0.137100 0.686300 0.578400
H242 H 0.094500 0.485000 0.531300
H243 H 0.072700 0.472100 0.429200
O244 O 0.475800 0.080600 0.168400
O245 O 0.295500 0.148800 0.166600
O246 O 0.536000 -0.103500 0.190200
N247 N 0.422000 -0.256400 0.190300
C248 C 0.410900 0.156400 0.150000
C249 C 0.348500 0.082200 0.166600
C250 C 0.352600 -0.057700 0.177700
C251 C 0.413800 -0.124300 0.182800
C252 C 0.479900 -0.049800 0.179300
C253 C 0.425300 0.289800 0.181000
C254 C 0.397600 0.165700 0.084100
C255 C 0.372300 0.284900 0.056200
C256 C 0.359400 0.292600 -0.004200
C257 C 0.371800 0.181000 -0.036800
C258 C 0.397000 0.061800 -0.008900
C259 C 0.409900 0.054100 0.051600
H260 H 0.386800 -0.306600 0.192700
H261 H 0.462800 -0.291600 0.192900
H262 H 0.311200 -0.106200 0.181500
H263 H 0.384800 0.346500 0.171100
H264 H 0.464600 0.332700 0.169600
H265 H 0.435500 0.274600 0.222200
H266 H 0.363800 0.361600 0.078600
H267 H 0.342000 0.374600 -0.023400
H268 H 0.362900 0.186300 -0.078400
H269 H 0.405500 -0.015000 -0.031300
H270 H 0.427300 -0.027900 0.070800
O271 O 0.975800 0.419400 0.668400
O272 O 0.795500 0.351200 0.666600
O273 O 1.036000 0.603500 0.690200
N274 N 0.922000 0.756400 0.690300
C275 C 0.910900 0.343600 0.650000
C276 C 0.848500 0.417800 0.666600
C277 C 0.852600 0.557700 0.677700
C278 C 0.913800 0.624300 0.682800
C279 C 0.979900 0.549800 0.679300
C280 C 0.925300 0.210200 0.681000
C281 C 0.897600 0.334300 0.584100
C282 C 0.872300 0.215100 0.556200
C283 C 0.859400 0.207400 0.495800
C284 C 0.871800 0.319000 0.463200
C285 C 0.897000 0.438200 0.491100
C286 C 0.909900 0.445900 0.551600
H287 H 0.886800 0.806600 0.692700
H288 H 0.962800 0.791600 0.692900
H289 H 0.811200 0.606200 0.681500
H290 H 0.884800 0.153500 0.671100
H291 H 0.964600 0.167300 0.669600
H292 H 0.935500 0.225400 0.722200
H293 H 0.863800 0.138400 0.578600
H294 H 0.842000 0.125400 0.476600
H295 H 0.862900 0.313700 0.421600
H296 H 0.905500 0.515000 0.468700
H297 H 0.927300 0.527900 0.570800
O298 O 0.524200 0.919400 0.831600
O299 O 0.704500 0.851200 0.833400
O300 O 0.464000 1.103500 0.809800
N301 N 0.578000 1.256400 0.809700
C302 C 0.589100 0.843600 0.850000
C303 C 0.651500 0.917800 0.833400
C304 C 0.647400 1.057700 0.822300
C305 C 0.586200 1.124300 0.817200
C306 C 0.520100 1.049800 0.820700
C307 C 0.574700 0.710200 0.819000
C308 C 0.602400 0.834300 0.915900
C309 C 0.627700 0.715100 0.943800
C310 C 0.640600 0.707400 1.004200
C311 C 0.628200 0.819000 1.036800
C312 C 0.603000 0.938200 1.008900
C313 C 0.590100 0.945900 0.948400
H314 H 0.613200 1.306600 0.807300
H315 H 0.537200 1.291600 0.807100
H316 H 0.688800 1.106200 0.818500
H317 H 0.615200 0.653500 0.828900
H318 H 0.535400 0.667300 0.830400
H319 H 0.564500 0.725400 0.777800
H320 H 0.636200 0.638400 0.921400
H321 H 0.658000 0.625400 1.023400
H322 H 0.637100 0.813700 1.078400
H323 H 0.594500 1.015000 1.031300
H324 H 0.572700 1.027900 0.929200
O325 O 0.901600 0.875700 0.333700
O326 O 0.721600 0.811900 0.325700
O327 O 0.957500 1.062700 0.323200
N328 N 0.841600 1.219000 0.312300
C329 C 0.844100 0.810100 0.355500
C330 C 0.775700 0.877600 0.330600
C331 C 0.775200 1.018600 0.318500
C332 C 0.836000 1.086900 0.320100
C333 C 0.904100 1.009800 0.327300
C334 C 0.846600 0.667500 0.336100
C335 C 0.860900 0.824400 0.422200
C336 C 0.929700 0.840000 0.452300
C337 C 0.944000 0.847000 0.512800
C338 C 0.889600 0.838500 0.543200
C339 C 0.820700 0.822900 0.513000
C340 C 0.806400 0.815800 0.452500
H341 H 0.805000 1.269400 0.305800
H342 H 0.882300 1.253900 0.313800
H343 H 0.731400 1.065800 0.309300
H344 H 0.810600 0.616700 0.348800
H345 H 0.891500 0.629300 0.352500
H346 H 0.839400 0.664600 0.294600
H347 H 0.967200 0.845800 0.431500
H348 H 0.991400 0.857800 0.533600
H349 H 0.899400 0.843400 0.584800
H350 H 0.783300 0.817100 0.533900
H351 H 0.759100 0.805100 0.431700
O352 O 0.598400 0.375700 0.166300
O353 O 0.778400 0.311900 0.174300
O354 O 0.542500 0.562700 0.176800
N355 N 0.658400 0.719000 0.187700
C356 C 0.655900 0.310100 0.144500
C357 C 0.724300 0.377600 0.169400
C358 C 0.724800 0.518600 0.181500
C359 C 0.664000 0.586900 0.179900
C360 C 0.595900 0.509800 0.172700
C361 C 0.653400 0.167500 0.163900
C362 C 0.639100 0.324400 0.077800
C363 C 0.570300 0.340000 0.047700
C364 C 0.556000 0.347000 -0.012800
C365 C 0.610400 0.338500 -0.043200
C366 C 0.679300 0.322900 -0.013000
C367 C 0.693600 0.315800 0.047500
H368 H 0.695000 0.769400 0.194200
H369 H 0.617700 0.753900 0.186200
H370 H 0.768600 0.565800 0.190700
H371 H 0.689400 0.116700 0.151200
H372 H 0.608500 0.129300 0.147500
H373 H 0.660600 0.164600 0.205400
H374 H 0.532800 0.345800 0.068500
H375 H 0.508600 0.357800 -0.033600
H376 H 0.600600 0.343400 -0.084800
H377 H 0.716700 0.317100 -0.033900
H378 H 0.740900 0.305100 0.068300
O379 O 0.098400 0.124300 0.666300
O380 O 0.278400 0.188100 0.674300
O381 O 0.042500 -0.062700 0.676800
N382 N 0.158400 -0.219000 0.687700
C383 C 0.155900 0.189900 0.644500
C384 C 0.224300 0.122400 0.669400
C385 C 0.224800 -0.018600 0.681500
C386 C 0.164000 -0.086900 0.679900
C387 C 0.095900 -0.009800 0.672700
C388 C 0.153400 0.332500 0.663900
C389 C 0.139100 0.175600 0.577800
C390 C 0.070300 0.160000 0.547700
C391 C 0.056000 0.153000 0.487200
C392 C 0.110400 0.161500 0.456800
C393 C 0.179300 0.177100 0.487000
C394 C 0.193600 0.184200 0.547500
H395 H 0.195000 -0.269400 0.694200
H396 H 0.117700 -0.253900 0.686200
H397 H 0.268600 -0.065800 0.690700
H398 H 0.189400 0.383300 0.651200
H399 H 0.108500 0.370700 0.647500
H400 H 0.160600 0.335400 0.705400
H401 H 0.032800 0.154200 0.568500
H402 H 0.008600 0.142200 0.466400
H403 H 0.100600 0.156600 0.415200
H404 H 0.216700 0.182900 0.466100
H405 H 0.240900 0.194900 0.568300
O406 O 0.401600 0.624300 0.833700
O407 O 0.221600 0.688100 0.825700
O408 O 0.457500 0.437300 0.823200
N409 N 0.341600 0.281000 0.812300
C410 C 0.344100 0.689900 0.855500
C411 C 0.275700 0.622400 0.830600
C412 C 0.275200 0.481400 0.818500
C413 C 0.336000 0.413100 0.820100
C414 C 0.404100 0.490200 0.827300
C415 C 0.346600 0.832500 0.836100
C416 C 0.360900 0.675600 0.922200
C417 C 0.429700 0.660000 0.952300
C418 C 0.444000 0.653000 1.012800
C419 C 0.389600 0.661500 1.043200
C420 C 0.320700 0.677100 1.013000
C421 C 0.306400 0.684200 0.952500
H422 H 0.305000 0.230600 0.805800
H423 H 0.382300 0.246100 0.813800
H424 H 0.231400 0.434200 0.809300
H425 H 0.310600 0.883300 0.848800
H426 H 0.391500 0.870700 0.852500
H427 H 0.339400 0.835400 0.794600
H428 H 0.467200 0.654200 0.931500
H429 H 0.491400 0.642200 1.033600
H430 H 0.399400 0.656600 1.084800
H431 H 0.283300 0.682900 1.033900
H432 H 0.259100 0.694900 0.931700

#END
