
#######################################################################
#
#                 Cambridge Crystallographic Data Centre
#                                CCDC 
#
#######################################################################
#
# If this CIF has been generated from an entry in the Cambridge 
# Structural Database, then it will include bibliographic, chemical, 
# crystal, experimental, refinement or atomic coordinate data resulting 
# from the CCDC's data processing and validation procedures.
#
#######################################################################

data_KACREM01
_symmetry_cell_setting           triclinic
_symmetry_space_group_name_H-M   'P -1'
_symmetry_Int_Tables_number      2
_space_group_name_Hall           '-P 1'
loop_
_symmetry_equiv_pos_site_id
_symmetry_equiv_pos_as_xyz
1 x,y,z
2 -x,-y,-z
_cell_length_a                   7.617(2)
_cell_length_b                   10.296(3)
_cell_length_c                   13.249(4)
_cell_angle_alpha                72.923(12)
_cell_angle_beta                 75.218(13)
_cell_angle_gamma                76.430(14)
_cell_volume                     945.919
loop_
_atom_site_label
_atom_site_type_symbol
_atom_site_fract_x
_atom_site_fract_y
_atom_site_fract_z
C1 C -0.53643(18) 1.46101(14) 0.37366(11)
C2 C -0.63526(18) 0.87851(14) 0.32736(11)
C3 C -0.7589(2) 1.57810(13) 0.25238(11)
C4 C -0.83048(17) 1.37476(13) 0.40740(10)
C5 C -0.9861(2) 1.3473(2) 0.36841(15)
H1 H -0.389(2) 0.7767(17) 0.3753(12)
H2 H -0.234(2) 0.5198(15) 0.1528(12)
H3 H -0.602(2) 1.5277(17) 0.4226(14)
H4 H -0.166(2) 0.7079(16) 0.2061(12)
H5 H -0.716(2) 0.8199(16) 0.3870(13)
H6 H -0.480(2) 0.9056(15) 0.4262(12)
H7 H -0.480(2) 1.3730(19) 0.4210(15)
H8 H -0.436(3) 1.5051(19) 0.3197(15)
H9 H 0.109(2) 0.6954(15) -0.1176(12)
H10 H -1.077(3) 1.300(2) 0.4323(17)
H11 H -0.162(2) 0.8717(16) -0.1184(13)
H12 H -0.031(3) 0.9825(18) 0.4241(15)
H13 H -0.707(3) 0.975(2) 0.3120(16)
H14 H -0.087(2) 0.8437(17) 0.3257(12)
H15 H -0.774(2) 1.2853(17) 0.4546(13)
H16 H -0.240(2) 0.9572(17) 0.4691(14)
H17 H -0.610(3) 0.8401(19) 0.2622(16)
H18 H -0.193(2) 1.1073(19) 0.3847(14)
H19 H -0.845(2) 1.5672(18) 0.2110(14)
H20 H -0.503(2) 1.1722(15) 0.3754(12)
H21 H -0.828(2) 1.6384(18) 0.3020(14)
H22 H -0.879(2) 1.4415(17) 0.4549(14)
H23 H -0.657(2) 1.6251(17) 0.2003(14)
H24 H -0.297(2) 1.0903(15) -0.0859(12)
H25 H -0.051(2) 0.9882(16) 0.2467(13)
H26 H -0.632(2) 1.4639(16) 0.0997(12)
H27 H -1.053(3) 1.437(3) 0.330(2)
H28 H -0.938(3) 1.282(2) 0.3199(18)
H29 H -0.482(2) 1.3072(16) -0.0062(14)
C6 C -0.58093(15) 1.33736(11) 0.24691(9)
C7 C -0.32132(14) 0.95947(11) 0.27020(8)
C8 C -0.49867(15) 1.20354(11) 0.29511(9)
C9 C -0.67732(16) 1.43784(11) 0.31790(9)
C10 C -0.40327(15) 1.14840(11) 0.12196(8)
C11 C -0.48500(16) 1.27934(11) 0.07316(9)
C12 C -0.31252(15) 1.02878(11) 0.07846(9)
C13 C -0.15273(15) 0.76934(11) 0.04109(9)
C14 C -0.19015(16) 0.88394(12) -0.04388(9)
C15 C -0.27289(14) 0.91587(11) 0.16424(8)
C16 C -0.19503(15) 0.78682(11) 0.14663(9)
C17 C -0.26937(16) 1.01313(12) -0.02631(9)
C18 C -0.45371(16) 0.87314(11) 0.35802(9)
C19 C -0.41083(15) 1.10996(11) 0.23380(8)
C20 C -0.07361(15) 0.63174(11) 0.02016(9)
C21 C 0.06281(16) 0.61652(12) -0.07107(9)
C22 C -0.13878(15) 0.94409(12) 0.30771(9)
C23 C -0.13439(16) 0.51263(12) 0.09050(9)
C24 C -0.15279(17) 1.00260(14) 0.40325(10)
C25 C -0.57290(16) 1.37279(11) 0.13557(9)
C1A C 0.53643(18) -0.46101(14) -0.37366(11)
C2A C 0.63526(18) 0.12149(14) -0.32736(11)
C3A C 0.7589(2) -0.57810(13) -0.25238(11)
C4A C 0.83048(17) -0.37476(13) -0.40740(10)
C5A C 0.9861(2) -0.3473(2) -0.36841(15)
H1A H 0.389(2) 0.2233(17) -0.3753(12)
H2A H 0.234(2) 0.4802(15) -0.1528(12)
H3A H 0.602(2) -0.5277(17) -0.4226(14)
H4A H 0.166(2) 0.2921(16) -0.2061(12)
H5A H 0.716(2) 0.1801(16) -0.3870(13)
H6A H 0.480(2) 0.0944(15) -0.4262(12)
H7A H 0.480(2) -0.3730(19) -0.4210(15)
H8A H 0.436(3) -0.5051(19) -0.3197(15)
H9A H -0.109(2) 0.3046(15) 0.1176(12)
H10A H 1.077(3) -0.300(2) -0.4323(17)
H11A H 0.162(2) 0.1283(16) 0.1184(13)
H12A H 0.031(3) 0.0175(18) -0.4241(15)
H13A H 0.707(3) 0.025(2) -0.3120(16)
H14A H 0.087(2) 0.1563(17) -0.3257(12)
H15A H 0.774(2) -0.2853(17) -0.4546(13)
H16A H 0.240(2) 0.0428(17) -0.4691(14)
H17A H 0.610(3) 0.1599(19) -0.2622(16)
H18A H 0.193(2) -0.1073(19) -0.3847(14)
H19A H 0.845(2) -0.5672(18) -0.2110(14)
H20A H 0.503(2) -0.1722(15) -0.3754(12)
H21A H 0.828(2) -0.6384(18) -0.3020(14)
H22A H 0.879(2) -0.4415(17) -0.4549(14)
H23A H 0.657(2) -0.6251(17) -0.2003(14)
H24A H 0.297(2) -0.0903(15) 0.0859(12)
H25A H 0.051(2) 0.0118(16) -0.2467(13)
H26A H 0.632(2) -0.4639(16) -0.0997(12)
H27A H 1.053(3) -0.437(3) -0.330(2)
H28A H 0.938(3) -0.282(2) -0.3199(18)
H29A H 0.482(2) -0.3072(16) 0.0062(14)
C6A C 0.58093(15) -0.33736(11) -0.24691(9)
C7A C 0.32132(14) 0.04053(11) -0.27020(8)
C8A C 0.49867(15) -0.20354(11) -0.29511(9)
C9A C 0.67732(16) -0.43784(11) -0.31790(9)
C10A C 0.40327(15) -0.14840(11) -0.12196(8)
C11A C 0.48500(16) -0.27934(11) -0.07316(9)
C12A C 0.31252(15) -0.02878(11) -0.07846(9)
C13A C 0.15273(15) 0.23066(11) -0.04109(9)
C14A C 0.19015(16) 0.11606(12) 0.04388(9)
C15A C 0.27289(14) 0.08413(11) -0.16424(8)
C16A C 0.19503(15) 0.21318(11) -0.14663(9)
C17A C 0.26937(16) -0.01313(12) 0.02631(9)
C18A C 0.45371(16) 0.12686(11) -0.35802(9)
C19A C 0.41083(15) -0.10996(11) -0.23380(8)
C20A C 0.07361(15) 0.36826(11) -0.02016(9)
C21A C -0.06281(16) 0.38348(12) 0.07107(9)
C22A C 0.13878(15) 0.05591(12) -0.30771(9)
C23A C 0.13439(16) 0.48737(12) -0.09050(9)
C24A C 0.15279(17) -0.00260(14) -0.40325(10)
C25A C 0.57290(16) -0.37279(11) -0.13557(9)
C1 C -0.53643(18) 1.46101(14) 1.37366(11)
C2 C -0.63526(18) 0.87851(14) 1.32736(11)
C3 C -0.7589(2) 1.57810(13) 1.25238(11)
C4 C -0.83048(17) 1.37476(13) 1.40740(10)
C5 C -0.9861(2) 1.3473(2) 1.36841(15)
H1 H -0.389(2) 0.7767(17) 1.3753(12)
H2 H -0.234(2) 0.5198(15) 1.1528(12)
H3 H -0.602(2) 1.5277(17) 1.4226(14)
H4 H -0.166(2) 0.7079(16) 1.2061(12)
H5 H -0.716(2) 0.8199(16) 1.3870(13)
H6 H -0.480(2) 0.9056(15) 1.4262(12)
H7 H -0.480(2) 1.3730(19) 1.4210(15)
H8 H -0.436(3) 1.5051(19) 1.3197(15)
H9 H 0.109(2) 0.6954(15) 0.8824(12)
H10 H -1.077(3) 1.300(2) 1.4323(17)
H11 H -0.162(2) 0.8717(16) 0.8816(13)
H12 H -0.031(3) 0.9825(18) 1.4241(15)
H13 H -0.707(3) 0.975(2) 1.3120(16)
H14 H -0.087(2) 0.8437(17) 1.3257(12)
H15 H -0.774(2) 1.2853(17) 1.4546(13)
H16 H -0.240(2) 0.9572(17) 1.4691(14)
H17 H -0.610(3) 0.8401(19) 1.2622(16)
H18 H -0.193(2) 1.1073(19) 1.3847(14)
H19 H -0.845(2) 1.5672(18) 1.2110(14)
H20 H -0.503(2) 1.1722(15) 1.3754(12)
H21 H -0.828(2) 1.6384(18) 1.3020(14)
H22 H -0.879(2) 1.4415(17) 1.4549(14)
H23 H -0.657(2) 1.6251(17) 1.2003(14)
H24 H -0.297(2) 1.0903(15) 0.9141(12)
H25 H -0.051(2) 0.9882(16) 1.2467(13)
H26 H -0.632(2) 1.4639(16) 1.0997(12)
H27 H -1.053(3) 1.437(3) 1.330(2)
H28 H -0.938(3) 1.282(2) 1.3199(18)
H29 H -0.482(2) 1.3072(16) 0.9938(14)
C6 C -0.58093(15) 1.33736(11) 1.24691(9)
C7 C -0.32132(14) 0.95947(11) 1.27020(8)
C8 C -0.49867(15) 1.20354(11) 1.29511(9)
C9 C -0.67732(16) 1.43784(11) 1.31790(9)
C10 C -0.40327(15) 1.14840(11) 1.12196(8)
C11 C -0.48500(16) 1.27934(11) 1.07316(9)
C12 C -0.31252(15) 1.02878(11) 1.07846(9)
C13 C -0.15273(15) 0.76934(11) 1.04109(9)
C14 C -0.19015(16) 0.88394(12) 0.95612(9)
C15 C -0.27289(14) 0.91587(11) 1.16424(8)
C16 C -0.19503(15) 0.78682(11) 1.14663(9)
C17 C -0.26937(16) 1.01313(12) 0.97369(9)
C18 C -0.45371(16) 0.87314(11) 1.35802(9)
C19 C -0.41083(15) 1.10996(11) 1.23380(8)
C20 C -0.07361(15) 0.63174(11) 1.02016(9)
C21 C 0.06281(16) 0.61652(12) 0.92893(9)
C22 C -0.13878(15) 0.94409(12) 1.30771(9)
C23 C -0.13439(16) 0.51263(12) 1.09050(9)
C24 C -0.15279(17) 1.00260(14) 1.40325(10)
C25 C -0.57290(16) 1.37279(11) 1.13557(9)
C1A C 0.53643(18) -0.46101(14) 0.62634(11)
C2A C 0.63526(18) 0.12149(14) 0.67264(11)
C3A C 0.7589(2) -0.57810(13) 0.74762(11)
C4A C 0.83048(17) -0.37476(13) 0.59260(10)
C5A C 0.9861(2) -0.3473(2) 0.63159(15)
H1A H 0.389(2) 0.2233(17) 0.6247(12)
H2A H 0.234(2) 0.4802(15) 0.8472(12)
H3A H 0.602(2) -0.5277(17) 0.5774(14)
H4A H 0.166(2) 0.2921(16) 0.7939(12)
H5A H 0.716(2) 0.1801(16) 0.6130(13)
H6A H 0.480(2) 0.0944(15) 0.5738(12)
H7A H 0.480(2) -0.3730(19) 0.5790(15)
H8A H 0.436(3) -0.5051(19) 0.6803(15)
H9A H -0.109(2) 0.3046(15) 1.1176(12)
H10A H 1.077(3) -0.300(2) 0.5677(17)
H11A H 0.162(2) 0.1283(16) 1.1184(13)
H12A H 0.031(3) 0.0175(18) 0.5759(15)
H13A H 0.707(3) 0.025(2) 0.6880(16)
H14A H 0.087(2) 0.1563(17) 0.6743(12)
H15A H 0.774(2) -0.2853(17) 0.5454(13)
H16A H 0.240(2) 0.0428(17) 0.5309(14)
H17A H 0.610(3) 0.1599(19) 0.7378(16)
H18A H 0.193(2) -0.1073(19) 0.6153(14)
H19A H 0.845(2) -0.5672(18) 0.7890(14)
H20A H 0.503(2) -0.1722(15) 0.6246(12)
H21A H 0.828(2) -0.6384(18) 0.6980(14)
H22A H 0.879(2) -0.4415(17) 0.5451(14)
H23A H 0.657(2) -0.6251(17) 0.7997(14)
H24A H 0.297(2) -0.0903(15) 1.0859(12)
H25A H 0.051(2) 0.0118(16) 0.7533(13)
H26A H 0.632(2) -0.4639(16) 0.9003(12)
H27A H 1.053(3) -0.437(3) 0.670(2)
H28A H 0.938(3) -0.282(2) 0.6801(18)
H29A H 0.482(2) -0.3072(16) 1.0062(14)
C6A C 0.58093(15) -0.33736(11) 0.75309(9)
C7A C 0.32132(14) 0.04053(11) 0.72980(8)
C8A C 0.49867(15) -0.20354(11) 0.70489(9)
C9A C 0.67732(16) -0.43784(11) 0.68210(9)
C10A C 0.40327(15) -0.14840(11) 0.87804(8)
C11A C 0.48500(16) -0.27934(11) 0.92684(9)
C12A C 0.31252(15) -0.02878(11) 0.92154(9)
C13A C 0.15273(15) 0.23066(11) 0.95891(9)
C14A C 0.19015(16) 0.11606(12) 1.04388(9)
C15A C 0.27289(14) 0.08413(11) 0.83576(8)
C16A C 0.19503(15) 0.21318(11) 0.85337(9)
C17A C 0.26937(16) -0.01313(12) 1.02631(9)
C18A C 0.45371(16) 0.12686(11) 0.64198(9)
C19A C 0.41083(15) -0.10996(11) 0.76620(8)
C20A C 0.07361(15) 0.36826(11) 0.97984(9)
C21A C -0.06281(16) 0.38348(12) 1.07107(9)
C22A C 0.13878(15) 0.05591(12) 0.69229(9)
C23A C 0.13439(16) 0.48737(12) 0.90950(9)
C24A C 0.15279(17) -0.00260(14) 0.59675(10)
C25A C 0.57290(16) -0.37279(11) 0.86443(9)
C1 C 0.46357(18) 1.46101(14) 0.37366(11)
C2 C 0.36474(18) 0.87851(14) 0.32736(11)
C3 C 0.2411(2) 1.57810(13) 0.25238(11)
C4 C 0.16952(17) 1.37476(13) 0.40740(10)
C5 C 0.0139(2) 1.3473(2) 0.36841(15)
H1 H 0.611(2) 0.7767(17) 0.3753(12)
H2 H 0.766(2) 0.5198(15) 0.1528(12)
H3 H 0.398(2) 1.5277(17) 0.4226(14)
H4 H 0.834(2) 0.7079(16) 0.2061(12)
H5 H 0.284(2) 0.8199(16) 0.3870(13)
H6 H 0.520(2) 0.9056(15) 0.4262(12)
H7 H 0.520(2) 1.3730(19) 0.4210(15)
H8 H 0.564(3) 1.5051(19) 0.3197(15)
H9 H 1.109(2) 0.6954(15) -0.1176(12)
H10 H -0.077(3) 1.300(2) 0.4323(17)
H11 H 0.838(2) 0.8717(16) -0.1184(13)
H12 H 0.969(3) 0.9825(18) 0.4241(15)
H13 H 0.293(3) 0.975(2) 0.3120(16)
H14 H 0.913(2) 0.8437(17) 0.3257(12)
H15 H 0.226(2) 1.2853(17) 0.4546(13)
H16 H 0.760(2) 0.9572(17) 0.4691(14)
H17 H 0.390(3) 0.8401(19) 0.2622(16)
H18 H 0.807(2) 1.1073(19) 0.3847(14)
H19 H 0.155(2) 1.5672(18) 0.2110(14)
H20 H 0.497(2) 1.1722(15) 0.3754(12)
H21 H 0.172(2) 1.6384(18) 0.3020(14)
H22 H 0.121(2) 1.4415(17) 0.4549(14)
H23 H 0.343(2) 1.6251(17) 0.2003(14)
H24 H 0.703(2) 1.0903(15) -0.0859(12)
H25 H 0.949(2) 0.9882(16) 0.2467(13)
H26 H 0.368(2) 1.4639(16) 0.0997(12)
H27 H -0.053(3) 1.437(3) 0.330(2)
H28 H 0.062(3) 1.282(2) 0.3199(18)
H29 H 0.518(2) 1.3072(16) -0.0062(14)
C6 C 0.41907(15) 1.33736(11) 0.24691(9)
C7 C 0.67868(14) 0.95947(11) 0.27020(8)
C8 C 0.50133(15) 1.20354(11) 0.29511(9)
C9 C 0.32268(16) 1.43784(11) 0.31790(9)
C10 C 0.59673(15) 1.14840(11) 0.12196(8)
C11 C 0.51500(16) 1.27934(11) 0.07316(9)
C12 C 0.68748(15) 1.02878(11) 0.07846(9)
C13 C 0.84727(15) 0.76934(11) 0.04109(9)
C14 C 0.80985(16) 0.88394(12) -0.04388(9)
C15 C 0.72711(14) 0.91587(11) 0.16424(8)
C16 C 0.80497(15) 0.78682(11) 0.14663(9)
C17 C 0.73063(16) 1.01313(12) -0.02631(9)
C18 C 0.54629(16) 0.87314(11) 0.35802(9)
C19 C 0.58917(15) 1.10996(11) 0.23380(8)
C20 C 0.92639(15) 0.63174(11) 0.02016(9)
C21 C 1.06281(16) 0.61652(12) -0.07107(9)
C22 C 0.86122(15) 0.94409(12) 0.30771(9)
C23 C 0.86561(16) 0.51263(12) 0.09050(9)
C24 C 0.84721(17) 1.00260(14) 0.40325(10)
C25 C 0.42710(16) 1.37279(11) 0.13557(9)
C1A C 1.53643(18) -0.46101(14) -0.37366(11)
C2A C 1.63526(18) 0.12149(14) -0.32736(11)
C3A C 1.7589(2) -0.57810(13) -0.25238(11)
C4A C 1.83048(17) -0.37476(13) -0.40740(10)
C5A C 1.9861(2) -0.3473(2) -0.36841(15)
H1A H 1.389(2) 0.2233(17) -0.3753(12)
H2A H 1.234(2) 0.4802(15) -0.1528(12)
H3A H 1.602(2) -0.5277(17) -0.4226(14)
H4A H 1.166(2) 0.2921(16) -0.2061(12)
H5A H 1.716(2) 0.1801(16) -0.3870(13)
H6A H 1.480(2) 0.0944(15) -0.4262(12)
H7A H 1.480(2) -0.3730(19) -0.4210(15)
H8A H 1.436(3) -0.5051(19) -0.3197(15)
H9A H 0.891(2) 0.3046(15) 0.1176(12)
H10A H 2.077(3) -0.300(2) -0.4323(17)
H11A H 1.162(2) 0.1283(16) 0.1184(13)
H12A H 1.031(3) 0.0175(18) -0.4241(15)
H13A H 1.707(3) 0.025(2) -0.3120(16)
H14A H 1.087(2) 0.1563(17) -0.3257(12)
H15A H 1.774(2) -0.2853(17) -0.4546(13)
H16A H 1.240(2) 0.0428(17) -0.4691(14)
H17A H 1.610(3) 0.1599(19) -0.2622(16)
H18A H 1.193(2) -0.1073(19) -0.3847(14)
H19A H 1.845(2) -0.5672(18) -0.2110(14)
H20A H 1.503(2) -0.1722(15) -0.3754(12)
H21A H 1.828(2) -0.6384(18) -0.3020(14)
H22A H 1.879(2) -0.4415(17) -0.4549(14)
H23A H 1.657(2) -0.6251(17) -0.2003(14)
H24A H 1.297(2) -0.0903(15) 0.0859(12)
H25A H 1.051(2) 0.0118(16) -0.2467(13)
H26A H 1.632(2) -0.4639(16) -0.0997(12)
H27A H 2.053(3) -0.437(3) -0.330(2)
H28A H 1.938(3) -0.282(2) -0.3199(18)
H29A H 1.482(2) -0.3072(16) 0.0062(14)
C6A C 1.58093(15) -0.33736(11) -0.24691(9)
C7A C 1.32132(14) 0.04053(11) -0.27020(8)
C8A C 1.49867(15) -0.20354(11) -0.29511(9)
C9A C 1.67732(16) -0.43784(11) -0.31790(9)
C10A C 1.40327(15) -0.14840(11) -0.12196(8)
C11A C 1.48500(16) -0.27934(11) -0.07316(9)
C12A C 1.31252(15) -0.02878(11) -0.07846(9)
C13A C 1.15273(15) 0.23066(11) -0.04109(9)
C14A C 1.19015(16) 0.11606(12) 0.04388(9)
C15A C 1.27289(14) 0.08413(11) -0.16424(8)
C16A C 1.19503(15) 0.21318(11) -0.14663(9)
C17A C 1.26937(16) -0.01313(12) 0.02631(9)
C18A C 1.45371(16) 0.12686(11) -0.35802(9)
C19A C 1.41083(15) -0.10996(11) -0.23380(8)
C20A C 1.07361(15) 0.36826(11) -0.02016(9)
C21A C 0.93719(16) 0.38348(12) 0.07107(9)
C22A C 1.13878(15) 0.05591(12) -0.30771(9)
C23A C 1.13439(16) 0.48737(12) -0.09050(9)
C24A C 1.15279(17) -0.00260(14) -0.40325(10)
C25A C 1.57290(16) -0.37279(11) -0.13557(9)
C1 C 0.46357(18) 1.46101(14) 1.37366(11)
C2 C 0.36474(18) 0.87851(14) 1.32736(11)
C3 C 0.2411(2) 1.57810(13) 1.25238(11)
C4 C 0.16952(17) 1.37476(13) 1.40740(10)
C5 C 0.0139(2) 1.3473(2) 1.36841(15)
H1 H 0.611(2) 0.7767(17) 1.3753(12)
H2 H 0.766(2) 0.5198(15) 1.1528(12)
H3 H 0.398(2) 1.5277(17) 1.4226(14)
H4 H 0.834(2) 0.7079(16) 1.2061(12)
H5 H 0.284(2) 0.8199(16) 1.3870(13)
H6 H 0.520(2) 0.9056(15) 1.4262(12)
H7 H 0.520(2) 1.3730(19) 1.4210(15)
H8 H 0.564(3) 1.5051(19) 1.3197(15)
H9 H 1.109(2) 0.6954(15) 0.8824(12)
H10 H -0.077(3) 1.300(2) 1.4323(17)
H11 H 0.838(2) 0.8717(16) 0.8816(13)
H12 H 0.969(3) 0.9825(18) 1.4241(15)
H13 H 0.293(3) 0.975(2) 1.3120(16)
H14 H 0.913(2) 0.8437(17) 1.3257(12)
H15 H 0.226(2) 1.2853(17) 1.4546(13)
H16 H 0.760(2) 0.9572(17) 1.4691(14)
H17 H 0.390(3) 0.8401(19) 1.2622(16)
H18 H 0.807(2) 1.1073(19) 1.3847(14)
H19 H 0.155(2) 1.5672(18) 1.2110(14)
H20 H 0.497(2) 1.1722(15) 1.3754(12)
H21 H 0.172(2) 1.6384(18) 1.3020(14)
H22 H 0.121(2) 1.4415(17) 1.4549(14)
H23 H 0.343(2) 1.6251(17) 1.2003(14)
H24 H 0.703(2) 1.0903(15) 0.9141(12)
H25 H 0.949(2) 0.9882(16) 1.2467(13)
H26 H 0.368(2) 1.4639(16) 1.0997(12)
H27 H -0.053(3) 1.437(3) 1.330(2)
H28 H 0.062(3) 1.282(2) 1.3199(18)
H29 H 0.518(2) 1.3072(16) 0.9938(14)
C6 C 0.41907(15) 1.33736(11) 1.24691(9)
C7 C 0.67868(14) 0.95947(11) 1.27020(8)
C8 C 0.50133(15) 1.20354(11) 1.29511(9)
C9 C 0.32268(16) 1.43784(11) 1.31790(9)
C10 C 0.59673(15) 1.14840(11) 1.12196(8)
C11 C 0.51500(16) 1.27934(11) 1.07316(9)
C12 C 0.68748(15) 1.02878(11) 1.07846(9)
C13 C 0.84727(15) 0.76934(11) 1.04109(9)
C14 C 0.80985(16) 0.88394(12) 0.95612(9)
C15 C 0.72711(14) 0.91587(11) 1.16424(8)
C16 C 0.80497(15) 0.78682(11) 1.14663(9)
C17 C 0.73063(16) 1.01313(12) 0.97369(9)
C18 C 0.54629(16) 0.87314(11) 1.35802(9)
C19 C 0.58917(15) 1.10996(11) 1.23380(8)
C20 C 0.92639(15) 0.63174(11) 1.02016(9)
C21 C 1.06281(16) 0.61652(12) 0.92893(9)
C22 C 0.86122(15) 0.94409(12) 1.30771(9)
C23 C 0.86561(16) 0.51263(12) 1.09050(9)
C24 C 0.84721(17) 1.00260(14) 1.40325(10)
C25 C 0.42710(16) 1.37279(11) 1.13557(9)
C1A C 1.53643(18) -0.46101(14) 0.62634(11)
C2A C 1.63526(18) 0.12149(14) 0.67264(11)
C3A C 1.7589(2) -0.57810(13) 0.74762(11)
C4A C 1.83048(17) -0.37476(13) 0.59260(10)
C5A C 1.9861(2) -0.3473(2) 0.63159(15)
H1A H 1.389(2) 0.2233(17) 0.6247(12)
H2A H 1.234(2) 0.4802(15) 0.8472(12)
H3A H 1.602(2) -0.5277(17) 0.5774(14)
H4A H 1.166(2) 0.2921(16) 0.7939(12)
H5A H 1.716(2) 0.1801(16) 0.6130(13)
H6A H 1.480(2) 0.0944(15) 0.5738(12)
H7A H 1.480(2) -0.3730(19) 0.5790(15)
H8A H 1.436(3) -0.5051(19) 0.6803(15)
H9A H 0.891(2) 0.3046(15) 1.1176(12)
H10A H 2.077(3) -0.300(2) 0.5677(17)
H11A H 1.162(2) 0.1283(16) 1.1184(13)
H12A H 1.031(3) 0.0175(18) 0.5759(15)
H13A H 1.707(3) 0.025(2) 0.6880(16)
H14A H 1.087(2) 0.1563(17) 0.6743(12)
H15A H 1.774(2) -0.2853(17) 0.5454(13)
H16A H 1.240(2) 0.0428(17) 0.5309(14)
H17A H 1.610(3) 0.1599(19) 0.7378(16)
H18A H 1.193(2) -0.1073(19) 0.6153(14)
H19A H 1.845(2) -0.5672(18) 0.7890(14)
H20A H 1.503(2) -0.1722(15) 0.6246(12)
H21A H 1.828(2) -0.6384(18) 0.6980(14)
H22A H 1.879(2) -0.4415(17) 0.5451(14)
H23A H 1.657(2) -0.6251(17) 0.7997(14)
H24A H 1.297(2) -0.0903(15) 1.0859(12)
H25A H 1.051(2) 0.0118(16) 0.7533(13)
H26A H 1.632(2) -0.4639(16) 0.9003(12)
H27A H 2.053(3) -0.437(3) 0.670(2)
H28A H 1.938(3) -0.282(2) 0.6801(18)
H29A H 1.482(2) -0.3072(16) 1.0062(14)
C6A C 1.58093(15) -0.33736(11) 0.75309(9)
C7A C 1.32132(14) 0.04053(11) 0.72980(8)
C8A C 1.49867(15) -0.20354(11) 0.70489(9)
C9A C 1.67732(16) -0.43784(11) 0.68210(9)
C10A C 1.40327(15) -0.14840(11) 0.87804(8)
C11A C 1.48500(16) -0.27934(11) 0.92684(9)
C12A C 1.31252(15) -0.02878(11) 0.92154(9)
C13A C 1.15273(15) 0.23066(11) 0.95891(9)
C14A C 1.19015(16) 0.11606(12) 1.04388(9)
C15A C 1.27289(14) 0.08413(11) 0.83576(8)
C16A C 1.19503(15) 0.21318(11) 0.85337(9)
C17A C 1.26937(16) -0.01313(12) 1.02631(9)
C18A C 1.45371(16) 0.12686(11) 0.64198(9)
C19A C 1.41083(15) -0.10996(11) 0.76620(8)
C20A C 1.07361(15) 0.36826(11) 0.97984(9)
C21A C 0.93719(16) 0.38348(12) 1.07107(9)
C22A C 1.13878(15) 0.05591(12) 0.69229(9)
C23A C 1.13439(16) 0.48737(12) 0.90950(9)
C24A C 1.15279(17) -0.00260(14) 0.59675(10)
C25A C 1.57290(16) -0.37279(11) 0.86443(9)

#END
