./KACRUB01_from_xyz.cif_generated_by_CrystalShift
_symmetry_cell_setting triclinic
_symmetry_space_group_name_H-M 'P 1'
loop_
_symmetry_equiv_pos_site_id
_symmetry_equiv_pos_as_xyz
1 x,y,z
_cell_length_a 11.239000
_cell_length_b 6.830000
_cell_length_c 16.052000
_cell_angle_alpha 90.000000
_cell_angle_beta 105.200000
_cell_angle_gamma 90.000000
_cell_volume 1189.083271
loop_
_atom_site_label
_atom_site_type_symbol
_atom_site_fract_x
_atom_site_fract_y
_atom_site_fract_z
V1 V 0.129200 0.015700 0.473000
O2 O 0.042500 0.113100 0.361600
O3 O 0.374100 -0.124000 0.801400
O4 O 0.266100 0.098000 0.480000
O5 O 0.067100 0.152700 0.536100
N6 N 0.140200 -0.248000 0.403900
N7 N 0.190900 -0.196000 0.574200
C8 C 0.061400 0.076000 0.284900
C9 C 0.024500 0.220000 0.220400
C10 C 0.035200 0.185000 0.139200
C11 C 0.081100 0.007000 0.117400
C12 C 0.116800 -0.136000 0.179900
C13 C 0.108900 -0.102000 0.263900
C14 C 0.137200 -0.264000 0.325200
C15 C 0.154700 -0.428000 0.455100
C16 C 0.237600 -0.379000 0.544400
C17 C 0.282600 -0.112000 0.649500
C18 C 0.298500 -0.234000 0.729100
H19 H 0.130000 -0.250000 0.604000
H20 H -0.021000 0.351000 0.236000
H21 H 0.381000 -0.209000 0.864000
H22 H 0.006000 0.318000 0.090000
H23 H 0.105000 -0.002000 0.063000
H24 H 0.169000 -0.251000 0.164000
H25 H 0.158000 -0.416000 0.298000
H26 H 0.065000 -0.493000 0.461000
H27 H 0.178000 -0.562000 0.428000
H28 H 0.245000 -0.469000 0.600000
H29 H 0.320000 -0.343000 0.529000
H30 H 0.273000 0.036000 0.668000
H31 H 0.365000 -0.094000 0.632000
H32 H 0.218000 -0.206000 0.741000
V33 V -0.129200 -0.015700 0.527000
O34 O -0.042500 -0.113100 0.638400
O35 O -0.374100 0.124000 0.198600
O36 O -0.266100 -0.098000 0.520000
O37 O -0.067100 -0.152700 0.463900
N38 N -0.140200 0.248000 0.596100
N39 N -0.190900 0.196000 0.425800
C40 C -0.061400 -0.076000 0.715100
C41 C -0.024500 -0.220000 0.779600
C42 C -0.035200 -0.185000 0.860800
C43 C -0.081100 -0.007000 0.882600
C44 C -0.116800 0.136000 0.820100
C45 C -0.108900 0.102000 0.736100
C46 C -0.137200 0.264000 0.674800
C47 C -0.154700 0.428000 0.544900
C48 C -0.237600 0.379000 0.455600
C49 C -0.282600 0.112000 0.350500
C50 C -0.298500 0.234000 0.270900
H51 H -0.130000 0.250000 0.396000
H52 H 0.021000 -0.351000 0.764000
H53 H -0.381000 0.209000 0.136000
H54 H -0.006000 -0.318000 0.910000
H55 H -0.105000 0.002000 0.937000
H56 H -0.169000 0.251000 0.836000
H57 H -0.158000 0.416000 0.702000
H58 H -0.065000 0.493000 0.539000
H59 H -0.178000 0.562000 0.572000
H60 H -0.245000 0.469000 0.400000
H61 H -0.320000 0.343000 0.471000
H62 H -0.273000 -0.036000 0.332000
H63 H -0.365000 0.094000 0.368000
H64 H -0.218000 0.206000 0.259000
V65 V 0.129200 1.015700 0.473000
O66 O 0.042500 1.113100 0.361600
O67 O 0.374100 0.876000 0.801400
O68 O 0.266100 1.098000 0.480000
O69 O 0.067100 1.152700 0.536100
N70 N 0.140200 0.752000 0.403900
N71 N 0.190900 0.804000 0.574200
C72 C 0.061400 1.076000 0.284900
C73 C 0.024500 1.220000 0.220400
C74 C 0.035200 1.185000 0.139200
C75 C 0.081100 1.007000 0.117400
C76 C 0.116800 0.864000 0.179900
C77 C 0.108900 0.898000 0.263900
C78 C 0.137200 0.736000 0.325200
C79 C 0.154700 0.572000 0.455100
C80 C 0.237600 0.621000 0.544400
C81 C 0.282600 0.888000 0.649500
C82 C 0.298500 0.766000 0.729100
H83 H 0.130000 0.750000 0.604000
H84 H -0.021000 1.351000 0.236000
H85 H 0.381000 0.791000 0.864000
H86 H 0.006000 1.318000 0.090000
H87 H 0.105000 0.998000 0.063000
H88 H 0.169000 0.749000 0.164000
H89 H 0.158000 0.584000 0.298000
H90 H 0.065000 0.507000 0.461000
H91 H 0.178000 0.438000 0.428000
H92 H 0.245000 0.531000 0.600000
H93 H 0.320000 0.657000 0.529000
H94 H 0.273000 1.036000 0.668000
H95 H 0.365000 0.906000 0.632000
H96 H 0.218000 0.794000 0.741000
V97 V -0.129200 0.984300 0.527000
O98 O -0.042500 0.886900 0.638400
O99 O -0.374100 1.124000 0.198600
O100 O -0.266100 0.902000 0.520000
O101 O -0.067100 0.847300 0.463900
N102 N -0.140200 1.248000 0.596100
N103 N -0.190900 1.196000 0.425800
C104 C -0.061400 0.924000 0.715100
C105 C -0.024500 0.780000 0.779600
C106 C -0.035200 0.815000 0.860800
C107 C -0.081100 0.993000 0.882600
C108 C -0.116800 1.136000 0.820100
C109 C -0.108900 1.102000 0.736100
C110 C -0.137200 1.264000 0.674800
C111 C -0.154700 1.428000 0.544900
C112 C -0.237600 1.379000 0.455600
C113 C -0.282600 1.112000 0.350500
C114 C -0.298500 1.234000 0.270900
H115 H -0.130000 1.250000 0.396000
H116 H 0.021000 0.649000 0.764000
H117 H -0.381000 1.209000 0.136000
H118 H -0.006000 0.682000 0.910000
H119 H -0.105000 1.002000 0.937000
H120 H -0.169000 1.251000 0.836000
H121 H -0.158000 1.416000 0.702000
H122 H -0.065000 1.493000 0.539000
H123 H -0.178000 1.562000 0.572000
H124 H -0.245000 1.469000 0.400000
H125 H -0.320000 1.343000 0.471000
H126 H -0.273000 0.964000 0.332000
H127 H -0.365000 1.094000 0.368000
H128 H -0.218000 1.206000 0.259000
V129 V 1.129200 0.015700 0.473000
O130 O 1.042500 0.113100 0.361600
O131 O 1.374100 -0.124000 0.801400
O132 O 1.266100 0.098000 0.480000
O133 O 1.067100 0.152700 0.536100
N134 N 1.140200 -0.248000 0.403900
N135 N 1.190900 -0.196000 0.574200
C136 C 1.061400 0.076000 0.284900
C137 C 1.024500 0.220000 0.220400
C138 C 1.035200 0.185000 0.139200
C139 C 1.081100 0.007000 0.117400
C140 C 1.116800 -0.136000 0.179900
C141 C 1.108900 -0.102000 0.263900
C142 C 1.137200 -0.264000 0.325200
C143 C 1.154700 -0.428000 0.455100
C144 C 1.237600 -0.379000 0.544400
C145 C 1.282600 -0.112000 0.649500
C146 C 1.298500 -0.234000 0.729100
H147 H 1.130000 -0.250000 0.604000
H148 H 0.979000 0.351000 0.236000
H149 H 1.381000 -0.209000 0.864000
H150 H 1.006000 0.318000 0.090000
H151 H 1.105000 -0.002000 0.063000
H152 H 1.169000 -0.251000 0.164000
H153 H 1.158000 -0.416000 0.298000
H154 H 1.065000 -0.493000 0.461000
H155 H 1.178000 -0.562000 0.428000
H156 H 1.245000 -0.469000 0.600000
H157 H 1.320000 -0.343000 0.529000
H158 H 1.273000 0.036000 0.668000
H159 H 1.365000 -0.094000 0.632000
H160 H 1.218000 -0.206000 0.741000
V161 V 0.870800 -0.015700 0.527000
O162 O 0.957500 -0.113100 0.638400
O163 O 0.625900 0.124000 0.198600
O164 O 0.733900 -0.098000 0.520000
O165 O 0.932900 -0.152700 0.463900
N166 N 0.859800 0.248000 0.596100
N167 N 0.809100 0.196000 0.425800
C168 C 0.938600 -0.076000 0.715100
C169 C 0.975500 -0.220000 0.779600
C170 C 0.964800 -0.185000 0.860800
C171 C 0.918900 -0.007000 0.882600
C172 C 0.883200 0.136000 0.820100
C173 C 0.891100 0.102000 0.736100
C174 C 0.862800 0.264000 0.674800
C175 C 0.845300 0.428000 0.544900
C176 C 0.762400 0.379000 0.455600
C177 C 0.717400 0.112000 0.350500
C178 C 0.701500 0.234000 0.270900
H179 H 0.870000 0.250000 0.396000
H180 H 1.021000 -0.351000 0.764000
H181 H 0.619000 0.209000 0.136000
H182 H 0.994000 -0.318000 0.910000
H183 H 0.895000 0.002000 0.937000
H184 H 0.831000 0.251000 0.836000
H185 H 0.842000 0.416000 0.702000
H186 H 0.935000 0.493000 0.539000
H187 H 0.822000 0.562000 0.572000
H188 H 0.755000 0.469000 0.400000
H189 H 0.680000 0.343000 0.471000
H190 H 0.727000 -0.036000 0.332000
H191 H 0.635000 0.094000 0.368000
H192 H 0.782000 0.206000 0.259000
V193 V 1.129200 1.015700 0.473000
O194 O 1.042500 1.113100 0.361600
O195 O 1.374100 0.876000 0.801400
O196 O 1.266100 1.098000 0.480000
O197 O 1.067100 1.152700 0.536100
N198 N 1.140200 0.752000 0.403900
N199 N 1.190900 0.804000 0.574200
C200 C 1.061400 1.076000 0.284900
C201 C 1.024500 1.220000 0.220400
C202 C 1.035200 1.185000 0.139200
C203 C 1.081100 1.007000 0.117400
C204 C 1.116800 0.864000 0.179900
C205 C 1.108900 0.898000 0.263900
C206 C 1.137200 0.736000 0.325200
C207 C 1.154700 0.572000 0.455100
C208 C 1.237600 0.621000 0.544400
C209 C 1.282600 0.888000 0.649500
C210 C 1.298500 0.766000 0.729100
H211 H 1.130000 0.750000 0.604000
H212 H 0.979000 1.351000 0.236000
H213 H 1.381000 0.791000 0.864000
H214 H 1.006000 1.318000 0.090000
H215 H 1.105000 0.998000 0.063000
H216 H 1.169000 0.749000 0.164000
H217 H 1.158000 0.584000 0.298000
H218 H 1.065000 0.507000 0.461000
H219 H 1.178000 0.438000 0.428000
H220 H 1.245000 0.531000 0.600000
H221 H 1.320000 0.657000 0.529000
H222 H 1.273000 1.036000 0.668000
H223 H 1.365000 0.906000 0.632000
H224 H 1.218000 0.794000 0.741000
V225 V 0.870800 0.984300 0.527000
O226 O 0.957500 0.886900 0.638400
O227 O 0.625900 1.124000 0.198600
O228 O 0.733900 0.902000 0.520000
O229 O 0.932900 0.847300 0.463900
N230 N 0.859800 1.248000 0.596100
N231 N 0.809100 1.196000 0.425800
C232 C 0.938600 0.924000 0.715100
C233 C 0.975500 0.780000 0.779600
C234 C 0.964800 0.815000 0.860800
C235 C 0.918900 0.993000 0.882600
C236 C 0.883200 1.136000 0.820100
C237 C 0.891100 1.102000 0.736100
C238 C 0.862800 1.264000 0.674800
C239 C 0.845300 1.428000 0.544900
C240 C 0.762400 1.379000 0.455600
C241 C 0.717400 1.112000 0.350500
C242 C 0.701500 1.234000 0.270900
H243 H 0.870000 1.250000 0.396000
H244 H 1.021000 0.649000 0.764000
H245 H 0.619000 1.209000 0.136000
H246 H 0.994000 0.682000 0.910000
H247 H 0.895000 1.002000 0.937000
H248 H 0.831000 1.251000 0.836000
H249 H 0.842000 1.416000 0.702000
H250 H 0.935000 1.493000 0.539000
H251 H 0.822000 1.562000 0.572000
H252 H 0.755000 1.469000 0.400000
H253 H 0.680000 1.343000 0.471000
H254 H 0.727000 0.964000 0.332000
H255 H 0.635000 1.094000 0.368000
H256 H 0.782000 1.206000 0.259000
V257 V 0.370800 0.515700 0.027000
O258 O 0.457500 0.613100 0.138400
O259 O 0.125900 0.376000 -0.301400
O260 O 0.233900 0.598000 0.020000
O261 O 0.432900 0.652700 -0.036100
N262 N 0.359800 0.252000 0.096100
N263 N 0.309100 0.304000 -0.074200
C264 C 0.438600 0.576000 0.215100
C265 C 0.475500 0.720000 0.279600
C266 C 0.464800 0.685000 0.360800
C267 C 0.418900 0.507000 0.382600
C268 C 0.383200 0.364000 0.320100
C269 C 0.391100 0.398000 0.236100
C270 C 0.362800 0.236000 0.174800
C271 C 0.345300 0.072000 0.044900
C272 C 0.262400 0.121000 -0.044400
C273 C 0.217400 0.388000 -0.149500
C274 C 0.201500 0.266000 -0.229100
H275 H 0.370000 0.250000 -0.104000
H276 H 0.521000 0.851000 0.264000
H277 H 0.119000 0.291000 -0.364000
H278 H 0.494000 0.818000 0.410000
H279 H 0.395000 0.498000 0.437000
H280 H 0.331000 0.249000 0.336000
H281 H 0.342000 0.084000 0.202000
H282 H 0.435000 0.007000 0.039000
H283 H 0.322000 -0.062000 0.072000
H284 H 0.255000 0.031000 -0.100000
H285 H 0.180000 0.157000 -0.029000
H286 H 0.227000 0.536000 -0.168000
H287 H 0.135000 0.406000 -0.132000
H288 H 0.282000 0.294000 -0.241000
V289 V 0.629200 0.484300 -0.027000
O290 O 0.542500 0.386900 -0.138400
O291 O 0.874100 0.624000 0.301400
O292 O 0.766100 0.402000 -0.020000
O293 O 0.567100 0.347300 0.036100
N294 N 0.640200 0.748000 -0.096100
N295 N 0.690900 0.696000 0.074200
C296 C 0.561400 0.424000 -0.215100
C297 C 0.524500 0.280000 -0.279600
C298 C 0.535200 0.315000 -0.360800
C299 C 0.581100 0.493000 -0.382600
C300 C 0.616800 0.636000 -0.320100
C301 C 0.608900 0.602000 -0.236100
C302 C 0.637200 0.764000 -0.174800
C303 C 0.654700 0.928000 -0.044900
C304 C 0.737600 0.879000 0.044400
C305 C 0.782600 0.612000 0.149500
C306 C 0.798500 0.734000 0.229100
H307 H 0.630000 0.750000 0.104000
H308 H 0.479000 0.149000 -0.264000
H309 H 0.881000 0.709000 0.364000
H310 H 0.506000 0.182000 -0.410000
H311 H 0.605000 0.502000 -0.437000
H312 H 0.669000 0.751000 -0.336000
H313 H 0.658000 0.916000 -0.202000
H314 H 0.565000 0.993000 -0.039000
H315 H 0.678000 1.062000 -0.072000
H316 H 0.745000 0.969000 0.100000
H317 H 0.820000 0.843000 0.029000
H318 H 0.773000 0.464000 0.168000
H319 H 0.865000 0.594000 0.132000
H320 H 0.718000 0.706000 0.241000
V321 V 0.370800 0.515700 1.027000
O322 O 0.457500 0.613100 1.138400
O323 O 0.125900 0.376000 0.698600
O324 O 0.233900 0.598000 1.020000
O325 O 0.432900 0.652700 0.963900
N326 N 0.359800 0.252000 1.096100
N327 N 0.309100 0.304000 0.925800
C328 C 0.438600 0.576000 1.215100
C329 C 0.475500 0.720000 1.279600
C330 C 0.464800 0.685000 1.360800
C331 C 0.418900 0.507000 1.382600
C332 C 0.383200 0.364000 1.320100
C333 C 0.391100 0.398000 1.236100
C334 C 0.362800 0.236000 1.174800
C335 C 0.345300 0.072000 1.044900
C336 C 0.262400 0.121000 0.955600
C337 C 0.217400 0.388000 0.850500
C338 C 0.201500 0.266000 0.770900
H339 H 0.370000 0.250000 0.896000
H340 H 0.521000 0.851000 1.264000
H341 H 0.119000 0.291000 0.636000
H342 H 0.494000 0.818000 1.410000
H343 H 0.395000 0.498000 1.437000
H344 H 0.331000 0.249000 1.336000
H345 H 0.342000 0.084000 1.202000
H346 H 0.435000 0.007000 1.039000
H347 H 0.322000 -0.062000 1.072000
H348 H 0.255000 0.031000 0.900000
H349 H 0.180000 0.157000 0.971000
H350 H 0.227000 0.536000 0.832000
H351 H 0.135000 0.406000 0.868000
H352 H 0.282000 0.294000 0.759000
V353 V 0.629200 0.484300 0.973000
O354 O 0.542500 0.386900 0.861600
O355 O 0.874100 0.624000 1.301400
O356 O 0.766100 0.402000 0.980000
O357 O 0.567100 0.347300 1.036100
N358 N 0.640200 0.748000 0.903900
N359 N 0.690900 0.696000 1.074200
C360 C 0.561400 0.424000 0.784900
C361 C 0.524500 0.280000 0.720400
C362 C 0.535200 0.315000 0.639200
C363 C 0.581100 0.493000 0.617400
C364 C 0.616800 0.636000 0.679900
C365 C 0.608900 0.602000 0.763900
C366 C 0.637200 0.764000 0.825200
C367 C 0.654700 0.928000 0.955100
C368 C 0.737600 0.879000 1.044400
C369 C 0.782600 0.612000 1.149500
C370 C 0.798500 0.734000 1.229100
H371 H 0.630000 0.750000 1.104000
H372 H 0.479000 0.149000 0.736000
H373 H 0.881000 0.709000 1.364000
H374 H 0.506000 0.182000 0.590000
H375 H 0.605000 0.502000 0.563000
H376 H 0.669000 0.751000 0.664000
H377 H 0.658000 0.916000 0.798000
H378 H 0.565000 0.993000 0.961000
H379 H 0.678000 1.062000 0.928000
H380 H 0.745000 0.969000 1.100000
H381 H 0.820000 0.843000 1.029000
H382 H 0.773000 0.464000 1.168000
H383 H 0.865000 0.594000 1.132000
H384 H 0.718000 0.706000 1.241000
H385 H 0.302000 0.211000 0.763000
H386 H 0.198000 0.711000 0.737000
H387 H 0.698000 0.789000 0.237000
H388 H 0.802000 0.289000 0.263000

#END
