
#######################################################################
#
#                 Cambridge Crystallographic Data Centre
#                                CCDC 
#
#######################################################################
#
# If this CIF has been generated from an entry in the Cambridge 
# Structural Database, then it will include bibliographic, chemical, 
# crystal, experimental, refinement or atomic coordinate data resulting 
# from the CCDC's data processing and validation procedures.
#
#######################################################################

data_KACSAJ
_symmetry_cell_setting           monoclinic
_symmetry_space_group_name_H-M   'P 21/c'
_symmetry_Int_Tables_number      14
_space_group_name_Hall           '-P 2ybc'
loop_
_symmetry_equiv_pos_site_id
_symmetry_equiv_pos_as_xyz
1 x,y,z
2 x,1/2-y,1/2+z
3 -x,-y,-z
4 -x,1/2+y,1/2-z
_cell_length_a                   14.185(7)
_cell_length_b                   4.105(4)
_cell_length_c                   15.598(13)
_cell_angle_alpha                90
_cell_angle_beta                 98.59(6)
_cell_angle_gamma                90
_cell_volume                     898.074
loop_
_atom_site_label
_atom_site_type_symbol
_atom_site_fract_x
_atom_site_fract_y
_atom_site_fract_z
O1 O 0.69768(13) 0.0038(5) 0.31981(12)
O2 O 0.57814(11) 0.1025(4) 0.21785(10)
O3 O 0.44897(12) 0.1698(5) 0.11296(11)
H1 H 0.4106 0.2453 0.1420
O4 O 0.91863(12) 0.7115(5) 0.04701(11)
C1 C 0.67079(18) 0.1289(7) 0.24926(16)
C2 C 0.53813(18) 0.2973(7) 0.14120(15)
H2 H 0.5347(15) 0.536(6) 0.1666(14)
C3 C 0.60102(15) 0.2635(7) 0.07277(15)
H3 H 0.5993 0.0404 0.0521
H4 H 0.5781 0.4040 0.0241
C4 C 0.70107(16) 0.3541(6) 0.10899(15)
C5 C 0.76158(17) 0.4927(7) 0.05699(16)
H5 H 0.7398 0.5324 -0.0013
C6 C 0.85407(18) 0.5717(7) 0.09160(16)
C7 C 0.88747(18) 0.5044(8) 0.17885(17)
H6 H 0.9501 0.5536 0.2021
C8 C 0.82770(18) 0.3660(7) 0.22986(16)
H7 H 0.8499 0.3223 0.2879
C9 C 0.73383(17) 0.2901(6) 0.19551(15)
C10 C 0.8884(2) 0.7870(8) -0.04187(18)
H8 H 0.9403 0.8824 -0.0660
H9 H 0.8362 0.9383 -0.0466
H10 H 0.8681 0.5912 -0.0729
O1 O 0.69768(13) 0.4962(5) 0.81981(12)
O2 O 0.57814(11) 0.3975(4) 0.71785(10)
O3 O 0.44897(12) 0.3302(5) 0.61296(11)
H1 H 0.4106 0.2547 0.6420
O4 O 0.91863(12) -0.2115(5) 0.54701(11)
C1 C 0.67079(18) 0.3711(7) 0.74926(16)
C2 C 0.53813(18) 0.2027(7) 0.64120(15)
H2 H 0.5347(15) -0.036(6) 0.6666(14)
C3 C 0.60102(15) 0.2365(7) 0.57277(15)
H3 H 0.5993 0.4596 0.5521
H4 H 0.5781 0.0960 0.5241
C4 C 0.70107(16) 0.1459(6) 0.60899(15)
C5 C 0.76158(17) 0.0073(7) 0.55699(16)
H5 H 0.7398 -0.0324 0.4987
C6 C 0.85407(18) -0.0717(7) 0.59160(16)
C7 C 0.88747(18) -0.0044(8) 0.67885(17)
H6 H 0.9501 -0.0536 0.7021
C8 C 0.82770(18) 0.1340(7) 0.72986(16)
H7 H 0.8499 0.1777 0.7879
C9 C 0.73383(17) 0.2099(6) 0.69551(15)
C10 C 0.8884(2) -0.2870(8) 0.45813(18)
H8 H 0.9403 -0.3824 0.4340
H9 H 0.8362 -0.4383 0.4534
H10 H 0.8681 -0.0912 0.4271
O1 O 0.30232(13) 0.9962(5) 0.68019(12)
O2 O 0.42186(11) 0.8975(4) 0.78215(10)
O3 O 0.55103(12) 0.8302(5) 0.88704(11)
H1 H 0.5894 0.7547 0.8580
O4 O 0.08137(12) 0.2885(5) 0.95299(11)
C1 C 0.32921(18) 0.8711(7) 0.75074(16)
C2 C 0.46187(18) 0.7027(7) 0.85880(15)
H2 H 0.4653(15) 0.464(6) 0.8334(14)
C3 C 0.39898(15) 0.7365(7) 0.92723(15)
H3 H 0.4007 0.9596 0.9479
H4 H 0.4219 0.5960 0.9759
C4 C 0.29893(16) 0.6459(6) 0.89101(15)
C5 C 0.23842(17) 0.5073(7) 0.94301(16)
H5 H 0.2602 0.4676 1.0013
C6 C 0.14593(18) 0.4283(7) 0.90840(16)
C7 C 0.11253(18) 0.4956(8) 0.82115(17)
H6 H 0.0499 0.4464 0.7979
C8 C 0.17230(18) 0.6340(7) 0.77014(16)
H7 H 0.1501 0.6777 0.7121
C9 C 0.26617(17) 0.7099(6) 0.80449(15)
C10 C 0.1116(2) 0.2130(8) 1.04187(18)
H8 H 0.0597 0.1176 1.0660
H9 H 0.1638 0.0617 1.0466
H10 H 0.1319 0.4088 1.0729
O1 O 0.30232(13) 0.5038(5) 0.18019(12)
O2 O 0.42186(11) 0.6025(4) 0.28215(10)
O3 O 0.55103(12) 0.6698(5) 0.38704(11)
H1 H 0.5894 0.7453 0.3580
O4 O 0.08137(12) 1.2115(5) 0.45299(11)
C1 C 0.32921(18) 0.6289(7) 0.25074(16)
C2 C 0.46187(18) 0.7973(7) 0.35880(15)
H2 H 0.4653(15) 1.036(6) 0.3334(14)
C3 C 0.39898(15) 0.7635(7) 0.42723(15)
H3 H 0.4007 0.5404 0.4479
H4 H 0.4219 0.9040 0.4759
C4 C 0.29893(16) 0.8541(6) 0.39101(15)
C5 C 0.23842(17) 0.9927(7) 0.44301(16)
H5 H 0.2602 1.0324 0.5013
C6 C 0.14593(18) 1.0717(7) 0.40840(16)
C7 C 0.11253(18) 1.0044(8) 0.32115(17)
H6 H 0.0499 1.0536 0.2979
C8 C 0.17230(18) 0.8660(7) 0.27014(16)
H7 H 0.1501 0.8223 0.2121
C9 C 0.26617(17) 0.7901(6) 0.30449(15)
C10 C 0.1116(2) 1.2870(8) 0.54187(18)
H8 H 0.0597 1.3824 0.5660
H9 H 0.1638 1.4383 0.5466
H10 H 0.1319 1.0912 0.5729

#END
