./KACTAK_from_xyz.cif_generated_by_CrystalShift
_symmetry_cell_setting triclinic
_symmetry_space_group_name_H-M 'P 1'
loop_
_symmetry_equiv_pos_site_id
_symmetry_equiv_pos_as_xyz
1 x,y,z
_cell_length_a 5.934300
_cell_length_b 8.236700
_cell_length_c 10.987000
_cell_angle_alpha 88.290000
_cell_angle_beta 75.442000
_cell_angle_gamma 80.655000
_cell_volume 512.859674
loop_
_atom_site_label
_atom_site_type_symbol
_atom_site_fract_x
_atom_site_fract_y
_atom_site_fract_z
O1 O 0.148500 0.402700 0.601080
O2 O 0.606300 0.242900 0.515100
O3 O 0.547400 0.339700 0.328960
O4 O 0.854600 0.628200 0.389600
C5 C 0.337500 0.461700 0.636800
C6 C 0.562300 0.419100 0.530900
C7 C 0.533600 0.483800 0.401600
C8 C 0.666400 0.203300 0.384800
C9 C 0.928900 0.181100 0.332000
C10 C 0.561400 0.052300 0.369000
C11 C 0.717000 0.588400 0.336000
C12 C 0.719000 0.647400 0.207000
C13 C 0.552100 0.617700 0.145100
C14 C 0.556800 0.680400 0.025100
C15 C 0.726500 0.773600 -0.030800
C16 C 0.893300 0.802700 0.028500
C17 C 0.890100 0.739500 0.147300
C18 C 0.359500 0.385100 0.763500
C19 C 0.156400 0.391300 0.859800
C20 C 0.163300 0.325300 0.976500
C21 C 0.375600 0.252400 0.998300
C22 C 0.579300 0.245400 0.903600
C23 C 0.571800 0.312400 0.786900
C24 C 0.269900 0.648700 0.653400
C25 C 0.404200 0.735600 0.706400
C26 C 0.342600 0.903600 0.725500
C27 C 0.145000 0.987100 0.694500
C28 C 0.013500 0.902600 0.638700
C29 C 0.075200 0.733500 0.618300
H30 H 0.207000 0.310000 0.575000
H31 H 0.700000 0.461000 0.558000
H32 H 0.375000 0.549000 0.408000
H33 H 0.975000 0.275000 0.347000
H34 H 0.970000 0.155000 0.237000
H35 H 0.998000 0.084000 0.367000
H36 H 0.380000 0.074000 0.408000
H37 H 0.645000 -0.050000 0.415000
H38 H 0.585000 0.034000 0.276000
H39 H 0.426000 0.551000 0.182000
H40 H 0.436000 0.662000 -0.025000
H41 H 0.729000 0.825000 -0.118000
H42 H 1.014000 0.868000 -0.001000
H43 H 1.004000 0.756000 0.188000
H44 H 0.003000 0.438000 0.845000
H45 H 0.016000 0.334000 1.048000
H46 H 0.384000 0.213000 1.080000
H47 H 0.738000 0.194000 0.915000
H48 H 0.718000 0.299000 0.718000
H49 H 0.537000 0.676000 0.742000
H50 H 0.443000 0.962000 0.763000
H51 H 0.092000 1.112000 0.711000
H52 H -0.123000 0.963000 0.611000
H53 H -0.012000 0.669000 0.577000

#END
