./KACTAJ_from_xyz.cif_generated_by_CrystalShift
_symmetry_cell_setting triclinic
_symmetry_space_group_name_H-M 'P 1'
loop_
_symmetry_equiv_pos_site_id
_symmetry_equiv_pos_as_xyz
1 x,y,z
_cell_length_a 10.831000
_cell_length_b 12.201000
_cell_length_c 21.978000
_cell_angle_alpha 90.000000
_cell_angle_beta 90.000000
_cell_angle_gamma 90.000000
_cell_volume 2904.371403
loop_
_atom_site_label
_atom_site_type_symbol
_atom_site_fract_x
_atom_site_fract_y
_atom_site_fract_z
N1 N 0.242800 0.334000 0.660700
N2 N 0.319400 0.467800 0.573700
N3 N 0.541900 0.373100 0.573000
N4 N 0.464000 0.235900 0.665800
N5 N 0.068800 0.450900 0.680200
N6 N 0.117200 0.548900 0.570400
N7 N 0.471100 0.508600 0.499300
N8 N 0.287800 0.183000 0.724300
C9 C 0.213100 0.271500 0.706900
C10 C 0.108400 0.290900 0.743600
C11 C 0.068300 0.223400 0.792500
C12 C -0.034900 0.249800 0.825500
C13 C -0.098000 0.345600 0.811300
C14 C -0.064100 0.412200 0.763600
C15 C 0.039600 0.384500 0.728400
C16 C 0.168800 0.418000 0.648900
C17 C 0.200100 0.484200 0.594500
C18 C 0.151300 0.604000 0.517500
C19 C 0.065100 0.671700 0.489000
C20 C 0.098100 0.725700 0.437800
C21 C 0.215300 0.714700 0.409600
C22 C 0.298500 0.647900 0.437300
C23 C 0.269500 0.591100 0.491700
C24 C 0.351100 0.519800 0.525000
C25 C 0.551300 0.443400 0.523900
C26 C 0.680300 0.432500 0.494800
C27 C 0.756000 0.386700 0.551100
C28 C 0.655900 0.329500 0.586800
C29 C 0.675500 0.248900 0.628600
C30 C 0.583700 0.204600 0.664200
C31 C 0.608400 0.113500 0.711000
C32 C 0.480300 0.073100 0.724000
C33 C 0.400400 0.169500 0.705300
C34 C 0.727800 0.539800 0.469400
C35 C 0.669900 0.347900 0.444000
C36 C 0.801800 0.483800 0.591100
C37 C 0.864200 0.315100 0.533300
C38 C 0.709600 0.036500 0.699600
C39 C 0.637200 0.170800 0.776200
C40 C 0.457500 -0.021200 0.672700
C41 C 0.440000 0.018400 0.783000
H42 H 0.119600 0.149700 0.803600
H43 H -0.065900 0.196400 0.862000
H44 H -0.176200 0.369300 0.839500
H45 H -0.117300 0.486100 0.752800
H46 H -0.026400 0.681800 0.508700
H47 H 0.029300 0.779700 0.416600
H48 H 0.236800 0.757600 0.367700
H49 H 0.389700 0.637600 0.417300
H50 H 0.767900 0.218100 0.633700
H51 H 0.817900 0.527700 0.448900
H52 H 0.663000 0.570200 0.435600
H53 H 0.735500 0.599900 0.506300
H54 H 0.605800 0.379600 0.410100
H55 H 0.760700 0.337200 0.423400
H56 H 0.636900 0.271700 0.462300
H57 H 0.844400 0.450100 0.632300
H58 H 0.867100 0.531800 0.566100
H59 H 0.722400 0.533700 0.604400
H60 H 0.931200 0.364800 0.507900
H61 H 0.908500 0.283100 0.574100
H62 H 0.833300 0.247900 0.504900
H63 H 0.797300 0.081100 0.696900
H64 H 0.715500 -0.025500 0.734800
H65 H 0.691700 -0.002700 0.655500
H66 H 0.640600 0.108200 0.811400
H67 H 0.722400 0.214800 0.773500
H68 H 0.560100 0.226900 0.785400
H69 H 0.509800 -0.093600 0.682100
H70 H 0.357600 -0.042300 0.671400
H71 H 0.484100 0.018600 0.630800
H72 H 0.342400 -0.003100 0.781300
H73 H 0.494600 -0.054500 0.792000
H74 H 0.456800 0.081400 0.817300
N75 N 0.742800 0.166000 0.339300
N76 N 0.819400 0.032200 0.426300
N77 N 1.041900 0.126900 0.427000
N78 N 0.964000 0.264100 0.334200
N79 N 0.568800 0.049100 0.319800
N80 N 0.617200 -0.048900 0.429600
N81 N 0.971100 -0.008600 0.500700
N82 N 0.787800 0.317000 0.275700
C83 C 0.713100 0.228500 0.293100
C84 C 0.608400 0.209100 0.256400
C85 C 0.568300 0.276600 0.207500
C86 C 0.465100 0.250200 0.174500
C87 C 0.402000 0.154400 0.188700
C88 C 0.435900 0.087800 0.236400
C89 C 0.539600 0.115500 0.271600
C90 C 0.668800 0.082000 0.351100
C91 C 0.700100 0.015800 0.405500
C92 C 0.651300 -0.104000 0.482500
C93 C 0.565100 -0.171700 0.511000
C94 C 0.598100 -0.225700 0.562200
C95 C 0.715300 -0.214700 0.590400
C96 C 0.798500 -0.147900 0.562700
C97 C 0.769500 -0.091100 0.508300
C98 C 0.851100 -0.019800 0.475000
C99 C 1.051300 0.056600 0.476100
C100 C 1.180300 0.067500 0.505200
C101 C 1.256000 0.113300 0.448900
C102 C 1.155900 0.170500 0.413200
C103 C 1.175500 0.251100 0.371400
C104 C 1.083700 0.295400 0.335800
C105 C 1.108400 0.386500 0.289000
C106 C 0.980300 0.426900 0.276000
C107 C 0.900400 0.330500 0.294700
C108 C 1.227800 -0.039800 0.530600
C109 C 1.169900 0.152100 0.556000
C110 C 1.301800 0.016200 0.408900
C111 C 1.364200 0.184900 0.466700
C112 C 1.209600 0.463500 0.300400
C113 C 1.137200 0.329200 0.223800
C114 C 0.957500 0.521200 0.327300
C115 C 0.940000 0.481600 0.217000
H116 H 0.619600 0.350300 0.196400
H117 H 0.434100 0.303600 0.138000
H118 H 0.323800 0.130700 0.160500
H119 H 0.382700 0.013900 0.247200
H120 H 0.473600 -0.181800 0.491300
H121 H 0.529300 -0.279700 0.583400
H122 H 0.736800 -0.257600 0.632300
H123 H 0.889700 -0.137600 0.582700
H124 H 1.267900 0.281900 0.366300
H125 H 1.317900 -0.027700 0.551100
H126 H 1.163000 -0.070200 0.564400
H127 H 1.235500 -0.099900 0.493700
H128 H 1.105800 0.120400 0.589900
H129 H 1.260700 0.162800 0.576600
H130 H 1.136900 0.228300 0.537700
H131 H 1.344400 0.049900 0.367700
H132 H 1.367100 -0.031800 0.433900
H133 H 1.222400 -0.033700 0.395600
H134 H 1.431200 0.135200 0.492100
H135 H 1.408500 0.216900 0.425900
H136 H 1.333300 0.252100 0.495100
H137 H 1.297300 0.418900 0.303100
H138 H 1.215500 0.525500 0.265200
H139 H 1.191700 0.502700 0.344500
H140 H 1.140600 0.391800 0.188600
H141 H 1.222400 0.285200 0.226500
H142 H 1.060100 0.273100 0.214600
H143 H 1.009800 0.593600 0.317900
H144 H 0.857600 0.542300 0.328600
H145 H 0.984100 0.481400 0.369200
H146 H 0.842400 0.503100 0.218700
H147 H 0.994600 0.554500 0.208000
H148 H 0.956800 0.418600 0.182700
N149 N 0.757200 0.834000 0.839300
N150 N 0.680600 0.967800 0.926300
N151 N 0.458100 0.873100 0.927000
N152 N 0.536000 0.735900 0.834200
N153 N 0.931200 0.950900 0.819800
N154 N 0.882800 1.048900 0.929600
N155 N 0.528900 1.008600 1.000700
N156 N 0.712200 0.683000 0.775700
C157 C 0.786900 0.771500 0.793100
C158 C 0.891600 0.790900 0.756400
C159 C 0.931700 0.723400 0.707500
C160 C 1.034900 0.749800 0.674500
C161 C 1.098000 0.845600 0.688700
C162 C 1.064100 0.912200 0.736400
C163 C 0.960400 0.884500 0.771600
C164 C 0.831200 0.918000 0.851100
C165 C 0.799900 0.984200 0.905500
C166 C 0.848700 1.104000 0.982500
C167 C 0.934900 1.171700 1.011000
C168 C 0.901900 1.225700 1.062200
C169 C 0.784700 1.214700 1.090400
C170 C 0.701500 1.147900 1.062700
C171 C 0.730500 1.091100 1.008300
C172 C 0.648900 1.019800 0.975000
C173 C 0.448700 0.943400 0.976100
C174 C 0.319700 0.932500 1.005200
C175 C 0.244000 0.886700 0.948900
C176 C 0.344100 0.829500 0.913200
C177 C 0.324500 0.748900 0.871400
C178 C 0.416300 0.704600 0.835800
C179 C 0.391600 0.613500 0.789000
C180 C 0.519700 0.573100 0.776000
C181 C 0.599600 0.669500 0.794700
C182 C 0.272200 1.039800 1.030600
C183 C 0.330100 0.847900 1.056000
C184 C 0.198200 0.983800 0.908900
C185 C 0.135800 0.815100 0.966700
C186 C 0.290400 0.536500 0.800400
C187 C 0.362800 0.670800 0.723800
C188 C 0.542500 0.478800 0.827300
C189 C 0.560000 0.518400 0.717000
H190 H 0.880400 0.649700 0.696400
H191 H 1.065900 0.696400 0.638000
H192 H 1.176200 0.869300 0.660500
H193 H 1.117300 0.986100 0.747200
H194 H 1.026400 1.181800 0.991300
H195 H 0.970700 1.279700 1.083400
H196 H 0.763200 1.257600 1.132300
H197 H 0.610300 1.137600 1.082700
H198 H 0.232100 0.718100 0.866300
H199 H 0.182100 1.027700 1.051100
H200 H 0.337000 1.070200 1.064400
H201 H 0.264500 1.099900 0.993700
H202 H 0.394200 0.879600 1.089900
H203 H 0.239300 0.837200 1.076600
H204 H 0.363100 0.771700 1.037700
H205 H 0.155600 0.950100 0.867700
H206 H 0.132900 1.031800 0.933900
H207 H 0.277600 1.033700 0.895600
H208 H 0.068800 0.864800 0.992100
H209 H 0.091500 0.783100 0.925900
H210 H 0.166700 0.747900 0.995100
H211 H 0.202700 0.581100 0.803100
H212 H 0.284500 0.474500 0.765200
H213 H 0.308300 0.497300 0.844500
H214 H 0.359400 0.608200 0.688600
H215 H 0.277600 0.714800 0.726500
H216 H 0.439900 0.726900 0.714600
H217 H 0.490200 0.406400 0.817900
H218 H 0.642400 0.457700 0.828600
H219 H 0.515900 0.518600 0.869200
H220 H 0.657600 0.496900 0.718700
H221 H 0.505400 0.445500 0.708000
H222 H 0.543200 0.581400 0.682700
N223 N 0.257200 0.666000 0.160700
N224 N 0.180600 0.532200 0.073700
N225 N -0.041900 0.626900 0.073000
N226 N 0.036000 0.764100 0.165800
N227 N 0.431200 0.549100 0.180200
N228 N 0.382800 0.451100 0.070400
N229 N 0.028900 0.491400 -0.000700
N230 N 0.212200 0.817000 0.224300
C231 C 0.286900 0.728500 0.206900
C232 C 0.391600 0.709100 0.243600
C233 C 0.431700 0.776600 0.292500
C234 C 0.534900 0.750200 0.325500
C235 C 0.598000 0.654400 0.311300
C236 C 0.564100 0.587800 0.263600
C237 C 0.460400 0.615500 0.228400
C238 C 0.331200 0.582000 0.148900
C239 C 0.299900 0.515800 0.094500
C240 C 0.348700 0.396000 0.017500
C241 C 0.434900 0.328300 -0.011000
C242 C 0.401900 0.274300 -0.062200
C243 C 0.284700 0.285300 -0.090400
C244 C 0.201500 0.352100 -0.062700
C245 C 0.230500 0.408900 -0.008300
C246 C 0.148900 0.480200 0.025000
C247 C -0.051300 0.556600 0.023900
C248 C -0.180300 0.567500 -0.005200
C249 C -0.256000 0.613300 0.051100
C250 C -0.155900 0.670500 0.086800
C251 C -0.175500 0.751100 0.128600
C252 C -0.083700 0.795400 0.164200
C253 C -0.108400 0.886500 0.211000
C254 C 0.019700 0.926900 0.224000
C255 C 0.099600 0.830500 0.205300
C256 C -0.227800 0.460200 -0.030600
C257 C -0.169900 0.652100 -0.056000
C258 C -0.301800 0.516200 0.091100
C259 C -0.364200 0.684900 0.033300
C260 C -0.209600 0.963500 0.199600
C261 C -0.137200 0.829200 0.276200
C262 C 0.042500 1.021200 0.172700
C263 C 0.060000 0.981600 0.283000
H264 H 0.380400 0.850300 0.303600
H265 H 0.565900 0.803600 0.362000
H266 H 0.676200 0.630700 0.339500
H267 H 0.617300 0.513900 0.252800
H268 H 0.526400 0.318200 0.008700
H269 H 0.470700 0.220300 -0.083400
H270 H 0.263200 0.242400 -0.132300
H271 H 0.110300 0.362400 -0.082700
H272 H -0.267900 0.781900 0.133700
H273 H -0.317900 0.472300 -0.051100
H274 H -0.163000 0.429800 -0.064400
H275 H -0.235500 0.400100 0.006300
H276 H -0.105800 0.620400 -0.089900
H277 H -0.260700 0.662800 -0.076600
H278 H -0.136900 0.728300 -0.037700
H279 H -0.344400 0.549900 0.132300
H280 H -0.367100 0.468200 0.066100
H281 H -0.222400 0.466300 0.104400
H282 H -0.431200 0.635200 0.007900
H283 H -0.408500 0.716900 0.074100
H284 H -0.333300 0.752100 0.004900
H285 H -0.297300 0.918900 0.196900
H286 H -0.215500 1.025500 0.234800
H287 H -0.191700 1.002700 0.155500
H288 H -0.140600 0.891800 0.311400
H289 H -0.222400 0.785200 0.273500
H290 H -0.060100 0.773100 0.285400
H291 H -0.009800 1.093600 0.182100
H292 H 0.142400 1.042300 0.171400
H293 H 0.015900 0.981400 0.130800
H294 H 0.157600 1.003100 0.281300
H295 H 0.005400 1.054500 0.292000
H296 H 0.043200 0.918600 0.317300

#END
