./ABEKUN_from_xyz.cif_generated_by_CrystalShift
_symmetry_cell_setting triclinic
_symmetry_space_group_name_H-M 'P 1'
loop_
_symmetry_equiv_pos_site_id
_symmetry_equiv_pos_as_xyz
1 x,y,z
_cell_length_a 8.070000
_cell_length_b 9.832000
_cell_length_c 10.876000
_cell_angle_alpha 73.119000
_cell_angle_beta 72.563000
_cell_angle_gamma 66.184000
_cell_volume 738.867572
loop_
_atom_site_label
_atom_site_type_symbol
_atom_site_fract_x
_atom_site_fract_y
_atom_site_fract_z
O1 O 0.991400 0.342900 0.305100
O2 O 0.404200 0.270100 0.432400
C3 C 0.836900 0.346400 0.276900
C4 C 0.697100 0.307300 0.373400
C5 C 0.541700 0.310200 0.340900
C6 C 0.524300 0.354500 0.209800
C7 C 0.663700 0.393800 0.114500
C8 C 0.819800 0.390900 0.145600
H9 H 0.984900 0.316400 0.386600
H10 H 0.435300 0.235600 0.505600
H11 H 0.707900 0.278200 0.462800
H12 H 0.418200 0.357600 0.186500
H13 H 0.652300 0.423500 0.025300
H14 H 0.913900 0.418700 0.078600
O15 O 0.008600 0.657100 0.694900
O16 O 0.595800 0.729900 0.567600
C17 C 0.163100 0.653600 0.723100
C18 C 0.302900 0.692700 0.626600
C19 C 0.458300 0.689800 0.659100
C20 C 0.475700 0.645500 0.790200
C21 C 0.336300 0.606200 0.885500
C22 C 0.180200 0.609100 0.854400
H23 H 0.015100 0.683600 0.613400
H24 H 0.564700 0.764400 0.494400
H25 H 0.292100 0.721800 0.537200
H26 H 0.581800 0.642400 0.813500
H27 H 0.347700 0.576500 0.974700
H28 H 0.086100 0.581300 0.921400
N29 N -0.015200 0.253400 0.568700
N30 N 0.477500 -0.151200 1.333700
C31 C -0.049700 0.353800 0.642200
C32 C 0.002600 0.313500 0.761300
C33 C 0.094500 0.162200 0.810700
C34 C 0.125200 0.056500 0.736600
C35 C 0.069900 0.107300 0.617800
C36 C 0.160200 0.121300 0.933200
C37 C 0.250700 -0.017100 0.989900
C38 C 0.325100 -0.059000 1.108900
C39 C 0.306200 0.045200 1.180700
C40 C 0.383500 -0.004900 1.290500
C41 C 0.494600 -0.250600 1.264800
C42 C 0.422300 -0.210300 1.154100
H43 H -0.114900 0.459600 0.607100
H44 H -0.022000 0.390800 0.810500
H45 H 0.183100 -0.053100 0.767700
H46 H 0.092400 0.035100 0.562900
H47 H 0.135400 0.201600 0.975500
H48 H 0.269600 -0.097600 0.949800
H49 H 0.242800 0.151800 1.154800
H50 H 0.375200 0.064000 1.339000
H51 H 0.558800 -0.352600 1.297700
H52 H 0.442500 -0.286100 1.104800
N53 N 1.015200 0.746600 0.431300
N54 N 0.522500 1.151200 -0.333700
C55 C 1.049700 0.646200 0.357800
C56 C 0.997400 0.686500 0.238700
C57 C 0.905500 0.837800 0.189300
C58 C 0.874800 0.943500 0.263400
C59 C 0.930100 0.892700 0.382200
C60 C 0.839800 0.878700 0.066800
C61 C 0.749300 1.017100 0.010100
C62 C 0.674900 1.059000 -0.108900
C63 C 0.693800 0.954800 -0.180700
C64 C 0.616500 1.004900 -0.290500
C65 C 0.505400 1.250600 -0.264800
C66 C 0.577700 1.210300 -0.154100
H67 H 1.114900 0.540400 0.392900
H68 H 1.022000 0.609200 0.189500
H69 H 0.816900 1.053100 0.232300
H70 H 0.907600 0.964900 0.437100
H71 H 0.864600 0.798400 0.024500
H72 H 0.730400 1.097600 0.050200
H73 H 0.757200 0.848200 -0.154800
H74 H 0.624800 0.936000 -0.339000
H75 H 0.441200 1.352600 -0.297700
H76 H 0.557500 1.286100 -0.104800

#END
