./ABEKEZ_from_xyz.cif_generated_by_CrystalShift
_symmetry_cell_setting triclinic
_symmetry_space_group_name_H-M 'P 1'
loop_
_symmetry_equiv_pos_site_id
_symmetry_equiv_pos_as_xyz
1 x,y,z
_cell_length_a 10.561500
_cell_length_b 8.372700
_cell_length_c 11.853700
_cell_angle_alpha 90.000000
_cell_angle_beta 108.972000
_cell_angle_gamma 90.000000
_cell_volume 991.261287
loop_
_atom_site_label
_atom_site_type_symbol
_atom_site_fract_x
_atom_site_fract_y
_atom_site_fract_z
O1 O 0.040900 -0.077100 0.329300
O2 O 0.476000 0.208000 0.274400
O3 O 0.333700 0.284800 0.096350
O4 O 0.670300 0.143700 0.172800
H5 H 0.653800 0.090100 0.224300
O6 O 0.157700 0.088200 -0.143370
O7 O 0.228600 -0.049800 0.026380
C8 C 0.134400 0.113300 0.237600
H9 H 0.184500 0.157000 0.310600
C10 C 0.055400 -0.027300 0.237800
C11 C 0.002600 -0.113300 0.122700
H12 H -0.071700 -0.180400 0.124200
H13 H 0.072000 -0.182100 0.112700
C14 C -0.043900 -0.001100 0.018300
H15 H -0.126600 0.048400 0.019200
H16 H -0.064400 -0.063600 -0.054400
C17 C 0.055900 0.133800 0.012900
C18 C 0.139200 0.183800 0.137900
C19 C 0.229500 0.326200 0.147800
H20 H 0.270100 0.356900 0.231600
C21 C 0.157300 0.466200 0.076000
H22 H 0.221800 0.548100 0.074600
H23 H 0.096400 0.511000 0.113600
C24 C 0.078800 0.417400 -0.051700
H25 H 0.140700 0.382300 -0.091600
H26 H 0.030600 0.509400 -0.094400
C27 C -0.021000 0.282700 -0.055200
C28 C 0.452200 0.234100 0.170900
C29 C 0.553700 0.223500 0.104000
H30 H 0.513600 0.165300 0.029100
C31 C 0.585600 0.390700 0.076600
C32 C 0.666100 0.486800 0.165300
H33 H 0.705800 0.446200 0.241700
C34 C 0.687600 0.643300 0.140700
H35 H 0.740600 0.708100 0.201500
C36 C 0.633300 0.704600 0.029500
H37 H 0.649900 0.810000 0.013800
C38 C 0.553100 0.609000 -0.060000
H39 H 0.515400 0.649300 -0.136800
C40 C 0.529100 0.453800 -0.035300
H41 H 0.473600 0.390300 -0.095600
C42 C 0.151500 0.059600 -0.047000
C43 C 0.320000 -0.136300 -0.020500
H44 H 0.270100 -0.208000 -0.082100
H45 H 0.382200 -0.196100 0.042600
H46 H 0.368200 -0.061900 -0.052900
C47 C -0.099700 0.245600 -0.187200
H48 H -0.159400 0.332400 -0.221000
H49 H -0.150400 0.149300 -0.191900
H50 H -0.038100 0.232100 -0.230800
C51 C -0.122900 0.341200 0.003900
H52 H -0.081100 0.344200 0.088900
H53 H -0.197900 0.269500 -0.015700
H54 H -0.153300 0.446400 -0.024600
O55 O 0.540900 1.077100 0.829300
O56 O 0.976000 0.792000 0.774400
O57 O 0.833700 0.715200 0.596350
O58 O 1.170300 0.856300 0.672800
H59 H 1.153800 0.909900 0.724300
O60 O 0.657700 0.911800 0.356630
O61 O 0.728600 1.049800 0.526380
C62 C 0.634400 0.886700 0.737600
H63 H 0.684500 0.843000 0.810600
C64 C 0.555400 1.027300 0.737800
C65 C 0.502600 1.113300 0.622700
H66 H 0.428300 1.180400 0.624200
H67 H 0.572000 1.182100 0.612700
C68 C 0.456100 1.001100 0.518300
H69 H 0.373400 0.951600 0.519200
H70 H 0.435600 1.063600 0.445600
C71 C 0.555900 0.866200 0.512900
C72 C 0.639200 0.816200 0.637900
C73 C 0.729500 0.673800 0.647800
H74 H 0.770100 0.643100 0.731600
C75 C 0.657300 0.533800 0.576000
H76 H 0.721800 0.451900 0.574600
H77 H 0.596400 0.489000 0.613600
C78 C 0.578800 0.582600 0.448300
H79 H 0.640700 0.617700 0.408400
H80 H 0.530600 0.490600 0.405600
C81 C 0.479000 0.717300 0.444800
C82 C 0.952200 0.765900 0.670900
C83 C 1.053700 0.776500 0.604000
H84 H 1.013600 0.834700 0.529100
C85 C 1.085600 0.609300 0.576600
C86 C 1.166100 0.513200 0.665300
H87 H 1.205800 0.553800 0.741700
C88 C 1.187600 0.356700 0.640700
H89 H 1.240600 0.291900 0.701500
C90 C 1.133300 0.295400 0.529500
H91 H 1.149900 0.190000 0.513800
C92 C 1.053100 0.391000 0.440000
H93 H 1.015400 0.350700 0.363200
C94 C 1.029100 0.546200 0.464700
H95 H 0.973600 0.609700 0.404400
C96 C 0.651500 0.940400 0.453000
C97 C 0.820000 1.136300 0.479500
H98 H 0.770100 1.208000 0.417900
H99 H 0.882200 1.196100 0.542600
H100 H 0.868200 1.061900 0.447100
C101 C 0.400300 0.754400 0.312800
H102 H 0.340600 0.667600 0.279000
H103 H 0.349600 0.850700 0.308100
H104 H 0.461900 0.767900 0.269200
C105 C 0.377100 0.658800 0.503900
H106 H 0.418900 0.655800 0.588900
H107 H 0.302100 0.730500 0.484300
H108 H 0.346700 0.553600 0.475400

#END
