
#######################################################################
#
#                 Cambridge Crystallographic Data Centre
#                                CCDC 
#
#######################################################################
#
# If this CIF has been generated from an entry in the Cambridge 
# Structural Database, then it will include bibliographic, chemical, 
# crystal, experimental, refinement or atomic coordinate data resulting 
# from the CCDC's data processing and validation procedures.
#
#######################################################################

data_ABELEA
_symmetry_cell_setting           triclinic
_symmetry_space_group_name_H-M   'P -1'
_symmetry_Int_Tables_number      2
_space_group_name_Hall           '-P 1'
loop_
_symmetry_equiv_pos_site_id
_symmetry_equiv_pos_as_xyz
1 x,y,z
2 -x,-y,-z
_cell_length_a                   8.0582(2)
_cell_length_b                   9.9181(3)
_cell_length_c                   9.9557(3)
_cell_angle_alpha                62.2103(15)
_cell_angle_beta                 85.9715(14)
_cell_angle_gamma                87.9363(12)
_cell_volume                     702.166
loop_
_atom_site_label
_atom_site_type_symbol
_atom_site_fract_x
_atom_site_fract_y
_atom_site_fract_z
N1 N 1.16420(13) 0.32468(12) 0.49906(11)
C1 C 1.07467(15) 0.19553(14) 0.56561(14)
C2 C 0.93130(16) 0.17766(14) 0.50525(14)
C3 C 0.87867(15) 0.29590(14) 0.36964(14)
C4 C 0.97270(15) 0.42915(14) 0.30023(14)
C5 C 1.11339(15) 0.43986(13) 0.36854(13)
C6 C 1.21833(15) 0.57958(14) 0.30007(13)
C7 C 1.38238(16) 0.57046(15) 0.34038(14)
C8 C 1.48190(17) 0.69979(16) 0.28101(15)
C9 C 1.41749(18) 0.84044(15) 0.18101(14)
C10 C 1.25553(18) 0.85043(14) 0.13805(14)
C11 C 1.15666(16) 0.72105(14) 0.19616(14)
C12 C 0.72747(15) 0.28122(13) 0.30037(14)
C13 C 0.58540(16) 0.20855(15) 0.39149(14)
C14 C 0.44374(16) 0.19637(15) 0.32664(15)
C15 C 0.44302(15) 0.25617(14) 0.16914(15)
C16 C 0.58487(16) 0.32661(14) 0.07675(14)
C17 C 0.72594(15) 0.33873(14) 0.14286(14)
C18 C 0.29424(17) 0.24823(15) 0.10084(16)
N2 N 0.17500(17) 0.24367(16) 0.04588(16)
C19 C 1.13939(17) 0.06978(15) 0.70888(15)
H1 H 0.8702 0.0836 0.5567
H2 H 0.9377 0.5136 0.2061
H3 H 1.4263 0.4741 0.4081
H4 H 1.5944 0.6919 0.3099
H5 H 1.4841 0.9308 0.1401
H6 H 1.2114 0.9464 0.0683
H7 H 1.0457 0.7310 0.1653
H8 H 0.5862 0.1682 0.4986
H9 H 0.3464 0.1488 0.3912
H10 H 0.5862 0.3657 -0.0308
H11 H 0.8233 0.3852 0.0789
H12 H 1.0627 -0.0156 0.7581
H13 H 1.1558 0.1078 0.7819
H14 H 1.2466 0.0315 0.6883
N1 N -0.16420(13) 0.67532(12) 0.50094(11)
C1 C -0.07467(15) 0.80447(14) 0.43439(14)
C2 C 0.06870(16) 0.82234(14) 0.49475(14)
C3 C 0.12133(15) 0.70410(14) 0.63036(14)
C4 C 0.02730(15) 0.57085(14) 0.69977(14)
C5 C -0.11339(15) 0.56014(13) 0.63146(13)
C6 C -0.21833(15) 0.42042(14) 0.69993(13)
C7 C -0.38238(16) 0.42954(15) 0.65962(14)
C8 C -0.48190(17) 0.30021(16) 0.71899(15)
C9 C -0.41749(18) 0.15956(15) 0.81899(14)
C10 C -0.25553(18) 0.14957(14) 0.86195(14)
C11 C -0.15666(16) 0.27895(14) 0.80384(14)
C12 C 0.27253(15) 0.71878(13) 0.69963(14)
C13 C 0.41460(16) 0.79145(15) 0.60851(14)
C14 C 0.55626(16) 0.80363(15) 0.67336(15)
C15 C 0.55698(15) 0.74383(14) 0.83086(15)
C16 C 0.41513(16) 0.67339(14) 0.92325(14)
C17 C 0.27406(15) 0.66127(14) 0.85714(14)
C18 C 0.70576(17) 0.75177(15) 0.89916(16)
N2 N 0.82500(17) 0.75633(16) 0.95412(16)
C19 C -0.13939(17) 0.93022(15) 0.29112(15)
H1 H 0.1298 0.9164 0.4433
H2 H 0.0623 0.4864 0.7939
H3 H -0.4263 0.5259 0.5919
H4 H -0.5944 0.3081 0.6901
H5 H -0.4841 0.0692 0.8599
H6 H -0.2114 0.0536 0.9317
H7 H -0.0457 0.2690 0.8347
H8 H 0.4138 0.8318 0.5014
H9 H 0.6536 0.8512 0.6088
H10 H 0.4138 0.6343 1.0308
H11 H 0.1767 0.6148 0.9211
H12 H -0.0627 1.0156 0.2419
H13 H -0.1558 0.8922 0.2181
H14 H -0.2466 0.9685 0.3117

#END
