./ABEMOL_from_xyz.cif_generated_by_CrystalShift
_symmetry_cell_setting triclinic
_symmetry_space_group_name_H-M 'P 1'
loop_
_symmetry_equiv_pos_site_id
_symmetry_equiv_pos_as_xyz
1 x,y,z
_cell_length_a 3.779100
_cell_length_b 12.616000
_cell_length_c 17.874000
_cell_angle_alpha 90.000000
_cell_angle_beta 95.028000
_cell_angle_gamma 90.000000
_cell_volume 848.901758
loop_
_atom_site_label
_atom_site_type_symbol
_atom_site_fract_x
_atom_site_fract_y
_atom_site_fract_z
O1 O 0.273900 -0.165140 0.027580
N2 N 0.536600 -0.427570 -0.315680
N3 N 0.033700 -0.023670 -0.033420
H4 H -0.023800 0.007600 -0.075500
C5 C 0.382800 -0.332340 -0.318000
H6 H 0.300200 -0.305400 -0.364700
C7 C 0.338300 -0.271090 -0.255350
H8 H 0.232900 -0.204600 -0.260400
C9 C 0.453300 -0.310420 -0.184690
C10 C 0.616000 -0.408840 -0.182360
H11 H 0.701700 -0.437900 -0.136500
C12 C 0.651100 -0.463740 -0.247770
H13 H 0.760800 -0.529800 -0.244400
C14 C 0.400400 -0.255540 -0.114020
H15 H 0.483700 -0.289900 -0.069900
C16 C 0.247500 -0.162790 -0.106520
H17 H 0.174000 -0.123900 -0.149300
C18 C 0.189800 -0.118880 -0.031930
O19 O -0.273900 0.165140 -0.027580
N20 N -0.536600 0.427570 0.315680
N21 N -0.033700 0.023670 0.033420
H22 H 0.023800 -0.007600 0.075500
C23 C -0.382800 0.332340 0.318000
H24 H -0.300200 0.305400 0.364700
C25 C -0.338300 0.271090 0.255350
H26 H -0.232900 0.204600 0.260400
C27 C -0.453300 0.310420 0.184690
C28 C -0.616000 0.408840 0.182360
H29 H -0.701700 0.437900 0.136500
C30 C -0.651100 0.463740 0.247770
H31 H -0.760800 0.529800 0.244400
C32 C -0.400400 0.255540 0.114020
H33 H -0.483700 0.289900 0.069900
C34 C -0.247500 0.162790 0.106520
H35 H -0.174000 0.123900 0.149300
C36 C -0.189800 0.118880 0.031930
O37 O 0.273900 -0.165140 1.027580
N38 N 0.536600 -0.427570 0.684320
N39 N 0.033700 -0.023670 0.966580
H40 H -0.023800 0.007600 0.924500
C41 C 0.382800 -0.332340 0.682000
H42 H 0.300200 -0.305400 0.635300
C43 C 0.338300 -0.271090 0.744650
H44 H 0.232900 -0.204600 0.739600
C45 C 0.453300 -0.310420 0.815310
C46 C 0.616000 -0.408840 0.817640
H47 H 0.701700 -0.437900 0.863500
C48 C 0.651100 -0.463740 0.752230
H49 H 0.760800 -0.529800 0.755600
C50 C 0.400400 -0.255540 0.885980
H51 H 0.483700 -0.289900 0.930100
C52 C 0.247500 -0.162790 0.893480
H53 H 0.174000 -0.123900 0.850700
C54 C 0.189800 -0.118880 0.968070
O55 O -0.273900 0.165140 0.972420
N56 N -0.536600 0.427570 1.315680
N57 N -0.033700 0.023670 1.033420
H58 H 0.023800 -0.007600 1.075500
C59 C -0.382800 0.332340 1.318000
H60 H -0.300200 0.305400 1.364700
C61 C -0.338300 0.271090 1.255350
H62 H -0.232900 0.204600 1.260400
C63 C -0.453300 0.310420 1.184690
C64 C -0.616000 0.408840 1.182360
H65 H -0.701700 0.437900 1.136500
C66 C -0.651100 0.463740 1.247770
H67 H -0.760800 0.529800 1.244400
C68 C -0.400400 0.255540 1.114020
H69 H -0.483700 0.289900 1.069900
C70 C -0.247500 0.162790 1.106520
H71 H -0.174000 0.123900 1.149300
C72 C -0.189800 0.118880 1.031930
O73 O 0.273900 0.834860 0.027580
N74 N 0.536600 0.572430 -0.315680
N75 N 0.033700 0.976330 -0.033420
H76 H -0.023800 1.007600 -0.075500
C77 C 0.382800 0.667660 -0.318000
H78 H 0.300200 0.694600 -0.364700
C79 C 0.338300 0.728910 -0.255350
H80 H 0.232900 0.795400 -0.260400
C81 C 0.453300 0.689580 -0.184690
C82 C 0.616000 0.591160 -0.182360
H83 H 0.701700 0.562100 -0.136500
C84 C 0.651100 0.536260 -0.247770
H85 H 0.760800 0.470200 -0.244400
C86 C 0.400400 0.744460 -0.114020
H87 H 0.483700 0.710100 -0.069900
C88 C 0.247500 0.837210 -0.106520
H89 H 0.174000 0.876100 -0.149300
C90 C 0.189800 0.881120 -0.031930
O91 O -0.273900 1.165140 -0.027580
N92 N -0.536600 1.427570 0.315680
N93 N -0.033700 1.023670 0.033420
H94 H 0.023800 0.992400 0.075500
C95 C -0.382800 1.332340 0.318000
H96 H -0.300200 1.305400 0.364700
C97 C -0.338300 1.271090 0.255350
H98 H -0.232900 1.204600 0.260400
C99 C -0.453300 1.310420 0.184690
C100 C -0.616000 1.408840 0.182360
H101 H -0.701700 1.437900 0.136500
C102 C -0.651100 1.463740 0.247770
H103 H -0.760800 1.529800 0.244400
C104 C -0.400400 1.255540 0.114020
H105 H -0.483700 1.289900 0.069900
C106 C -0.247500 1.162790 0.106520
H107 H -0.174000 1.123900 0.149300
C108 C -0.189800 1.118880 0.031930
O109 O 0.273900 0.834860 1.027580
N110 N 0.536600 0.572430 0.684320
N111 N 0.033700 0.976330 0.966580
H112 H -0.023800 1.007600 0.924500
C113 C 0.382800 0.667660 0.682000
H114 H 0.300200 0.694600 0.635300
C115 C 0.338300 0.728910 0.744650
H116 H 0.232900 0.795400 0.739600
C117 C 0.453300 0.689580 0.815310
C118 C 0.616000 0.591160 0.817640
H119 H 0.701700 0.562100 0.863500
C120 C 0.651100 0.536260 0.752230
H121 H 0.760800 0.470200 0.755600
C122 C 0.400400 0.744460 0.885980
H123 H 0.483700 0.710100 0.930100
C124 C 0.247500 0.837210 0.893480
H125 H 0.174000 0.876100 0.850700
C126 C 0.189800 0.881120 0.968070
O127 O -0.273900 1.165140 0.972420
N128 N -0.536600 1.427570 1.315680
N129 N -0.033700 1.023670 1.033420
H130 H 0.023800 0.992400 1.075500
C131 C -0.382800 1.332340 1.318000
H132 H -0.300200 1.305400 1.364700
C133 C -0.338300 1.271090 1.255350
H134 H -0.232900 1.204600 1.260400
C135 C -0.453300 1.310420 1.184690
C136 C -0.616000 1.408840 1.182360
H137 H -0.701700 1.437900 1.136500
C138 C -0.651100 1.463740 1.247770
H139 H -0.760800 1.529800 1.244400
C140 C -0.400400 1.255540 1.114020
H141 H -0.483700 1.289900 1.069900
C142 C -0.247500 1.162790 1.106520
H143 H -0.174000 1.123900 1.149300
C144 C -0.189800 1.118880 1.031930
O145 O 1.273900 -0.165140 0.027580
N146 N 1.536600 -0.427570 -0.315680
N147 N 1.033700 -0.023670 -0.033420
H148 H 0.976200 0.007600 -0.075500
C149 C 1.382800 -0.332340 -0.318000
H150 H 1.300200 -0.305400 -0.364700
C151 C 1.338300 -0.271090 -0.255350
H152 H 1.232900 -0.204600 -0.260400
C153 C 1.453300 -0.310420 -0.184690
C154 C 1.616000 -0.408840 -0.182360
H155 H 1.701700 -0.437900 -0.136500
C156 C 1.651100 -0.463740 -0.247770
H157 H 1.760800 -0.529800 -0.244400
C158 C 1.400400 -0.255540 -0.114020
H159 H 1.483700 -0.289900 -0.069900
C160 C 1.247500 -0.162790 -0.106520
H161 H 1.174000 -0.123900 -0.149300
C162 C 1.189800 -0.118880 -0.031930
O163 O 0.726100 0.165140 -0.027580
N164 N 0.463400 0.427570 0.315680
N165 N 0.966300 0.023670 0.033420
H166 H 1.023800 -0.007600 0.075500
C167 C 0.617200 0.332340 0.318000
H168 H 0.699800 0.305400 0.364700
C169 C 0.661700 0.271090 0.255350
H170 H 0.767100 0.204600 0.260400
C171 C 0.546700 0.310420 0.184690
C172 C 0.384000 0.408840 0.182360
H173 H 0.298300 0.437900 0.136500
C174 C 0.348900 0.463740 0.247770
H175 H 0.239200 0.529800 0.244400
C176 C 0.599600 0.255540 0.114020
H177 H 0.516300 0.289900 0.069900
C178 C 0.752500 0.162790 0.106520
H179 H 0.826000 0.123900 0.149300
C180 C 0.810200 0.118880 0.031930
O181 O 1.273900 -0.165140 1.027580
N182 N 1.536600 -0.427570 0.684320
N183 N 1.033700 -0.023670 0.966580
H184 H 0.976200 0.007600 0.924500
C185 C 1.382800 -0.332340 0.682000
H186 H 1.300200 -0.305400 0.635300
C187 C 1.338300 -0.271090 0.744650
H188 H 1.232900 -0.204600 0.739600
C189 C 1.453300 -0.310420 0.815310
C190 C 1.616000 -0.408840 0.817640
H191 H 1.701700 -0.437900 0.863500
C192 C 1.651100 -0.463740 0.752230
H193 H 1.760800 -0.529800 0.755600
C194 C 1.400400 -0.255540 0.885980
H195 H 1.483700 -0.289900 0.930100
C196 C 1.247500 -0.162790 0.893480
H197 H 1.174000 -0.123900 0.850700
C198 C 1.189800 -0.118880 0.968070
O199 O 0.726100 0.165140 0.972420
N200 N 0.463400 0.427570 1.315680
N201 N 0.966300 0.023670 1.033420
H202 H 1.023800 -0.007600 1.075500
C203 C 0.617200 0.332340 1.318000
H204 H 0.699800 0.305400 1.364700
C205 C 0.661700 0.271090 1.255350
H206 H 0.767100 0.204600 1.260400
C207 C 0.546700 0.310420 1.184690
C208 C 0.384000 0.408840 1.182360
H209 H 0.298300 0.437900 1.136500
C210 C 0.348900 0.463740 1.247770
H211 H 0.239200 0.529800 1.244400
C212 C 0.599600 0.255540 1.114020
H213 H 0.516300 0.289900 1.069900
C214 C 0.752500 0.162790 1.106520
H215 H 0.826000 0.123900 1.149300
C216 C 0.810200 0.118880 1.031930
O217 O 1.273900 0.834860 0.027580
N218 N 1.536600 0.572430 -0.315680
N219 N 1.033700 0.976330 -0.033420
H220 H 0.976200 1.007600 -0.075500
C221 C 1.382800 0.667660 -0.318000
H222 H 1.300200 0.694600 -0.364700
C223 C 1.338300 0.728910 -0.255350
H224 H 1.232900 0.795400 -0.260400
C225 C 1.453300 0.689580 -0.184690
C226 C 1.616000 0.591160 -0.182360
H227 H 1.701700 0.562100 -0.136500
C228 C 1.651100 0.536260 -0.247770
H229 H 1.760800 0.470200 -0.244400
C230 C 1.400400 0.744460 -0.114020
H231 H 1.483700 0.710100 -0.069900
C232 C 1.247500 0.837210 -0.106520
H233 H 1.174000 0.876100 -0.149300
C234 C 1.189800 0.881120 -0.031930
O235 O 0.726100 1.165140 -0.027580
N236 N 0.463400 1.427570 0.315680
N237 N 0.966300 1.023670 0.033420
H238 H 1.023800 0.992400 0.075500
C239 C 0.617200 1.332340 0.318000
H240 H 0.699800 1.305400 0.364700
C241 C 0.661700 1.271090 0.255350
H242 H 0.767100 1.204600 0.260400
C243 C 0.546700 1.310420 0.184690
C244 C 0.384000 1.408840 0.182360
H245 H 0.298300 1.437900 0.136500
C246 C 0.348900 1.463740 0.247770
H247 H 0.239200 1.529800 0.244400
C248 C 0.599600 1.255540 0.114020
H249 H 0.516300 1.289900 0.069900
C250 C 0.752500 1.162790 0.106520
H251 H 0.826000 1.123900 0.149300
C252 C 0.810200 1.118880 0.031930
O253 O 1.273900 0.834860 1.027580
N254 N 1.536600 0.572430 0.684320
N255 N 1.033700 0.976330 0.966580
H256 H 0.976200 1.007600 0.924500
C257 C 1.382800 0.667660 0.682000
H258 H 1.300200 0.694600 0.635300
C259 C 1.338300 0.728910 0.744650
H260 H 1.232900 0.795400 0.739600
C261 C 1.453300 0.689580 0.815310
C262 C 1.616000 0.591160 0.817640
H263 H 1.701700 0.562100 0.863500
C264 C 1.651100 0.536260 0.752230
H265 H 1.760800 0.470200 0.755600
C266 C 1.400400 0.744460 0.885980
H267 H 1.483700 0.710100 0.930100
C268 C 1.247500 0.837210 0.893480
H269 H 1.174000 0.876100 0.850700
C270 C 1.189800 0.881120 0.968070
O271 O 0.726100 1.165140 0.972420
N272 N 0.463400 1.427570 1.315680
N273 N 0.966300 1.023670 1.033420
H274 H 1.023800 0.992400 1.075500
C275 C 0.617200 1.332340 1.318000
H276 H 0.699800 1.305400 1.364700
C277 C 0.661700 1.271090 1.255350
H278 H 0.767100 1.204600 1.260400
C279 C 0.546700 1.310420 1.184690
C280 C 0.384000 1.408840 1.182360
H281 H 0.298300 1.437900 1.136500
C282 C 0.348900 1.463740 1.247770
H283 H 0.239200 1.529800 1.244400
C284 C 0.599600 1.255540 1.114020
H285 H 0.516300 1.289900 1.069900
C286 C 0.752500 1.162790 1.106520
H287 H 0.826000 1.123900 1.149300
C288 C 0.810200 1.118880 1.031930
O289 O 0.226100 0.334860 0.472420
N290 N -0.036600 0.072430 0.815680
N291 N 0.466300 0.476330 0.533420
H292 H 0.523800 0.507600 0.575500
C293 C 0.117200 0.167660 0.818000
H294 H 0.199800 0.194600 0.864700
C295 C 0.161700 0.228910 0.755350
H296 H 0.267100 0.295400 0.760400
C297 C 0.046700 0.189580 0.684690
C298 C -0.116000 0.091160 0.682360
H299 H -0.201700 0.062100 0.636500
C300 C -0.151100 0.036260 0.747770
H301 H -0.260800 -0.029800 0.744400
C302 C 0.099600 0.244460 0.614020
H303 H 0.016300 0.210100 0.569900
C304 C 0.252500 0.337210 0.606520
H305 H 0.326000 0.376100 0.649300
C306 C 0.310200 0.381120 0.531930
O307 O 0.773900 0.665140 0.527580
N308 N 1.036600 0.927570 0.184320
N309 N 0.533700 0.523670 0.466580
H310 H 0.476200 0.492400 0.424500
C311 C 0.882800 0.832340 0.182000
H312 H 0.800200 0.805400 0.135300
C313 C 0.838300 0.771090 0.244650
H314 H 0.732900 0.704600 0.239600
C315 C 0.953300 0.810420 0.315310
C316 C 1.116000 0.908840 0.317640
H317 H 1.201700 0.937900 0.363500
C318 C 1.151100 0.963740 0.252230
H319 H 1.260800 1.029800 0.255600
C320 C 0.900400 0.755540 0.385980
H321 H 0.983700 0.789900 0.430100
C322 C 0.747500 0.662790 0.393480
H323 H 0.674000 0.623900 0.350700
C324 C 0.689800 0.618880 0.468070

#END
