./ABEPOP_from_xyz.cif_generated_by_CrystalShift
_symmetry_cell_setting triclinic
_symmetry_space_group_name_H-M 'P 1'
loop_
_symmetry_equiv_pos_site_id
_symmetry_equiv_pos_as_xyz
1 x,y,z
_cell_length_a 12.735700
_cell_length_b 7.380900
_cell_length_c 18.679000
_cell_angle_alpha 90.000000
_cell_angle_beta 90.047000
_cell_angle_gamma 90.000000
_cell_volume 1755.842773
loop_
_atom_site_label
_atom_site_type_symbol
_atom_site_fract_x
_atom_site_fract_y
_atom_site_fract_z
N1 N -0.094300 0.528800 0.852800
H2 H -0.125100 0.601900 0.823700
N3 N 0.156000 0.103300 0.797500
N4 N 0.292000 0.246400 0.749000
C5 C -0.083600 0.269200 1.010600
H6 H -0.033600 0.198600 1.033800
C7 C 0.004100 0.464000 0.845500
H8 H 0.048600 0.489500 0.807400
C9 C 0.131100 0.263900 0.914900
H10 H 0.173900 0.339000 0.946000
H11 H 0.118200 0.150200 0.939400
C12 C -0.060100 0.353800 0.946000
C13 C -0.136600 0.460300 0.913200
C14 C 0.189000 0.228100 0.848300
C15 C 0.028300 0.357100 0.901400
C16 C -0.235900 0.480700 0.942200
H17 H -0.286600 0.551100 0.919500
C18 C 0.220400 0.118500 0.738800
C19 C 0.074200 -0.016900 0.799500
H20 H 0.030500 -0.023500 0.839300
C21 C -0.181400 0.291500 1.039400
H22 H -0.197700 0.236900 1.082800
C23 C 0.124700 -0.114600 0.683300
H24 H 0.112900 -0.192200 0.645000
C25 C 0.205600 0.005100 0.680200
C26 C 0.394500 0.422400 0.910900
H27 H 0.383100 0.315800 0.936300
C28 C 0.272600 0.312000 0.817200
C29 C -0.256700 0.394800 1.004400
H30 H -0.323300 0.405200 1.024400
C31 C 0.341400 0.450100 0.847800
C32 C 0.058500 -0.123500 0.743500
H33 H 0.003000 -0.205400 0.744000
C34 C 0.277600 0.016600 0.618200
H35 H 0.297900 0.140500 0.610800
H36 H 0.242700 -0.027900 0.576200
H37 H 0.339000 -0.055300 0.627400
C38 C 0.461800 0.543600 0.936700
H39 H 0.496500 0.522300 0.979700
C40 C 0.355400 0.613100 0.812800
H41 H 0.317000 0.638400 0.771700
C42 C 0.478700 0.696000 0.900100
H43 H 0.528500 0.777900 0.917000
C44 C 0.424800 0.736300 0.838300
H45 H 0.435700 0.845400 0.814500
N46 N 1.094300 1.028800 0.147200
H47 H 1.125100 1.101900 0.176300
N48 N 0.844000 0.603300 0.202500
N49 N 0.708000 0.746400 0.251000
C50 C 1.083600 0.769200 -0.010600
H51 H 1.033600 0.698600 -0.033800
C52 C 0.995900 0.964000 0.154500
H53 H 0.951400 0.989500 0.192600
C54 C 0.868900 0.763900 0.085100
H55 H 0.826100 0.839000 0.054000
H56 H 0.881800 0.650200 0.060600
C57 C 1.060100 0.853800 0.054000
C58 C 1.136600 0.960300 0.086800
C59 C 0.811000 0.728100 0.151700
C60 C 0.971700 0.857100 0.098600
C61 C 1.235900 0.980700 0.057800
H62 H 1.286600 1.051100 0.080500
C63 C 0.779600 0.618500 0.261200
C64 C 0.925800 0.483100 0.200500
H65 H 0.969500 0.476500 0.160700
C66 C 1.181400 0.791500 -0.039400
H67 H 1.197700 0.736900 -0.082800
C68 C 0.875300 0.385400 0.316700
H69 H 0.887100 0.307800 0.355000
C70 C 0.794400 0.505100 0.319800
C71 C 0.605500 0.922400 0.089100
H72 H 0.616900 0.815800 0.063700
C73 C 0.727400 0.812000 0.182800
C74 C 1.256700 0.894800 -0.004400
H75 H 1.323300 0.905200 -0.024400
C76 C 0.658600 0.950100 0.152200
C77 C 0.941500 0.376500 0.256500
H78 H 0.997000 0.294600 0.256000
C79 C 0.722400 0.516600 0.381800
H80 H 0.702100 0.640500 0.389200
H81 H 0.757300 0.472100 0.423800
H82 H 0.661000 0.444700 0.372600
C83 C 0.538200 1.043600 0.063300
H84 H 0.503500 1.022300 0.020300
C85 C 0.644600 1.113100 0.187200
H86 H 0.683000 1.138400 0.228300
C87 C 0.521300 1.196000 0.099900
H88 H 0.471500 1.277900 0.083000
C89 C 0.575200 1.236300 0.161700
H90 H 0.564300 1.345400 0.185500
N91 N 0.792200 0.753000 0.750700
N92 N 0.405200 0.470700 0.647000
H93 H 0.374200 0.398600 0.676300
N94 N 0.655600 0.894400 0.702400
C95 C 0.439600 0.646300 0.554100
C96 C 0.528700 0.642700 0.598600
C97 C 0.630300 0.735200 0.585200
H98 H 0.672800 0.660500 0.553800
H99 H 0.617200 0.849100 0.560900
C100 C 0.363100 0.537600 0.586500
C101 C 0.416000 0.730400 0.490000
H102 H 0.465800 0.801500 0.466900
C103 C 0.504700 0.535200 0.654400
H104 H 0.549500 0.508900 0.692400
C105 C 0.689200 0.770900 0.652000
C106 C 0.242500 0.603100 0.496400
H107 H 0.175800 0.591400 0.476500
C108 C 0.264400 0.519100 0.558700
H109 H 0.213700 0.450500 0.582100
C110 C 0.624800 1.113900 0.816600
H111 H 0.612600 1.191700 0.854900
C112 C 0.558500 1.121600 0.755600
H113 H 0.502800 1.203100 0.754700
C114 C 0.720100 0.879200 0.761100
C115 C 0.574500 1.015700 0.700300
H116 H 0.531300 1.022800 0.660200
C117 C 0.705600 0.995000 0.820000
C118 C 0.778800 0.982800 0.881400
H119 H 0.776800 0.862500 0.900800
H120 H 0.758200 1.068200 0.917500
H121 H 0.848700 1.009800 0.865600
C122 C 0.841200 0.548400 0.653100
C123 C 0.772600 0.688300 0.683100
C124 C 0.317900 0.707400 0.461100
H125 H 0.301500 0.761800 0.417600
C126 C 0.854500 0.385800 0.688400
H127 H 0.816000 0.359000 0.729400
C128 C 0.980900 0.299000 0.599000
H129 H 1.029600 0.216300 0.581700
C130 C 0.926900 0.263000 0.661300
H131 H 0.939100 0.154800 0.685500
C132 C 0.894900 0.576900 0.589300
H133 H 0.883400 0.683300 0.563800
C134 C 0.963500 0.453200 0.563400
H135 H 0.998700 0.475400 0.520600
N136 N 0.207800 0.253000 0.249300
N137 N 0.594800 -0.029300 0.353000
H138 H 0.625800 -0.101400 0.323700
N139 N 0.344400 0.394400 0.297600
C140 C 0.560400 0.146300 0.445900
C141 C 0.471300 0.142700 0.401400
C142 C 0.369700 0.235200 0.414800
H143 H 0.327200 0.160500 0.446200
H144 H 0.382800 0.349100 0.439100
C145 C 0.636900 0.037600 0.413500
C146 C 0.584000 0.230400 0.510000
H147 H 0.534200 0.301500 0.533100
C148 C 0.495300 0.035200 0.345600
H149 H 0.450500 0.008900 0.307600
C150 C 0.310800 0.270900 0.348000
C151 C 0.757500 0.103100 0.503600
H152 H 0.824200 0.091400 0.523500
C153 C 0.735600 0.019100 0.441300
H154 H 0.786300 -0.049500 0.417900
C155 C 0.375200 0.613900 0.183400
H156 H 0.387400 0.691700 0.145100
C157 C 0.441500 0.621600 0.244400
H158 H 0.497200 0.703100 0.245300
C159 C 0.279900 0.379200 0.238900
C160 C 0.425500 0.515700 0.299700
H161 H 0.468700 0.522800 0.339800
C162 C 0.294400 0.495000 0.180000
C163 C 0.221200 0.482800 0.118600
H164 H 0.223200 0.362500 0.099200
H165 H 0.241800 0.568200 0.082500
H166 H 0.151300 0.509800 0.134400
C167 C 0.158800 0.048400 0.346900
C168 C 0.227400 0.188300 0.316900
C169 C 0.682100 0.207400 0.538900
H170 H 0.698500 0.261800 0.582400
C171 C 0.145500 -0.114200 0.311600
H172 H 0.184000 -0.141000 0.270600
C173 C 0.019100 -0.201000 0.401000
H174 H -0.029600 -0.283700 0.418300
C175 C 0.073100 -0.237000 0.338700
H176 H 0.060900 -0.345200 0.314500
C177 C 0.105100 0.076900 0.410700
H178 H 0.116600 0.183300 0.436200
C179 C 0.036500 -0.046800 0.436600
H180 H 0.001300 -0.024600 0.479400

#END
