./ABEPUV_from_xyz.cif_generated_by_CrystalShift
_symmetry_cell_setting triclinic
_symmetry_space_group_name_H-M 'P 1'
loop_
_symmetry_equiv_pos_site_id
_symmetry_equiv_pos_as_xyz
1 x,y,z
_cell_length_a 9.450000
_cell_length_b 6.141000
_cell_length_c 13.667000
_cell_angle_alpha 90.000000
_cell_angle_beta 103.880000
_cell_angle_gamma 90.000000
_cell_volume 769.970310
loop_
_atom_site_label
_atom_site_type_symbol
_atom_site_fract_x
_atom_site_fract_y
_atom_site_fract_z
S1 S 1.002740 0.222830 0.226310
C2 C 0.775200 0.226600 0.063800
H3 H 0.785500 0.376500 0.044200
H4 H 0.704100 0.219700 0.104500
N5 N 0.915600 0.135000 0.117600
O6 O 1.142100 0.117600 0.246300
O7 O 0.993000 0.455900 0.222900
C8 C 0.733700 0.080300 -0.026500
O9 O 0.492700 0.111300 -0.282900
C10 C 0.819900 -0.091000 -0.014400
H11 H 0.811100 -0.202600 -0.061500
C12 C 0.933600 -0.087500 0.082900
H13 H 0.914300 -0.195600 0.129800
H14 H 1.030400 -0.110300 0.072400
C15 C 0.612200 0.132700 -0.111100
C16 C 0.584300 0.358700 -0.154800
H17 H 0.648300 0.479600 -0.125600
C18 C 0.541700 0.327900 -0.264900
H19 H 0.464700 0.428700 -0.295100
H20 H 0.624400 0.353800 -0.293800
C21 C 0.577200 -0.014600 -0.202600
H22 H 0.666100 -0.064300 -0.219100
H23 H 0.522500 -0.140800 -0.189800
C24 C 0.911000 0.135000 0.317400
C25 C 0.810700 0.272000 0.343700
H26 H 0.791500 0.408000 0.313400
C27 C 0.739100 0.205300 0.415500
H28 H 0.671500 0.297600 0.433500
C29 C 0.766500 0.001300 0.461500
C30 C 0.866900 -0.132700 0.432600
H31 H 0.885800 -0.269500 0.462000
C32 C 0.939800 -0.068300 0.361400
H33 H 1.007400 -0.160100 0.343200
C34 C 0.687000 -0.074500 0.537900
H35 H 0.672500 -0.229100 0.531900
H36 H 0.594200 -0.002800 0.526300
H37 H 0.743400 -0.040100 0.604300
C38 C 0.483500 0.261700 -0.098600
H39 H 0.387900 0.216700 -0.137100
H40 H 0.485700 0.319400 -0.032200
S41 S -0.002740 0.722830 0.773690
C42 C 0.224800 0.726600 0.936200
H43 H 0.214500 0.876500 0.955800
H44 H 0.295900 0.719700 0.895500
N45 N 0.084400 0.635000 0.882400
O46 O -0.142100 0.617600 0.753700
O47 O 0.007000 0.955900 0.777100
C48 C 0.266300 0.580300 1.026500
O49 O 0.507300 0.611300 1.282900
C50 C 0.180100 0.409000 1.014400
H51 H 0.188900 0.297400 1.061500
C52 C 0.066400 0.412500 0.917100
H53 H 0.085700 0.304400 0.870200
H54 H -0.030400 0.389700 0.927600
C55 C 0.387800 0.632700 1.111100
C56 C 0.415700 0.858700 1.154800
H57 H 0.351700 0.979600 1.125600
C58 C 0.458300 0.827900 1.264900
H59 H 0.535300 0.928700 1.295100
H60 H 0.375600 0.853800 1.293800
C61 C 0.422800 0.485400 1.202600
H62 H 0.333900 0.435700 1.219100
H63 H 0.477500 0.359200 1.189800
C64 C 0.089000 0.635000 0.682600
C65 C 0.189300 0.772000 0.656300
H66 H 0.208500 0.908000 0.686600
C67 C 0.260900 0.705300 0.584500
H68 H 0.328500 0.797600 0.566500
C69 C 0.233500 0.501300 0.538500
C70 C 0.133100 0.367300 0.567400
H71 H 0.114200 0.230500 0.538000
C72 C 0.060200 0.431700 0.638600
H73 H -0.007400 0.339900 0.656800
C74 C 0.313000 0.425500 0.462100
H75 H 0.327500 0.270900 0.468100
H76 H 0.405800 0.497200 0.473700
H77 H 0.256600 0.459900 0.395700
C78 C 0.516500 0.761700 1.098600
H79 H 0.612100 0.716700 1.137100
H80 H 0.514300 0.819400 1.032200

#END
