./ABEQUU_from_xyz.cif_generated_by_CrystalShift
_symmetry_cell_setting triclinic
_symmetry_space_group_name_H-M 'P 1'
loop_
_symmetry_equiv_pos_site_id
_symmetry_equiv_pos_as_xyz
1 x,y,z
_cell_length_a 4.951500
_cell_length_b 11.725000
_cell_length_c 14.931000
_cell_angle_alpha 78.000000
_cell_angle_beta 83.750000
_cell_angle_gamma 82.450000
_cell_volume 837.568100
loop_
_atom_site_label
_atom_site_type_symbol
_atom_site_fract_x
_atom_site_fract_y
_atom_site_fract_z
N1 N 0.219300 0.418800 0.631300
N2 N 0.212400 0.254500 0.360750
N3 N -0.368600 0.102850 0.630240
O4 O -0.124600 0.248690 0.728210
O5 O 0.083500 0.458300 0.691700
O6 O 0.452100 0.444200 0.605840
O7 O 0.418700 0.300700 0.329600
O8 O 0.086700 0.205300 0.316150
O9 O -0.508700 0.118600 0.699680
O10 O -0.394900 0.022400 0.592300
C11 C 0.115700 0.333500 0.589070
C12 C 0.211700 0.331800 0.499880
H13 H 0.341300 0.380600 0.470000
C14 C 0.111600 0.255900 0.454950
C15 C -0.078700 0.182700 0.498510
H16 H -0.147000 0.133700 0.466900
C17 C -0.167100 0.182600 0.589020
C18 C -0.070200 0.255200 0.644150
N19 N 0.780700 0.581200 0.368700
N20 N 0.787600 0.745500 0.639250
N21 N 1.368600 0.897150 0.369760
O22 O 1.124600 0.751310 0.271790
O23 O 0.916500 0.541700 0.308300
O24 O 0.547900 0.555800 0.394160
O25 O 0.581300 0.699300 0.670400
O26 O 0.913300 0.794700 0.683850
O27 O 1.508700 0.881400 0.300320
O28 O 1.394900 0.977600 0.407700
C29 C 0.884300 0.666500 0.410930
C30 C 0.788300 0.668200 0.500120
H31 H 0.658700 0.619400 0.530000
C32 C 0.888400 0.744100 0.545050
C33 C 1.078700 0.817300 0.501490
H34 H 1.147000 0.866300 0.533100
C35 C 1.167100 0.817400 0.410980
C36 C 1.070200 0.744800 0.355850
O37 O 1.096600 0.140790 0.012360
O38 O 1.358500 -0.018410 0.074140
H39 H 1.421000 -0.016200 0.020700
C40 C 1.151200 0.060200 0.076670
C41 C 0.982700 0.048200 0.166800
H42 H 1.095600 0.056700 0.213600
H43 H 0.926600 -0.030200 0.183000
C44 C 0.730400 0.136400 0.167600
H45 H 0.616700 0.128400 0.120800
H46 H 0.626000 0.119400 0.226700
N47 N 0.798700 0.258670 0.150460
H48 H 0.645400 0.307600 0.151400
H49 H 0.891700 0.275100 0.095800
H50 H 0.900200 0.266900 0.193900
O51 O -0.096600 0.859210 0.987640
O52 O -0.358500 1.018410 0.925860
H53 H -0.421000 1.016200 0.979300
C54 C -0.151200 0.939800 0.923330
C55 C 0.017300 0.951800 0.833200
H56 H -0.095600 0.943300 0.786400
H57 H 0.073400 1.030200 0.817000
C58 C 0.269600 0.863600 0.832400
H59 H 0.383300 0.871600 0.879200
H60 H 0.374000 0.880600 0.773300
N61 N 0.201300 0.741330 0.849540
H62 H 0.354600 0.692400 0.848600
H63 H 0.108300 0.724900 0.904200
H64 H 0.099800 0.733100 0.806100
O65 O 0.699400 0.610130 0.886320
O66 O 0.883700 0.439510 0.960910
C67 C 0.721200 0.502900 0.902910
C68 C 0.564300 0.437000 0.852840
H69 H 0.386700 0.480800 0.842000
H70 H 0.661600 0.432100 0.793500
C71 C 0.524600 0.315200 0.904840
H72 H 0.700400 0.273000 0.920600
H73 H 0.411100 0.319700 0.961500
N74 N 0.391800 0.250100 0.848170
H75 H 0.370100 0.178300 0.879900
H76 H 0.497100 0.245200 0.796600
H77 H 0.229400 0.288300 0.834500
O78 O 0.300600 0.389870 0.113680
O79 O 0.116300 0.560490 0.039090
C80 C 0.278800 0.497100 0.097090
C81 C 0.435700 0.563000 0.147160
H82 H 0.613300 0.519200 0.158000
H83 H 0.338400 0.567900 0.206500
C84 C 0.475400 0.684800 0.095160
H85 H 0.299600 0.727000 0.079400
H86 H 0.588900 0.680300 0.038500
N87 N 0.608200 0.749900 0.151830
H88 H 0.629900 0.821700 0.120100
H89 H 0.502900 0.754800 0.203400
H90 H 0.770600 0.711700 0.165500
H91 H 0.970300 0.482300 0.981000
H92 H 0.029700 0.517700 0.019000

#END
