./ABESAC_from_xyz.cif_generated_by_CrystalShift
_symmetry_cell_setting triclinic
_symmetry_space_group_name_H-M 'P 1'
loop_
_symmetry_equiv_pos_site_id
_symmetry_equiv_pos_as_xyz
1 x,y,z
_cell_length_a 19.140200
_cell_length_b 5.460800
_cell_length_c 16.888800
_cell_angle_alpha 90.000000
_cell_angle_beta 90.000000
_cell_angle_gamma 90.000000
_cell_volume 1765.230957
loop_
_atom_site_label
_atom_site_type_symbol
_atom_site_fract_x
_atom_site_fract_y
_atom_site_fract_z
P1 P 0.792880 0.735950 0.615130
O2 O 0.797090 1.007200 0.609870
O3 O 0.558030 1.020600 0.742250
O4 O 0.479190 0.742600 0.722880
O5 O 0.746730 0.029300 0.823890
O6 O 0.818760 0.072900 0.921620
O7 O 0.970540 0.002800 0.564940
O8 O 0.985160 -0.038500 0.438400
N9 N 0.538130 0.824500 0.713600
N10 N 0.795230 0.134900 0.857200
N11 N 0.959120 0.064200 0.495700
C12 C 0.703230 0.629100 0.615300
C13 C 0.656040 0.764800 0.660400
H14 H 0.670600 0.908400 0.687600
C15 C 0.587700 0.685400 0.664500
C16 C 0.563900 0.478500 0.624600
H17 H 0.516500 0.428200 0.628500
C18 C 0.611270 0.347900 0.579100
H19 H 0.596100 0.207300 0.550800
C20 C 0.680470 0.420000 0.574300
H21 H 0.712600 0.328100 0.543400
C22 C 0.828960 0.620600 0.706900
C23 C 0.800870 0.415700 0.744100
H24 H 0.764700 0.323800 0.719700
C25 C 0.826800 0.349000 0.817200
C26 C 0.880270 0.475100 0.854200
H27 H 0.897800 0.422600 0.904000
C28 C 0.907700 0.679800 0.816900
H29 H 0.944000 0.770900 0.841600
C30 C 0.882120 0.751300 0.743600
H31 H 0.901200 0.891500 0.718200
C32 C 0.835920 0.579100 0.534600
C33 C 0.882920 0.387600 0.547700
H34 H 0.894500 0.337200 0.599900
C35 C 0.912100 0.273500 0.482500
C36 C 0.897100 0.341100 0.405400
H37 H 0.917800 0.257700 0.362000
C38 C 0.850900 0.534600 0.393000
H39 H 0.839900 0.585200 0.340600
C40 C 0.820850 0.653200 0.457300
H41 H 0.789800 0.786000 0.448600
P42 P 0.207120 0.264050 0.115130
O43 O 0.202910 -0.007200 0.109870
O44 O 0.441970 -0.020600 0.242250
O45 O 0.520810 0.257400 0.222880
O46 O 0.253270 0.970700 0.323890
O47 O 0.181240 0.927100 0.421620
O48 O 0.029460 0.997200 0.064940
O49 O 0.014840 1.038500 -0.061600
N50 N 0.461870 0.175500 0.213600
N51 N 0.204770 0.865100 0.357200
N52 N 0.040880 0.935800 -0.004300
C53 C 0.296770 0.370900 0.115300
C54 C 0.343960 0.235200 0.160400
H55 H 0.329400 0.091600 0.187600
C56 C 0.412300 0.314600 0.164500
C57 C 0.436100 0.521500 0.124600
H58 H 0.483500 0.571800 0.128500
C59 C 0.388730 0.652100 0.079100
H60 H 0.403900 0.792700 0.050800
C61 C 0.319530 0.580000 0.074300
H62 H 0.287400 0.671900 0.043400
C63 C 0.171040 0.379400 0.206900
C64 C 0.199130 0.584300 0.244100
H65 H 0.235300 0.676200 0.219700
C66 C 0.173200 0.651000 0.317200
C67 C 0.119730 0.524900 0.354200
H68 H 0.102200 0.577400 0.404000
C69 C 0.092300 0.320200 0.316900
H70 H 0.056000 0.229100 0.341600
C71 C 0.117880 0.248700 0.243600
H72 H 0.098800 0.108500 0.218200
C73 C 0.164080 0.420900 0.034600
C74 C 0.117080 0.612400 0.047700
H75 H 0.105500 0.662800 0.099900
C76 C 0.087900 0.726500 -0.017500
C77 C 0.102900 0.658900 -0.094600
H78 H 0.082200 0.742300 -0.138000
C79 C 0.149100 0.465400 -0.107000
H80 H 0.160100 0.414800 -0.159400
C81 C 0.179150 0.346800 -0.042700
H82 H 0.210200 0.214000 -0.051400
P83 P 0.707120 0.735950 0.115130
O84 O 0.702910 1.007200 0.109870
O85 O 0.941970 1.020600 0.242250
O86 O 1.020810 0.742600 0.222880
O87 O 0.753270 0.029300 0.323890
O88 O 0.681240 0.072900 0.421620
O89 O 0.529460 0.002800 0.064940
O90 O 0.514840 -0.038500 -0.061600
N91 N 0.961870 0.824500 0.213600
N92 N 0.704770 0.134900 0.357200
N93 N 0.540880 0.064200 -0.004300
C94 C 0.796770 0.629100 0.115300
C95 C 0.843960 0.764800 0.160400
H96 H 0.829400 0.908400 0.187600
C97 C 0.912300 0.685400 0.164500
C98 C 0.936100 0.478500 0.124600
H99 H 0.983500 0.428200 0.128500
C100 C 0.888730 0.347900 0.079100
H101 H 0.903900 0.207300 0.050800
C102 C 0.819530 0.420000 0.074300
H103 H 0.787400 0.328100 0.043400
C104 C 0.671040 0.620600 0.206900
C105 C 0.699130 0.415700 0.244100
H106 H 0.735300 0.323800 0.219700
C107 C 0.673200 0.349000 0.317200
C108 C 0.619730 0.475100 0.354200
H109 H 0.602200 0.422600 0.404000
C110 C 0.592300 0.679800 0.316900
H111 H 0.556000 0.770900 0.341600
C112 C 0.617880 0.751300 0.243600
H113 H 0.598800 0.891500 0.218200
C114 C 0.664080 0.579100 0.034600
C115 C 0.617080 0.387600 0.047700
H116 H 0.605500 0.337200 0.099900
C117 C 0.587900 0.273500 -0.017500
C118 C 0.602900 0.341100 -0.094600
H119 H 0.582200 0.257700 -0.138000
C120 C 0.649100 0.534600 -0.107000
H121 H 0.660100 0.585200 -0.159400
C122 C 0.679150 0.653200 -0.042700
H123 H 0.710200 0.786000 -0.051400
P124 P 0.292880 0.264050 0.615130
O125 O 0.297090 -0.007200 0.609870
O126 O 0.058030 -0.020600 0.742250
O127 O -0.020810 0.257400 0.722880
O128 O 0.246730 0.970700 0.823890
O129 O 0.318760 0.927100 0.921620
O130 O 0.470540 0.997200 0.564940
O131 O 0.485160 1.038500 0.438400
N132 N 0.038130 0.175500 0.713600
N133 N 0.295230 0.865100 0.857200
N134 N 0.459120 0.935800 0.495700
C135 C 0.203230 0.370900 0.615300
C136 C 0.156040 0.235200 0.660400
H137 H 0.170600 0.091600 0.687600
C138 C 0.087700 0.314600 0.664500
C139 C 0.063900 0.521500 0.624600
H140 H 0.016500 0.571800 0.628500
C141 C 0.111270 0.652100 0.579100
H142 H 0.096100 0.792700 0.550800
C143 C 0.180470 0.580000 0.574300
H144 H 0.212600 0.671900 0.543400
C145 C 0.328960 0.379400 0.706900
C146 C 0.300870 0.584300 0.744100
H147 H 0.264700 0.676200 0.719700
C148 C 0.326800 0.651000 0.817200
C149 C 0.380270 0.524900 0.854200
H150 H 0.397800 0.577400 0.904000
C151 C 0.407700 0.320200 0.816900
H152 H 0.444000 0.229100 0.841600
C153 C 0.382120 0.248700 0.743600
H154 H 0.401200 0.108500 0.718200
C155 C 0.335920 0.420900 0.534600
C156 C 0.382920 0.612400 0.547700
H157 H 0.394500 0.662800 0.599900
C158 C 0.412100 0.726500 0.482500
C159 C 0.397100 0.658900 0.405400
H160 H 0.417800 0.742300 0.362000
C161 C 0.350900 0.465400 0.393000
H162 H 0.339900 0.414800 0.340600
C163 C 0.320850 0.346800 0.457300
H164 H 0.289800 0.214000 0.448600

#END
