./ABESEG_from_xyz.cif_generated_by_CrystalShift
_symmetry_cell_setting triclinic
_symmetry_space_group_name_H-M 'P 1'
loop_
_symmetry_equiv_pos_site_id
_symmetry_equiv_pos_as_xyz
1 x,y,z
_cell_length_a 9.450300
_cell_length_b 16.388200
_cell_length_c 11.477000
_cell_angle_alpha 90.000000
_cell_angle_beta 110.502000
_cell_angle_gamma 90.000000
_cell_volume 1664.896244
loop_
_atom_site_label
_atom_site_type_symbol
_atom_site_fract_x
_atom_site_fract_y
_atom_site_fract_z
N1 N 0.735700 0.208700 0.808800
N2 N 0.630000 0.104600 0.685100
C3 C 0.605700 0.191500 0.833100
C4 C 0.742800 0.156500 0.721500
H5 H 0.820500 0.156900 0.689400
C6 C 0.539200 0.124700 0.755100
C7 C 0.407500 0.091600 0.756600
H8 H 0.363100 0.048000 0.704900
C9 C 0.339800 0.124600 0.837900
C10 C 0.202000 0.093400 0.843400
H11 H 0.155100 0.050100 0.792000
C12 C 0.137600 0.124700 0.920700
H13 H 0.047400 0.103000 0.922200
C14 C 0.410300 0.191200 0.917500
C15 C 0.338500 0.221900 0.999600
H16 H 0.383700 0.264100 1.054000
C17 C 0.205800 0.190400 0.999500
H18 H 0.159500 0.212300 1.051900
C19 C 0.545000 0.225200 0.914300
H20 H 0.591300 0.268800 0.965200
H21 H 0.797000 0.245000 0.844000
N22 N 1.235700 0.791300 0.808800
N23 N 1.130000 0.895400 0.685100
C24 C 1.105700 0.808500 0.833100
C25 C 1.242800 0.843500 0.721500
H26 H 1.320500 0.843100 0.689400
C27 C 1.039200 0.875300 0.755100
C28 C 0.907500 0.908400 0.756600
H29 H 0.863100 0.952000 0.704900
C30 C 0.839800 0.875400 0.837900
C31 C 0.702000 0.906600 0.843400
H32 H 0.655100 0.949900 0.792000
C33 C 0.637600 0.875300 0.920700
H34 H 0.547400 0.897000 0.922200
C35 C 0.910300 0.808800 0.917500
C36 C 0.838500 0.778100 0.999600
H37 H 0.883700 0.735900 1.054000
C38 C 0.705800 0.809600 0.999500
H39 H 0.659500 0.787700 1.051900
C40 C 1.045000 0.774800 0.914300
H41 H 1.091300 0.731200 0.965200
H42 H 1.297000 0.755000 0.844000
N43 N 1.235700 0.708700 0.308800
N44 N 1.130000 0.604600 0.185100
C45 C 1.105700 0.691500 0.333100
C46 C 1.242800 0.656500 0.221500
H47 H 1.320500 0.656900 0.189400
C48 C 1.039200 0.624700 0.255100
C49 C 0.907500 0.591600 0.256600
H50 H 0.863100 0.548000 0.204900
C51 C 0.839800 0.624600 0.337900
C52 C 0.702000 0.593400 0.343400
H53 H 0.655100 0.550100 0.292000
C54 C 0.637600 0.624700 0.420700
H55 H 0.547400 0.603000 0.422200
C56 C 0.910300 0.691200 0.417500
C57 C 0.838500 0.721900 0.499600
H58 H 0.883700 0.764100 0.554000
C59 C 0.705800 0.690400 0.499500
H60 H 0.659500 0.712300 0.551900
C61 C 1.045000 0.725200 0.414300
H62 H 1.091300 0.768800 0.465200
H63 H 1.297000 0.745000 0.344000
N64 N 0.735700 0.291300 0.308800
N65 N 0.630000 0.395400 0.185100
C66 C 0.605700 0.308500 0.333100
C67 C 0.742800 0.343500 0.221500
H68 H 0.820500 0.343100 0.189400
C69 C 0.539200 0.375300 0.255100
C70 C 0.407500 0.408400 0.256600
H71 H 0.363100 0.452000 0.204900
C72 C 0.339800 0.375400 0.337900
C73 C 0.202000 0.406600 0.343400
H74 H 0.155100 0.449900 0.292000
C75 C 0.137600 0.375300 0.420700
H76 H 0.047400 0.397000 0.422200
C77 C 0.410300 0.308800 0.417500
C78 C 0.338500 0.278100 0.499600
H79 H 0.383700 0.235900 0.554000
C80 C 0.205800 0.309600 0.499500
H81 H 0.159500 0.287700 0.551900
C82 C 0.545000 0.274800 0.414300
H83 H 0.591300 0.231200 0.465200
H84 H 0.797000 0.255000 0.344000
N85 N 0.475900 -0.023900 0.510700
N86 N 0.363000 -0.142100 0.436600
C87 C 0.339200 -0.002800 0.421700
C88 C 0.481700 -0.106500 0.513700
H89 H 0.563900 -0.135400 0.566500
C90 C 0.268100 -0.077500 0.375800
C91 C 0.129300 -0.078300 0.282000
H92 H 0.082000 -0.127500 0.250900
C93 C 0.060200 -0.003800 0.234100
C94 C -0.082800 -0.000300 0.137500
H95 H -0.132100 -0.048800 0.105100
C96 C -0.149200 0.071100 0.091100
H97 H -0.242000 0.071200 0.026400
C98 C 0.132900 0.071900 0.283200
C99 C 0.057300 0.145300 0.232600
H100 H 0.102400 0.195000 0.263800
C101 C -0.079800 0.144900 0.139300
H102 H -0.127400 0.194000 0.107700
C103 C 0.275400 0.071100 0.378000
H104 H 0.325000 0.119500 0.410300
H105 H 0.543000 0.010000 0.552000
N106 N 0.975900 1.023900 0.510700
N107 N 0.863000 1.142100 0.436600
C108 C 0.839200 1.002800 0.421700
C109 C 0.981700 1.106500 0.513700
H110 H 1.063900 1.135400 0.566500
C111 C 0.768100 1.077500 0.375800
C112 C 0.629300 1.078300 0.282000
H113 H 0.582000 1.127500 0.250900
C114 C 0.560200 1.003800 0.234100
C115 C 0.417200 1.000300 0.137500
H116 H 0.367900 1.048800 0.105100
C117 C 0.350800 0.928900 0.091100
H118 H 0.258000 0.928800 0.026400
C119 C 0.632900 0.928100 0.283200
C120 C 0.557300 0.854700 0.232600
H121 H 0.602400 0.805000 0.263800
C122 C 0.420200 0.855100 0.139300
H123 H 0.372600 0.806000 0.107700
C124 C 0.775400 0.928900 0.378000
H125 H 0.825000 0.880500 0.410300
H126 H 1.043000 0.990000 0.552000
N127 N 0.975900 0.476100 1.010700
N128 N 0.863000 0.357900 0.936600
C129 C 0.839200 0.497200 0.921700
C130 C 0.981700 0.393500 1.013700
H131 H 1.063900 0.364600 1.066500
C132 C 0.768100 0.422500 0.875800
C133 C 0.629300 0.421700 0.782000
H134 H 0.582000 0.372500 0.750900
C135 C 0.560200 0.496200 0.734100
C136 C 0.417200 0.499700 0.637500
H137 H 0.367900 0.451200 0.605100
C138 C 0.350800 0.571100 0.591100
H139 H 0.258000 0.571200 0.526400
C140 C 0.632900 0.571900 0.783200
C141 C 0.557300 0.645300 0.732600
H142 H 0.602400 0.695000 0.763800
C143 C 0.420200 0.644900 0.639300
H144 H 0.372600 0.694000 0.607700
C145 C 0.775400 0.571100 0.878000
H146 H 0.825000 0.619500 0.910300
H147 H 1.043000 0.510000 1.052000
N148 N 0.475900 0.523900 1.010700
N149 N 0.363000 0.642100 0.936600
C150 C 0.339200 0.502800 0.921700
C151 C 0.481700 0.606500 1.013700
H152 H 0.563900 0.635400 1.066500
C153 C 0.268100 0.577500 0.875800
C154 C 0.129300 0.578300 0.782000
H155 H 0.082000 0.627500 0.750900
C156 C 0.060200 0.503800 0.734100
C157 C -0.082800 0.500300 0.637500
H158 H -0.132100 0.548800 0.605100
C159 C -0.149200 0.428900 0.591100
H160 H -0.242000 0.428800 0.526400
C161 C 0.132900 0.428100 0.783200
C162 C 0.057300 0.354700 0.732600
H163 H 0.102400 0.305000 0.763800
C164 C -0.079800 0.355100 0.639300
H165 H -0.127400 0.306000 0.607700
C166 C 0.275400 0.428900 0.878000
H167 H 0.325000 0.380500 0.910300
H168 H 0.543000 0.490000 1.052000

#END
