./ABESEI_from_xyz.cif_generated_by_CrystalShift
_symmetry_cell_setting triclinic
_symmetry_space_group_name_H-M 'P 1'
loop_
_symmetry_equiv_pos_site_id
_symmetry_equiv_pos_as_xyz
1 x,y,z
_cell_length_a 7.722200
_cell_length_b 8.226000
_cell_length_c 13.510700
_cell_angle_alpha 107.558000
_cell_angle_beta 90.261000
_cell_angle_gamma 111.588000
_cell_volume 754.366132
loop_
_atom_site_label
_atom_site_type_symbol
_atom_site_fract_x
_atom_site_fract_y
_atom_site_fract_z
Ni1 Ni 0.500000 0.500000 0.000000
O2 O 0.369900 0.393600 0.108430
O3 O 0.067100 0.257300 0.042400
O4 O -0.167000 0.060400 0.130500
O5 O 0.501100 0.757200 0.083200
O6 O 0.249300 0.420900 -0.085100
C7 C 0.202500 0.293500 0.109000
C8 C 0.161900 0.210100 0.194700
C9 C -0.021200 0.096000 0.200600
C10 C -0.053400 0.016800 0.279200
C11 C 0.090900 0.054700 0.353000
C12 C 0.273900 0.172700 0.351200
C13 C 0.305300 0.246600 0.270700
C14 C 0.429800 0.217800 0.431300
C15 C 0.411200 0.252400 0.537200
C16 C 0.552900 0.298300 0.613900
C17 C 0.723300 0.312600 0.583100
C18 C 0.758200 0.282800 0.480400
C19 C 0.609200 0.235000 0.405100
C20 C 0.358900 0.812700 0.113000
C21 C 0.193100 0.479000 -0.160800
F22 F 0.247700 0.248000 0.568600
F23 F 0.868700 0.359600 0.656900
H24 H -0.121300 0.108400 0.086000
H25 H -0.173300 -0.066000 0.280900
H26 H 0.066800 -0.001500 0.404600
H27 H 0.426100 0.326200 0.267600
H28 H 0.533800 0.319500 0.684300
H29 H 0.876600 0.294000 0.461900
H30 H 0.633200 0.210300 0.329200
H31 H 0.358600 0.895900 0.076800
H32 H 0.243700 0.705600 0.093800
H33 H 0.382100 0.873100 0.186200
H34 H 0.071000 0.478600 -0.154900
H35 H 0.196400 0.401200 -0.228800
H36 H 0.276000 0.602700 -0.153500
H37 H 0.166400 0.369700 -0.054100
H38 H 0.596500 0.844400 0.090100
O39 O 0.630100 0.606400 -0.108430
O40 O 0.932900 0.742700 -0.042400
O41 O 1.167000 0.939600 -0.130500
O42 O 0.498900 0.242800 -0.083200
O43 O 0.750700 0.579100 0.085100
C44 C 0.797500 0.706500 -0.109000
C45 C 0.838100 0.789900 -0.194700
C46 C 1.021200 0.904000 -0.200600
C47 C 1.053400 0.983200 -0.279200
C48 C 0.909100 0.945300 -0.353000
C49 C 0.726100 0.827300 -0.351200
C50 C 0.694700 0.753400 -0.270700
C51 C 0.570200 0.782200 -0.431300
C52 C 0.588800 0.747600 -0.537200
C53 C 0.447100 0.701700 -0.613900
C54 C 0.276700 0.687400 -0.583100
C55 C 0.241800 0.717200 -0.480400
C56 C 0.390800 0.765000 -0.405100
C57 C 0.641100 0.187300 -0.113000
C58 C 0.806900 0.521000 0.160800
F59 F 0.752300 0.752000 -0.568600
F60 F 0.131300 0.640400 -0.656900
H61 H 1.121300 0.891600 -0.086000
H62 H 1.173300 1.066000 -0.280900
H63 H 0.933200 1.001500 -0.404600
H64 H 0.573900 0.673800 -0.267600
H65 H 0.466200 0.680500 -0.684300
H66 H 0.123400 0.706000 -0.461900
H67 H 0.366800 0.789700 -0.329200
H68 H 0.641400 0.104100 -0.076800
H69 H 0.756300 0.294400 -0.093800
H70 H 0.617900 0.126900 -0.186200
H71 H 0.929000 0.521400 0.154900
H72 H 0.803600 0.598800 0.228800
H73 H 0.724000 0.397300 0.153500
H74 H 0.833600 0.630300 0.054100
H75 H 0.403500 0.155600 -0.090100
Ni76 Ni 0.500000 0.500000 1.000000
O77 O 0.369900 0.393600 1.108430
O78 O 0.067100 0.257300 1.042400
O79 O -0.167000 0.060400 1.130500
O80 O 0.501100 0.757200 1.083200
O81 O 0.249300 0.420900 0.914900
C82 C 0.202500 0.293500 1.109000
C83 C 0.161900 0.210100 1.194700
C84 C -0.021200 0.096000 1.200600
C85 C -0.053400 0.016800 1.279200
C86 C 0.090900 0.054700 1.353000
C87 C 0.273900 0.172700 1.351200
C88 C 0.305300 0.246600 1.270700
C89 C 0.429800 0.217800 1.431300
C90 C 0.411200 0.252400 1.537200
C91 C 0.552900 0.298300 1.613900
C92 C 0.723300 0.312600 1.583100
C93 C 0.758200 0.282800 1.480400
C94 C 0.609200 0.235000 1.405100
C95 C 0.358900 0.812700 1.113000
C96 C 0.193100 0.479000 0.839200
F97 F 0.247700 0.248000 1.568600
F98 F 0.868700 0.359600 1.656900
H99 H -0.121300 0.108400 1.086000
H100 H -0.173300 -0.066000 1.280900
H101 H 0.066800 -0.001500 1.404600
H102 H 0.426100 0.326200 1.267600
H103 H 0.533800 0.319500 1.684300
H104 H 0.876600 0.294000 1.461900
H105 H 0.633200 0.210300 1.329200
H106 H 0.358600 0.895900 1.076800
H107 H 0.243700 0.705600 1.093800
H108 H 0.382100 0.873100 1.186200
H109 H 0.071000 0.478600 0.845100
H110 H 0.196400 0.401200 0.771200
H111 H 0.276000 0.602700 0.846500
H112 H 0.166400 0.369700 0.945900
H113 H 0.596500 0.844400 1.090100
O114 O 0.630100 0.606400 0.891570
O115 O 0.932900 0.742700 0.957600
O116 O 1.167000 0.939600 0.869500
O117 O 0.498900 0.242800 0.916800
O118 O 0.750700 0.579100 1.085100
C119 C 0.797500 0.706500 0.891000
C120 C 0.838100 0.789900 0.805300
C121 C 1.021200 0.904000 0.799400
C122 C 1.053400 0.983200 0.720800
C123 C 0.909100 0.945300 0.647000
C124 C 0.726100 0.827300 0.648800
C125 C 0.694700 0.753400 0.729300
C126 C 0.570200 0.782200 0.568700
C127 C 0.588800 0.747600 0.462800
C128 C 0.447100 0.701700 0.386100
C129 C 0.276700 0.687400 0.416900
C130 C 0.241800 0.717200 0.519600
C131 C 0.390800 0.765000 0.594900
C132 C 0.641100 0.187300 0.887000
C133 C 0.806900 0.521000 1.160800
F134 F 0.752300 0.752000 0.431400
F135 F 0.131300 0.640400 0.343100
H136 H 1.121300 0.891600 0.914000
H137 H 1.173300 1.066000 0.719100
H138 H 0.933200 1.001500 0.595400
H139 H 0.573900 0.673800 0.732400
H140 H 0.466200 0.680500 0.315700
H141 H 0.123400 0.706000 0.538100
H142 H 0.366800 0.789700 0.670800
H143 H 0.641400 0.104100 0.923200
H144 H 0.756300 0.294400 0.906200
H145 H 0.617900 0.126900 0.813800
H146 H 0.929000 0.521400 1.154900
H147 H 0.803600 0.598800 1.228800
H148 H 0.724000 0.397300 1.153500
H149 H 0.833600 0.630300 1.054100
H150 H 0.403500 0.155600 0.909900

#END
