./ABETIN_from_xyz.cif_generated_by_CrystalShift
_symmetry_cell_setting triclinic
_symmetry_space_group_name_H-M 'P 1'
loop_
_symmetry_equiv_pos_site_id
_symmetry_equiv_pos_as_xyz
1 x,y,z
_cell_length_a 26.962900
_cell_length_b 26.962900
_cell_length_c 27.536500
_cell_angle_alpha 90.000000
_cell_angle_beta 90.000000
_cell_angle_gamma 90.000000
_cell_volume 20018.979777
loop_
_atom_site_label
_atom_site_type_symbol
_atom_site_fract_x
_atom_site_fract_y
_atom_site_fract_z
Cu1 Cu 0.750000 0.370850 0.500000
N2 N 0.418500 0.487700 0.689700
N3 N 0.691900 0.416600 0.485500
C4 C 0.395700 0.467000 0.651000
H5 H 0.366300 0.449700 0.656200
C6 C 0.413900 0.470100 0.604400
H7 H 0.396900 0.455600 0.578600
C8 C 0.458500 0.495500 0.596500
C9 C 0.483200 0.514300 0.636400
H10 H 0.514000 0.529400 0.632800
C11 C 0.461500 0.510400 0.682000
H12 H 0.477900 0.524300 0.708400
C13 C 0.479700 0.499400 0.547400
C14 C 0.528600 0.485300 0.539000
H15 H 0.548000 0.475800 0.565300
C16 C 0.549400 0.484900 0.493200
C17 C 0.599600 0.463500 0.488000
C18 C 0.638300 0.479700 0.517100
H19 H 0.634000 0.506600 0.537800
C20 C 0.683600 0.455400 0.514800
H21 H 0.709400 0.466600 0.534500
C22 C 0.655000 0.402000 0.456800
H23 H 0.660800 0.375900 0.435400
C24 C 0.608300 0.423700 0.457100
H25 H 0.583300 0.411800 0.437000
N26 N 0.581500 0.512300 0.310300
N27 N 0.308100 0.583400 0.514500
C28 C 0.604300 0.533000 0.349000
H29 H 0.633700 0.550300 0.343800
C30 C 0.586100 0.529900 0.395600
H31 H 0.603100 0.544400 0.421400
C32 C 0.541500 0.504500 0.403500
C33 C 0.516800 0.485700 0.363600
H34 H 0.486000 0.470600 0.367200
C35 C 0.538500 0.489600 0.318000
H36 H 0.522100 0.475700 0.291600
C37 C 0.520300 0.500600 0.452600
C38 C 0.471400 0.514700 0.461000
H39 H 0.452000 0.524200 0.434700
C40 C 0.450600 0.515100 0.506800
C41 C 0.400400 0.536500 0.512000
C42 C 0.361700 0.520300 0.482900
H43 H 0.366000 0.493400 0.462200
C44 C 0.316400 0.544600 0.485200
H45 H 0.290600 0.533400 0.465500
C46 C 0.345000 0.598000 0.543200
H47 H 0.339200 0.624100 0.564600
C48 C 0.391700 0.576300 0.542900
H49 H 0.416700 0.588200 0.563000
Cu50 Cu 0.620850 0.500000 0.250000
Cu51 Cu 0.250000 0.629150 0.500000
Cu52 Cu 0.379150 0.500000 0.750000
N53 N 0.762300 0.331500 0.439700
N54 N 0.737700 0.331500 0.560300
N55 N 0.808100 0.416600 0.514500
Cu56 Cu 0.879150 0.500000 0.750000
N57 N 0.762300 0.168500 0.939700
N58 N 0.833400 0.441900 0.735500
C59 C 0.783000 0.145700 0.901000
H60 H 0.800300 0.116300 0.906200
C61 C 0.779900 0.163900 0.854400
H62 H 0.794400 0.146900 0.828600
C63 C 0.754500 0.208500 0.846500
C64 C 0.735700 0.233200 0.886400
H65 H 0.720600 0.264000 0.882800
C66 C 0.739600 0.211500 0.932000
H67 H 0.725700 0.227900 0.958400
C68 C 0.750600 0.229700 0.797400
C69 C 0.764700 0.278600 0.789000
H70 H 0.774200 0.298000 0.815300
C71 C 0.765100 0.299400 0.743200
C72 C 0.786500 0.349600 0.738000
C73 C 0.770300 0.388300 0.767100
H74 H 0.743400 0.384000 0.787800
C75 C 0.794600 0.433600 0.764800
H76 H 0.783400 0.459400 0.784500
C77 C 0.848000 0.405000 0.706800
H78 H 0.874100 0.410800 0.685400
C79 C 0.826300 0.358300 0.707100
H80 H 0.838200 0.333300 0.687000
N81 N 0.666600 0.058100 0.764500
C82 C 0.717000 0.354300 0.599000
H83 H 0.699700 0.383700 0.593800
C84 C 0.720100 0.336100 0.645600
H85 H 0.705600 0.353100 0.671400
C86 C 0.745500 0.291500 0.653500
C87 C 0.764300 0.266800 0.613600
H88 H 0.779400 0.236000 0.617200
C89 C 0.760400 0.288500 0.568000
H90 H 0.774300 0.272100 0.541600
C91 C 0.749400 0.270300 0.702600
C92 C 0.735300 0.221400 0.711000
H93 H 0.725800 0.202000 0.684700
C94 C 0.734900 0.200600 0.756800
C95 C 0.713500 0.150400 0.762000
C96 C 0.729700 0.111700 0.732900
H97 H 0.756600 0.116000 0.712200
C98 C 0.705400 0.066400 0.735200
H99 H 0.716600 0.040600 0.715500
C100 C 0.652000 0.095000 0.793200
H101 H 0.625900 0.089200 0.814600
C102 C 0.673700 0.141700 0.792900
H103 H 0.661800 0.166700 0.813000
Cu104 Cu 0.620850 0.000000 0.750000
Cu105 Cu 0.750000 0.129150 1.000000
N106 N 0.918500 0.512300 0.689700
N107 N 0.918500 0.487700 0.810300
N108 N 0.833400 0.558100 0.764500
Cu109 Cu 0.250000 0.129150 0.500000
N110 N 0.581500 0.012300 0.689700
N111 N 0.308100 0.083400 0.485500
C112 C 0.604300 0.033000 0.651000
H113 H 0.633700 0.050300 0.656200
C114 C 0.586100 0.029900 0.604400
H115 H 0.603100 0.044400 0.578600
C116 C 0.541500 0.004500 0.596500
C117 C 0.516800 -0.014300 0.636400
H118 H 0.486000 -0.029400 0.632800
C119 C 0.538500 -0.010400 0.682000
H120 H 0.522100 -0.024300 0.708400
C121 C 0.520300 0.000600 0.547400
C122 C 0.471400 0.014700 0.539000
H123 H 0.452000 0.024200 0.565300
C124 C 0.450600 0.015100 0.493200
C125 C 0.400400 0.036500 0.488000
C126 C 0.361700 0.020300 0.517100
H127 H 0.366000 -0.006600 0.537800
C128 C 0.316400 0.044600 0.514800
H129 H 0.290600 0.033400 0.534500
C130 C 0.345000 0.098000 0.456800
H131 H 0.339200 0.124100 0.435400
C132 C 0.391700 0.076300 0.457100
H133 H 0.416700 0.088200 0.437000
N134 N 0.418500 -0.012300 0.310300
N135 N 0.691900 -0.083400 0.514500
C136 C 0.395700 -0.033000 0.349000
H137 H 0.366300 -0.050300 0.343800
C138 C 0.413900 -0.029900 0.395600
H139 H 0.396900 -0.044400 0.421400
C140 C 0.458500 -0.004500 0.403500
C141 C 0.483200 0.014300 0.363600
H142 H 0.514000 0.029400 0.367200
C143 C 0.461500 0.010400 0.318000
H144 H 0.477900 0.024300 0.291600
C145 C 0.479700 -0.000600 0.452600
C146 C 0.528600 -0.014700 0.461000
H147 H 0.548000 -0.024200 0.434700
C148 C 0.549400 -0.015100 0.506800
C149 C 0.599600 -0.036500 0.512000
C150 C 0.638300 -0.020300 0.482900
H151 H 0.634000 0.006600 0.462200
C152 C 0.683600 -0.044600 0.485200
H153 H 0.709400 -0.033400 0.465500
C154 C 0.655000 -0.098000 0.543200
H155 H 0.660800 -0.124100 0.564600
C156 C 0.608300 -0.076300 0.542900
H157 H 0.583300 -0.088200 0.563000
Cu158 Cu 0.379150 0.000000 0.250000
Cu159 Cu 0.750000 -0.129150 0.500000
N160 N 0.237700 0.168500 0.439700
N161 N 0.262300 0.168500 0.560300
N162 N 0.191900 0.083400 0.514500
N163 N 0.737700 0.831500 0.439700
N164 N 0.666600 0.558100 0.235500
C165 C 0.717000 0.854300 0.401000
H166 H 0.699700 0.883700 0.406200
C167 C 0.720100 0.836100 0.354400
H168 H 0.705600 0.853100 0.328600
C169 C 0.745500 0.791500 0.346500
C170 C 0.764300 0.766800 0.386400
H171 H 0.779400 0.736000 0.382800
C172 C 0.760400 0.788500 0.432000
H173 H 0.774300 0.772100 0.458400
C174 C 0.749400 0.770300 0.297400
C175 C 0.735300 0.721400 0.289000
H176 H 0.725800 0.702000 0.315300
C177 C 0.734900 0.700600 0.243200
C178 C 0.713500 0.650400 0.238000
C179 C 0.729700 0.611700 0.267100
H180 H 0.756600 0.616000 0.287800
C181 C 0.705400 0.566400 0.264800
H182 H 0.716600 0.540600 0.284500
C183 C 0.652000 0.595000 0.206800
H184 H 0.625900 0.589200 0.185400
C185 C 0.673700 0.641700 0.207100
H186 H 0.661800 0.666700 0.187000
N187 N 0.762300 0.668500 0.060300
N188 N 0.833400 0.941900 0.264500
C189 C 0.783000 0.645700 0.099000
H190 H 0.800300 0.616300 0.093800
C191 C 0.779900 0.663900 0.145600
H192 H 0.794400 0.646900 0.171400
C193 C 0.754500 0.708500 0.153500
C194 C 0.735700 0.733200 0.113600
H195 H 0.720600 0.764000 0.117200
C196 C 0.739600 0.711500 0.068000
H197 H 0.725700 0.727900 0.041600
C198 C 0.750600 0.729700 0.202600
C199 C 0.764700 0.778600 0.211000
H200 H 0.774200 0.798000 0.184700
C201 C 0.765100 0.799400 0.256800
C202 C 0.786500 0.849600 0.262000
C203 C 0.770300 0.888300 0.232900
H204 H 0.743400 0.884000 0.212200
C205 C 0.794600 0.933600 0.235200
H206 H 0.783400 0.959400 0.215500
C207 C 0.848000 0.905000 0.293200
H208 H 0.874100 0.910800 0.314600
C209 C 0.826300 0.858300 0.292900
H210 H 0.838200 0.833300 0.313000
Cu211 Cu 0.750000 0.629150 0.000000
Cu212 Cu 0.879150 1.000000 0.250000
Cu213 Cu 0.750000 0.870850 0.500000
N214 N 0.581500 0.487700 0.189700
N215 N 0.666600 0.441900 0.264500
Cu216 Cu 0.750000 0.629150 1.000000
N217 N 0.418500 0.512300 0.810300
N218 N 0.691900 0.583400 1.014500
C219 C 0.395700 0.533000 0.849000
H220 H 0.366300 0.550300 0.843800
C221 C 0.413900 0.529900 0.895600
H222 H 0.396900 0.544400 0.921400
C223 C 0.458500 0.504500 0.903500
C224 C 0.483200 0.485700 0.863600
H225 H 0.514000 0.470600 0.867200
C226 C 0.461500 0.489600 0.818000
H227 H 0.477900 0.475700 0.791600
C228 C 0.479700 0.500600 0.952600
C229 C 0.528600 0.514700 0.961000
H230 H 0.548000 0.524200 0.934700
C231 C 0.549400 0.515100 1.006800
C232 C 0.599600 0.536500 1.012000
C233 C 0.638300 0.520300 0.982900
H234 H 0.634000 0.493400 0.962200
C235 C 0.683600 0.544600 0.985200
H236 H 0.709400 0.533400 0.965500
C237 C 0.655000 0.598000 1.043200
H238 H 0.660800 0.624100 1.064600
C239 C 0.608300 0.576300 1.042900
H240 H 0.583300 0.588200 1.063000
N241 N 0.581500 0.487700 1.189700
N242 N 0.308100 0.416600 0.985500
C243 C 0.604300 0.467000 1.151000
H244 H 0.633700 0.449700 1.156200
C245 C 0.586100 0.470100 1.104400
H246 H 0.603100 0.455600 1.078600
C247 C 0.541500 0.495500 1.096500
C248 C 0.516800 0.514300 1.136400
H249 H 0.486000 0.529400 1.132800
C250 C 0.538500 0.510400 1.182000
H251 H 0.522100 0.524300 1.208400
C252 C 0.520300 0.499400 1.047400
C253 C 0.471400 0.485300 1.039000
H254 H 0.452000 0.475800 1.065300
C255 C 0.450600 0.484900 0.993200
C256 C 0.400400 0.463500 0.988000
C257 C 0.361700 0.479700 1.017100
H258 H 0.366000 0.506600 1.037800
C259 C 0.316400 0.455400 1.014800
H260 H 0.290600 0.466600 1.034500
C261 C 0.345000 0.402000 0.956800
H262 H 0.339200 0.375900 0.935400
C263 C 0.391700 0.423700 0.957100
H264 H 0.416700 0.411800 0.937000
Cu265 Cu 0.620850 0.500000 1.250000
Cu266 Cu 0.250000 0.370850 1.000000
N267 N 0.762300 0.668500 1.060300
N268 N 0.737700 0.668500 0.939700
N269 N 0.808100 0.583400 0.985500
N270 N 1.081500 0.487700 0.310300
C271 C 1.104300 0.467000 0.349000
H272 H 1.133700 0.449700 0.343800
C273 C 1.086100 0.470100 0.395600
H274 H 1.103100 0.455600 0.421400
C275 C 1.041500 0.495500 0.403500
C276 C 1.016800 0.514300 0.363600
H277 H 0.986000 0.529400 0.367200
C278 C 1.038500 0.510400 0.318000
H279 H 1.022100 0.524300 0.291600
C280 C 1.020300 0.499400 0.452600
C281 C 0.971400 0.485300 0.461000
H282 H 0.952000 0.475800 0.434700
C283 C 0.950600 0.484900 0.506800
C284 C 0.900400 0.463500 0.512000
C285 C 0.861700 0.479700 0.482900
H286 H 0.866000 0.506600 0.462200
C287 C 0.816400 0.455400 0.485200
H288 H 0.790600 0.466600 0.465500
C289 C 0.845000 0.402000 0.543200
H290 H 0.839200 0.375900 0.564600
C291 C 0.891700 0.423700 0.542900
H292 H 0.916700 0.411800 0.563000
N293 N 1.191900 0.583400 0.485500
C294 C 0.895700 0.533000 0.651000
H295 H 0.866300 0.550300 0.656200
C296 C 0.913900 0.529900 0.604400
H297 H 0.896900 0.544400 0.578600
C298 C 0.958500 0.504500 0.596500
C299 C 0.983200 0.485700 0.636400
H300 H 1.014000 0.470600 0.632800
C301 C 0.961500 0.489600 0.682000
H302 H 0.977900 0.475700 0.708400
C303 C 0.979700 0.500600 0.547400
C304 C 1.028600 0.514700 0.539000
H305 H 1.048000 0.524200 0.565300
C306 C 1.049400 0.515100 0.493200
C307 C 1.099600 0.536500 0.488000
C308 C 1.138300 0.520300 0.517100
H309 H 1.134000 0.493400 0.537800
C310 C 1.183600 0.544600 0.514800
H311 H 1.209400 0.533400 0.534500
C312 C 1.155000 0.598000 0.456800
H313 H 1.160800 0.624100 0.435400
C314 C 1.108300 0.576300 0.457100
H315 H 1.083300 0.588200 0.437000
Cu316 Cu 1.250000 0.629150 0.500000
Cu317 Cu 1.120850 0.500000 0.250000
Cu318 Cu 0.120850 1.000000 0.750000
N319 N 0.237700 0.668500 0.560300
N320 N 0.166600 0.941900 0.764500
C321 C 0.217000 0.645700 0.599000
H322 H 0.199700 0.616300 0.593800
C323 C 0.220100 0.663900 0.645600
H324 H 0.205600 0.646900 0.671400
C325 C 0.245500 0.708500 0.653500
C326 C 0.264300 0.733200 0.613600
H327 H 0.279400 0.764000 0.617200
C328 C 0.260400 0.711500 0.568000
H329 H 0.274300 0.727900 0.541600
C330 C 0.249400 0.729700 0.702600
C331 C 0.235300 0.778600 0.711000
H332 H 0.225800 0.798000 0.684700
C333 C 0.234900 0.799400 0.756800
C334 C 0.213500 0.849600 0.762000
C335 C 0.229700 0.888300 0.732900
H336 H 0.256600 0.884000 0.712200
C337 C 0.205400 0.933600 0.735200
H338 H 0.216600 0.959400 0.715500
C339 C 0.152000 0.905000 0.793200
H340 H 0.125900 0.910800 0.814600
C341 C 0.173700 0.858300 0.792900
H342 H 0.161800 0.833300 0.813000
N343 N 0.262300 0.831500 0.939700
N344 N 0.333400 0.558100 0.735500
C345 C 0.283000 0.854300 0.901000
H346 H 0.300300 0.883700 0.906200
C347 C 0.279900 0.836100 0.854400
H348 H 0.294400 0.853100 0.828600
C349 C 0.254500 0.791500 0.846500
C350 C 0.235700 0.766800 0.886400
H351 H 0.220600 0.736000 0.882800
C352 C 0.239600 0.788500 0.932000
H353 H 0.225700 0.772100 0.958400
C354 C 0.250600 0.770300 0.797400
C355 C 0.264700 0.721400 0.789000
H356 H 0.274200 0.702000 0.815300
C357 C 0.265100 0.700600 0.743200
C358 C 0.286500 0.650400 0.738000
C359 C 0.270300 0.611700 0.767100
H360 H 0.243400 0.616000 0.787800
C361 C 0.294600 0.566400 0.764800
H362 H 0.283400 0.540600 0.784500
C363 C 0.348000 0.595000 0.706800
H364 H 0.374100 0.589200 0.685400
C365 C 0.326300 0.641700 0.707100
H366 H 0.338200 0.666700 0.687000
Cu367 Cu 0.250000 0.870850 1.000000
N368 N 0.081500 1.012300 0.810300
N369 N 0.081500 0.987700 0.689700
N370 N 0.166600 1.058100 0.735500
N371 N 0.762300 0.831500 0.560300
C372 C 0.783000 0.854300 0.599000
H373 H 0.800300 0.883700 0.593800
C374 C 0.779900 0.836100 0.645600
H375 H 0.794400 0.853100 0.671400
C376 C 0.754500 0.791500 0.653500
C377 C 0.735700 0.766800 0.613600
H378 H 0.720600 0.736000 0.617200
C379 C 0.739600 0.788500 0.568000
H380 H 0.725700 0.772100 0.541600
C381 C 0.750600 0.770300 0.702600
C382 C 0.764700 0.721400 0.711000
H383 H 0.774200 0.702000 0.684700
C384 C 0.765100 0.700600 0.756800
C385 C 0.786500 0.650400 0.762000
C386 C 0.770300 0.611700 0.732900
H387 H 0.743400 0.616000 0.712200
C388 C 0.794600 0.566400 0.735200
H389 H 0.783400 0.540600 0.715500
C390 C 0.848000 0.595000 0.793200
H391 H 0.874100 0.589200 0.814600
C392 C 0.826300 0.641700 0.792900
H393 H 0.838200 0.666700 0.813000
N394 N 0.666600 0.941900 0.735500
C395 C 0.717000 0.645700 0.901000
H396 H 0.699700 0.616300 0.906200
C397 C 0.720100 0.663900 0.854400
H398 H 0.705600 0.646900 0.828600
C399 C 0.745500 0.708500 0.846500
C400 C 0.764300 0.733200 0.886400
H401 H 0.779400 0.764000 0.882800
C402 C 0.760400 0.711500 0.932000
H403 H 0.774300 0.727900 0.958400
C404 C 0.749400 0.729700 0.797400
C405 C 0.735300 0.778600 0.789000
H406 H 0.725800 0.798000 0.815300
C407 C 0.734900 0.799400 0.743200
C408 C 0.713500 0.849600 0.738000
C409 C 0.729700 0.888300 0.767100
H410 H 0.756600 0.884000 0.787800
C411 C 0.705400 0.933600 0.764800
H412 H 0.716600 0.959400 0.784500
C413 C 0.652000 0.905000 0.706800
H414 H 0.625900 0.910800 0.685400
C415 C 0.673700 0.858300 0.707100
H416 H 0.661800 0.833300 0.687000
Cu417 Cu 0.620850 1.000000 0.750000
Cu418 Cu 0.250000 0.870850 0.000000
N419 N -0.081500 0.987700 0.189700
N420 N 0.191900 0.916600 -0.014500
C421 C -0.104300 0.967000 0.151000
H422 H -0.133700 0.949700 0.156200
C423 C -0.086100 0.970100 0.104400
H424 H -0.103100 0.955600 0.078600
C425 C -0.041500 0.995500 0.096500
C426 C -0.016800 1.014300 0.136400
H427 H 0.014000 1.029400 0.132800
C428 C -0.038500 1.010400 0.182000
H429 H -0.022100 1.024300 0.208400
C430 C -0.020300 0.999400 0.047400
C431 C 0.028600 0.985300 0.039000
H432 H 0.048000 0.975800 0.065300
C433 C 0.049400 0.984900 -0.006800
C434 C 0.099600 0.963500 -0.012000
C435 C 0.138300 0.979700 0.017100
H436 H 0.134000 1.006600 0.037800
C437 C 0.183600 0.955400 0.014800
H438 H 0.209400 0.966600 0.034500
C439 C 0.155000 0.902000 -0.043200
H440 H 0.160800 0.875900 -0.064600
C441 C 0.108300 0.923700 -0.042900
H442 H 0.083300 0.911800 -0.063000
N443 N 0.081500 1.012300 -0.189700
N444 N -0.191900 1.083400 0.014500
C445 C 0.104300 1.033000 -0.151000
H446 H 0.133700 1.050300 -0.156200
C447 C 0.086100 1.029900 -0.104400
H448 H 0.103100 1.044400 -0.078600
C449 C 0.041500 1.004500 -0.096500
C450 C 0.016800 0.985700 -0.136400
H451 H -0.014000 0.970600 -0.132800
C452 C 0.038500 0.989600 -0.182000
H453 H 0.022100 0.975700 -0.208400
C454 C 0.020300 1.000600 -0.047400
C455 C -0.028600 1.014700 -0.039000
H456 H -0.048000 1.024200 -0.065300
C457 C -0.049400 1.015100 0.006800
C458 C -0.099600 1.036500 0.012000
C459 C -0.138300 1.020300 -0.017100
H460 H -0.134000 0.993400 -0.037800
C461 C -0.183600 1.044600 -0.014800
H462 H -0.209400 1.033400 -0.034500
C463 C -0.155000 1.098000 0.043200
H464 H -0.160800 1.124100 0.064600
C465 C -0.108300 1.076300 0.042900
H466 H -0.083300 1.088200 0.063000
Cu467 Cu 0.120850 1.000000 -0.250000
Cu468 Cu -0.250000 1.129150 0.000000
Cu469 Cu -0.120850 1.000000 0.250000
N470 N 0.262300 0.831500 -0.060300
N471 N 0.237700 0.831500 0.060300
N472 N 0.308100 0.916600 0.014500
Cu473 Cu 0.379150 1.000000 0.250000
N474 N 0.262300 0.668500 0.439700
N475 N 0.333400 0.941900 0.235500
C476 C 0.283000 0.645700 0.401000
H477 H 0.300300 0.616300 0.406200
C478 C 0.279900 0.663900 0.354400
H479 H 0.294400 0.646900 0.328600
C480 C 0.254500 0.708500 0.346500
C481 C 0.235700 0.733200 0.386400
H482 H 0.220600 0.764000 0.382800
C483 C 0.239600 0.711500 0.432000
H484 H 0.225700 0.727900 0.458400
C485 C 0.250600 0.729700 0.297400
C486 C 0.264700 0.778600 0.289000
H487 H 0.274200 0.798000 0.315300
C488 C 0.265100 0.799400 0.243200
C489 C 0.286500 0.849600 0.238000
C490 C 0.270300 0.888300 0.267100
H491 H 0.243400 0.884000 0.287800
C492 C 0.294600 0.933600 0.264800
H493 H 0.283400 0.959400 0.284500
C494 C 0.348000 0.905000 0.206800
H495 H 0.374100 0.910800 0.185400
C496 C 0.326300 0.858300 0.207100
H497 H 0.338200 0.833300 0.187000
N498 N 0.166600 0.558100 0.264500
C499 C 0.217000 0.854300 0.099000
H500 H 0.199700 0.883700 0.093800
C501 C 0.220100 0.836100 0.145600
H502 H 0.205600 0.853100 0.171400
C503 C 0.245500 0.791500 0.153500
C504 C 0.264300 0.766800 0.113600
H505 H 0.279400 0.736000 0.117200
C506 C 0.260400 0.788500 0.068000
H507 H 0.274300 0.772100 0.041600
C508 C 0.249400 0.770300 0.202600
C509 C 0.235300 0.721400 0.211000
H510 H 0.225800 0.702000 0.184700
C511 C 0.234900 0.700600 0.256800
C512 C 0.213500 0.650400 0.262000
C513 C 0.229700 0.611700 0.232900
H514 H 0.256600 0.616000 0.212200
C515 C 0.205400 0.566400 0.235200
H516 H 0.216600 0.540600 0.215500
C517 C 0.152000 0.595000 0.293200
H518 H 0.125900 0.589200 0.314600
C519 C 0.173700 0.641700 0.292900
H520 H 0.161800 0.666700 0.313000
Cu521 Cu 0.120850 0.500000 0.250000
N522 N 0.418500 1.012300 0.189700
N523 N 0.418500 0.987700 0.310300
N524 N 0.333400 1.058100 0.264500
N525 N 1.081500 0.512300 0.189700
N526 N 0.808100 0.583400 -0.014500
C527 C 1.104300 0.533000 0.151000
H528 H 1.133700 0.550300 0.156200
C529 C 1.086100 0.529900 0.104400
H530 H 1.103100 0.544400 0.078600
C531 C 1.041500 0.504500 0.096500
C532 C 1.016800 0.485700 0.136400
H533 H 0.986000 0.470600 0.132800
C534 C 1.038500 0.489600 0.182000
H535 H 1.022100 0.475700 0.208400
C536 C 1.020300 0.500600 0.047400
C537 C 0.971400 0.514700 0.039000
H538 H 0.952000 0.524200 0.065300
C539 C 0.950600 0.515100 -0.006800
C540 C 0.900400 0.536500 -0.012000
C541 C 0.861700 0.520300 0.017100
H542 H 0.866000 0.493400 0.037800
C543 C 0.816400 0.544600 0.014800
H544 H 0.790600 0.533400 0.034500
C545 C 0.845000 0.598000 -0.043200
H546 H 0.839200 0.624100 -0.064600
C547 C 0.891700 0.576300 -0.042900
H548 H 0.916700 0.588200 -0.063000
N549 N 0.918500 0.487700 -0.189700
N550 N 1.191900 0.416600 0.014500
C551 C 0.895700 0.467000 -0.151000
H552 H 0.866300 0.449700 -0.156200
C553 C 0.913900 0.470100 -0.104400
H554 H 0.896900 0.455600 -0.078600
C555 C 0.958500 0.495500 -0.096500
C556 C 0.983200 0.514300 -0.136400
H557 H 1.014000 0.529400 -0.132800
C558 C 0.961500 0.510400 -0.182000
H559 H 0.977900 0.524300 -0.208400
C560 C 0.979700 0.499400 -0.047400
C561 C 1.028600 0.485300 -0.039000
H562 H 1.048000 0.475800 -0.065300
C563 C 1.049400 0.484900 0.006800
C564 C 1.099600 0.463500 0.012000
C565 C 1.138300 0.479700 -0.017100
H566 H 1.134000 0.506600 -0.037800
C567 C 1.183600 0.455400 -0.014800
H568 H 1.209400 0.466600 -0.034500
C569 C 1.155000 0.402000 0.043200
H570 H 1.160800 0.375900 0.064600
C571 C 1.108300 0.423700 0.042900
H572 H 1.083300 0.411800 0.063000
Cu573 Cu 0.879150 0.500000 -0.250000
Cu574 Cu 1.250000 0.370850 0.000000
N575 N 0.737700 0.668500 -0.060300
N576 N 0.691900 0.583400 0.014500
Cu577 Cu 0.120850 0.000000 0.750000
N578 N 0.237700 0.331500 0.939700
N579 N 0.166600 0.058100 0.735500
C580 C 0.217000 0.354300 0.901000
H581 H 0.199700 0.383700 0.906200
C582 C 0.220100 0.336100 0.854400
H583 H 0.205600 0.353100 0.828600
C584 C 0.245500 0.291500 0.846500
C585 C 0.264300 0.266800 0.886400
H586 H 0.279400 0.236000 0.882800
C587 C 0.260400 0.288500 0.932000
H588 H 0.274300 0.272100 0.958400
C589 C 0.249400 0.270300 0.797400
C590 C 0.235300 0.221400 0.789000
H591 H 0.225800 0.202000 0.815300
C592 C 0.234900 0.200600 0.743200
C593 C 0.213500 0.150400 0.738000
C594 C 0.229700 0.111700 0.767100
H595 H 0.256600 0.116000 0.787800
C596 C 0.205400 0.066400 0.764800
H597 H 0.216600 0.040600 0.784500
C598 C 0.152000 0.095000 0.706800
H599 H 0.125900 0.089200 0.685400
C600 C 0.173700 0.141700 0.707100
H601 H 0.161800 0.166700 0.687000
N602 N 0.333400 0.441900 0.764500
C603 C 0.283000 0.145700 0.599000
H604 H 0.300300 0.116300 0.593800
C605 C 0.279900 0.163900 0.645600
H606 H 0.294400 0.146900 0.671400
C607 C 0.254500 0.208500 0.653500
C608 C 0.235700 0.233200 0.613600
H609 H 0.220600 0.264000 0.617200
C610 C 0.239600 0.211500 0.568000
H611 H 0.225700 0.227900 0.541600
C612 C 0.250600 0.229700 0.702600
C613 C 0.264700 0.278600 0.711000
H614 H 0.274200 0.298000 0.684700
C615 C 0.265100 0.299400 0.756800
C616 C 0.286500 0.349600 0.762000
C617 C 0.270300 0.388300 0.732900
H618 H 0.243400 0.384000 0.712200
C619 C 0.294600 0.433600 0.735200
H620 H 0.283400 0.459400 0.715500
C621 C 0.348000 0.405000 0.793200
H622 H 0.374100 0.410800 0.814600
C623 C 0.326300 0.358300 0.792900
H624 H 0.338200 0.333300 0.813000
N625 N 0.081500 -0.012300 0.689700
N626 N 0.081500 0.012300 0.810300
N627 N 0.166600 -0.058100 0.764500
N628 N -0.081500 0.012300 0.310300
C629 C -0.104300 0.033000 0.349000
H630 H -0.133700 0.050300 0.343800
C631 C -0.086100 0.029900 0.395600
H632 H -0.103100 0.044400 0.421400
C633 C -0.041500 0.004500 0.403500
C634 C -0.016800 -0.014300 0.363600
H635 H 0.014000 -0.029400 0.367200
C636 C -0.038500 -0.010400 0.318000
H637 H -0.022100 -0.024300 0.291600
C638 C -0.020300 0.000600 0.452600
C639 C 0.028600 0.014700 0.461000
H640 H 0.048000 0.024200 0.434700
C641 C 0.049400 0.015100 0.506800
C642 C 0.099600 0.036500 0.512000
C643 C 0.138300 0.020300 0.482900
H644 H 0.134000 -0.006600 0.462200
C645 C 0.183600 0.044600 0.485200
H646 H 0.209400 0.033400 0.465500
C647 C 0.155000 0.098000 0.543200
H648 H 0.160800 0.124100 0.564600
C649 C 0.108300 0.076300 0.542900
H650 H 0.083300 0.088200 0.563000
N651 N -0.191900 -0.083400 0.485500
C652 C 0.104300 -0.033000 0.651000
H653 H 0.133700 -0.050300 0.656200
C654 C 0.086100 -0.029900 0.604400
H655 H 0.103100 -0.044400 0.578600
C656 C 0.041500 -0.004500 0.596500
C657 C 0.016800 0.014300 0.636400
H658 H -0.014000 0.029400 0.632800
C659 C 0.038500 0.010400 0.682000
H660 H 0.022100 0.024300 0.708400
C661 C 0.020300 -0.000600 0.547400
C662 C -0.028600 -0.014700 0.539000
H663 H -0.048000 -0.024200 0.565300
C664 C -0.049400 -0.015100 0.493200
C665 C -0.099600 -0.036500 0.488000
C666 C -0.138300 -0.020300 0.517100
H667 H -0.134000 0.006600 0.537800
C668 C -0.183600 -0.044600 0.514800
H669 H -0.209400 -0.033400 0.534500
C670 C -0.155000 -0.098000 0.456800
H671 H -0.160800 -0.124100 0.435400
C672 C -0.108300 -0.076300 0.457100
H673 H -0.083300 -0.088200 0.437000
Cu674 Cu -0.250000 -0.129150 0.500000
Cu675 Cu -0.120850 0.000000 0.250000
N676 N 0.581500 0.987700 0.810300
N677 N 0.308100 0.916600 1.014500
C678 C 0.604300 0.967000 0.849000
H679 H 0.633700 0.949700 0.843800
C680 C 0.586100 0.970100 0.895600
H681 H 0.603100 0.955600 0.921400
C682 C 0.541500 0.995500 0.903500
C683 C 0.516800 1.014300 0.863600
H684 H 0.486000 1.029400 0.867200
C685 C 0.538500 1.010400 0.818000
H686 H 0.522100 1.024300 0.791600
C687 C 0.520300 0.999400 0.952600
C688 C 0.471400 0.985300 0.961000
H689 H 0.452000 0.975800 0.934700
C690 C 0.450600 0.984900 1.006800
C691 C 0.400400 0.963500 1.012000
C692 C 0.361700 0.979700 0.982900
H693 H 0.366000 1.006600 0.962200
C694 C 0.316400 0.955400 0.985200
H695 H 0.290600 0.966600 0.965500
C696 C 0.345000 0.902000 1.043200
H697 H 0.339200 0.875900 1.064600
C698 C 0.391700 0.923700 1.042900
H699 H 0.416700 0.911800 1.063000
N700 N 0.418500 1.012300 1.189700
N701 N 0.691900 1.083400 0.985500
C702 C 0.395700 1.033000 1.151000
H703 H 0.366300 1.050300 1.156200
C704 C 0.413900 1.029900 1.104400
H705 H 0.396900 1.044400 1.078600
C706 C 0.458500 1.004500 1.096500
C707 C 0.483200 0.985700 1.136400
H708 H 0.514000 0.970600 1.132800
C709 C 0.461500 0.989600 1.182000
H710 H 0.477900 0.975700 1.208400
C711 C 0.479700 1.000600 1.047400
C712 C 0.528600 1.014700 1.039000
H713 H 0.548000 1.024200 1.065300
C714 C 0.549400 1.015100 0.993200
C715 C 0.599600 1.036500 0.988000
C716 C 0.638300 1.020300 1.017100
H717 H 0.634000 0.993400 1.037800
C718 C 0.683600 1.044600 1.014800
H719 H 0.709400 1.033400 1.034500
C720 C 0.655000 1.098000 0.956800
H721 H 0.660800 1.124100 0.935400
C722 C 0.608300 1.076300 0.957100
H723 H 0.583300 1.088200 0.937000
Cu724 Cu 0.379150 1.000000 1.250000
Cu725 Cu 0.750000 1.129150 1.000000
N726 N 0.237700 0.831500 1.060300
N727 N 0.191900 0.916600 0.985500
N728 N 0.737700 0.168500 0.060300
C729 C 0.717000 0.145700 0.099000
H730 H 0.699700 0.116300 0.093800
C731 C 0.720100 0.163900 0.145600
H732 H 0.705600 0.146900 0.171400
C733 C 0.745500 0.208500 0.153500
C734 C 0.764300 0.233200 0.113600
H735 H 0.779400 0.264000 0.117200
C736 C 0.760400 0.211500 0.068000
H737 H 0.774300 0.227900 0.041600
C738 C 0.749400 0.229700 0.202600
C739 C 0.735300 0.278600 0.211000
H740 H 0.725800 0.298000 0.184700
C741 C 0.734900 0.299400 0.256800
C742 C 0.713500 0.349600 0.262000
C743 C 0.729700 0.388300 0.232900
H744 H 0.756600 0.384000 0.212200
C745 C 0.705400 0.433600 0.235200
H746 H 0.716600 0.459400 0.215500
C747 C 0.652000 0.405000 0.293200
H748 H 0.625900 0.410800 0.314600
C749 C 0.673700 0.358300 0.292900
H750 H 0.661800 0.333300 0.313000
N751 N 0.833400 0.058100 0.235500
C752 C 0.783000 0.354300 0.401000
H753 H 0.800300 0.383700 0.406200
C754 C 0.779900 0.336100 0.354400
H755 H 0.794400 0.353100 0.328600
C756 C 0.754500 0.291500 0.346500
C757 C 0.735700 0.266800 0.386400
H758 H 0.720600 0.236000 0.382800
C759 C 0.739600 0.288500 0.432000
H760 H 0.725700 0.272100 0.458400
C761 C 0.750600 0.270300 0.297400
C762 C 0.764700 0.221400 0.289000
H763 H 0.774200 0.202000 0.315300
C764 C 0.765100 0.200600 0.243200
C765 C 0.786500 0.150400 0.238000
C766 C 0.770300 0.111700 0.267100
H767 H 0.743400 0.116000 0.287800
C768 C 0.794600 0.066400 0.264800
H769 H 0.783400 0.040600 0.284500
C770 C 0.848000 0.095000 0.206800
H771 H 0.874100 0.089200 0.185400
C772 C 0.826300 0.141700 0.207100
H773 H 0.838200 0.166700 0.187000
Cu774 Cu 0.879150 0.000000 0.250000
Cu775 Cu 0.750000 0.129150 0.000000
N776 N 0.262300 0.331500 0.060300
N777 N 0.333400 0.058100 0.264500
C778 C 0.283000 0.354300 0.099000
H779 H 0.300300 0.383700 0.093800
C780 C 0.279900 0.336100 0.145600
H781 H 0.294400 0.353100 0.171400
C782 C 0.254500 0.291500 0.153500
C783 C 0.235700 0.266800 0.113600
H784 H 0.220600 0.236000 0.117200
C785 C 0.239600 0.288500 0.068000
H786 H 0.225700 0.272100 0.041600
C787 C 0.250600 0.270300 0.202600
C788 C 0.264700 0.221400 0.211000
H789 H 0.274200 0.202000 0.184700
C790 C 0.265100 0.200600 0.256800
C791 C 0.286500 0.150400 0.262000
C792 C 0.270300 0.111700 0.232900
H793 H 0.243400 0.116000 0.212200
C794 C 0.294600 0.066400 0.235200
H795 H 0.283400 0.040600 0.215500
C796 C 0.348000 0.095000 0.293200
H797 H 0.374100 0.089200 0.314600
C798 C 0.326300 0.141700 0.292900
H799 H 0.338200 0.166700 0.313000
N800 N 0.166600 0.441900 0.235500
C801 C 0.217000 0.145700 0.401000
H802 H 0.199700 0.116300 0.406200
C803 C 0.220100 0.163900 0.354400
H804 H 0.205600 0.146900 0.328600
C805 C 0.245500 0.208500 0.346500
C806 C 0.264300 0.233200 0.386400
H807 H 0.279400 0.264000 0.382800
C808 C 0.260400 0.211500 0.432000
H809 H 0.274300 0.227900 0.458400
C810 C 0.249400 0.229700 0.297400
C811 C 0.235300 0.278600 0.289000
H812 H 0.225800 0.298000 0.315300
C813 C 0.234900 0.299400 0.243200
C814 C 0.213500 0.349600 0.238000
C815 C 0.229700 0.388300 0.267100
H816 H 0.256600 0.384000 0.287800
C817 C 0.205400 0.433600 0.264800
H818 H 0.216600 0.459400 0.284500
C819 C 0.152000 0.405000 0.206800
H820 H 0.125900 0.410800 0.185400
C821 C 0.173700 0.358300 0.207100
H822 H 0.161800 0.333300 0.187000
Cu823 Cu 0.250000 0.370850 0.000000
N824 N 0.418500 0.012300 0.189700
N825 N 0.333400 -0.058100 0.235500
N826 N 0.191900 0.583400 0.485500
N827 N 0.081500 0.487700 0.310300
N828 N 0.081500 0.512300 0.189700
N829 N 0.691900 0.916600 0.514500
C830 C 0.395700 0.967000 0.349000
H831 H 0.366300 0.949700 0.343800
C832 C 0.413900 0.970100 0.395600
H833 H 0.396900 0.955600 0.421400
C834 C 0.458500 0.995500 0.403500
C835 C 0.483200 1.014300 0.363600
H836 H 0.514000 1.029400 0.367200
C837 C 0.461500 1.010400 0.318000
H838 H 0.477900 1.024300 0.291600
C839 C 0.479700 0.999400 0.452600
C840 C 0.528600 0.985300 0.461000
H841 H 0.548000 0.975800 0.434700
C842 C 0.549400 0.984900 0.506800
C843 C 0.599600 0.963500 0.512000
C844 C 0.638300 0.979700 0.482900
H845 H 0.634000 1.006600 0.462200
C846 C 0.683600 0.955400 0.485200
H847 H 0.709400 0.966600 0.465500
C848 C 0.655000 0.902000 0.543200
H849 H 0.660800 0.875900 0.564600
C850 C 0.608300 0.923700 0.542900
H851 H 0.583300 0.911800 0.563000
N852 N 0.581500 1.012300 0.689700
N853 N 0.308100 1.083400 0.485500
C854 C 0.604300 1.033000 0.651000
H855 H 0.633700 1.050300 0.656200
C856 C 0.586100 1.029900 0.604400
H857 H 0.603100 1.044400 0.578600
C858 C 0.541500 1.004500 0.596500
C859 C 0.516800 0.985700 0.636400
H860 H 0.486000 0.970600 0.632800
C861 C 0.538500 0.989600 0.682000
H862 H 0.522100 0.975700 0.708400
C863 C 0.520300 1.000600 0.547400
C864 C 0.471400 1.014700 0.539000
H865 H 0.452000 1.024200 0.565300
C866 C 0.450600 1.015100 0.493200
C867 C 0.400400 1.036500 0.488000
C868 C 0.361700 1.020300 0.517100
H869 H 0.366000 0.993400 0.537800
C870 C 0.316400 1.044600 0.514800
H871 H 0.290600 1.033400 0.534500
C872 C 0.345000 1.098000 0.456800
H873 H 0.339200 1.124100 0.435400
C874 C 0.391700 1.076300 0.457100
H875 H 0.416700 1.088200 0.437000
Cu876 Cu 0.250000 1.129150 0.500000
N877 N 0.808100 0.916600 0.485500
N878 N 0.308100 0.416600 -0.014500
C879 C 0.604300 0.467000 0.151000
H880 H 0.633700 0.449700 0.156200
C881 C 0.586100 0.470100 0.104400
H882 H 0.603100 0.455600 0.078600
C883 C 0.541500 0.495500 0.096500
C884 C 0.516800 0.514300 0.136400
H885 H 0.486000 0.529400 0.132800
C886 C 0.538500 0.510400 0.182000
H887 H 0.522100 0.524300 0.208400
C888 C 0.520300 0.499400 0.047400
C889 C 0.471400 0.485300 0.039000
H890 H 0.452000 0.475800 0.065300
C891 C 0.450600 0.484900 -0.006800
C892 C 0.400400 0.463500 -0.012000
C893 C 0.361700 0.479700 0.017100
H894 H 0.366000 0.506600 0.037800
C895 C 0.316400 0.455400 0.014800
H896 H 0.290600 0.466600 0.034500
C897 C 0.345000 0.402000 -0.043200
H898 H 0.339200 0.375900 -0.064600
C899 C 0.391700 0.423700 -0.042900
H900 H 0.416700 0.411800 -0.063000
N901 N 0.418500 0.512300 -0.189700
C902 C 0.395700 0.533000 -0.151000
H903 H 0.366300 0.550300 -0.156200
C904 C 0.413900 0.529900 -0.104400
H905 H 0.396900 0.544400 -0.078600
C906 C 0.458500 0.504500 -0.096500
C907 C 0.483200 0.485700 -0.136400
H908 H 0.514000 0.470600 -0.132800
C909 C 0.461500 0.489600 -0.182000
H910 H 0.477900 0.475700 -0.208400
C911 C 0.479700 0.500600 -0.047400
C912 C 0.528600 0.514700 -0.039000
H913 H 0.548000 0.524200 -0.065300
C914 C 0.549400 0.515100 0.006800
C915 C 0.599600 0.536500 0.012000
C916 C 0.638300 0.520300 -0.017100
H917 H 0.634000 0.493400 -0.037800
C918 C 0.683600 0.544600 -0.014800
H919 H 0.709400 0.533400 -0.034500
C920 C 0.655000 0.598000 0.043200
H921 H 0.660800 0.624100 0.064600
C922 C 0.608300 0.576300 0.042900
H923 H 0.583300 0.588200 0.063000
Cu924 Cu 0.379150 0.500000 -0.250000
N925 N 0.237700 0.331500 -0.060300
N926 N 0.191900 0.416600 0.014500
N927 N -0.081500 0.512300 0.689700
C928 C -0.104300 0.533000 0.651000
H929 H -0.133700 0.550300 0.656200
C930 C -0.086100 0.529900 0.604400
H931 H -0.103100 0.544400 0.578600
C932 C -0.041500 0.504500 0.596500
C933 C -0.016800 0.485700 0.636400
H934 H 0.014000 0.470600 0.632800
C935 C -0.038500 0.489600 0.682000
H936 H -0.022100 0.475700 0.708400
C937 C -0.020300 0.500600 0.547400
C938 C 0.028600 0.514700 0.539000
H939 H 0.048000 0.524200 0.565300
C940 C 0.049400 0.515100 0.493200
C941 C 0.099600 0.536500 0.488000
C942 C 0.138300 0.520300 0.517100
H943 H 0.134000 0.493400 0.537800
C944 C 0.183600 0.544600 0.514800
H945 H 0.209400 0.533400 0.534500
C946 C 0.155000 0.598000 0.456800
H947 H 0.160800 0.624100 0.435400
C948 C 0.108300 0.576300 0.457100
H949 H 0.083300 0.588200 0.437000
N950 N -0.191900 0.416600 0.514500
C951 C 0.104300 0.467000 0.349000
H952 H 0.133700 0.449700 0.343800
C953 C 0.086100 0.470100 0.395600
H954 H 0.103100 0.455600 0.421400
C955 C 0.041500 0.495500 0.403500
C956 C 0.016800 0.514300 0.363600
H957 H -0.014000 0.529400 0.367200
C958 C 0.038500 0.510400 0.318000
H959 H 0.022100 0.524300 0.291600
C960 C 0.020300 0.499400 0.452600
C961 C -0.028600 0.485300 0.461000
H962 H -0.048000 0.475800 0.434700
C963 C -0.049400 0.484900 0.506800
C964 C -0.099600 0.463500 0.512000
C965 C -0.138300 0.479700 0.482900
H966 H -0.134000 0.506600 0.462200
C967 C -0.183600 0.455400 0.485200
H968 H -0.209400 0.466600 0.465500
C969 C -0.155000 0.402000 0.543200
H970 H -0.160800 0.375900 0.564600
C971 C -0.108300 0.423700 0.542900
H972 H -0.083300 0.411800 0.563000
Cu973 Cu -0.250000 0.370850 0.500000
Cu974 Cu -0.120850 0.500000 0.750000
N975 N 0.918500 -0.012300 0.189700
N976 N 0.918500 0.012300 0.310300
N977 N 0.833400 -0.058100 0.264500
N978 N 1.081500 0.012300 0.810300
N979 N 0.808100 0.083400 1.014500
C980 C 1.104300 0.033000 0.849000
H981 H 1.133700 0.050300 0.843800
C982 C 1.086100 0.029900 0.895600
H983 H 1.103100 0.044400 0.921400
C984 C 1.041500 0.004500 0.903500
C985 C 1.016800 -0.014300 0.863600
H986 H 0.986000 -0.029400 0.867200
C987 C 1.038500 -0.010400 0.818000
H988 H 1.022100 -0.024300 0.791600
C989 C 1.020300 0.000600 0.952600
C990 C 0.971400 0.014700 0.961000
H991 H 0.952000 0.024200 0.934700
C992 C 0.950600 0.015100 1.006800
C993 C 0.900400 0.036500 1.012000
C994 C 0.861700 0.020300 0.982900
H995 H 0.866000 -0.006600 0.962200
C996 C 0.816400 0.044600 0.985200
H997 H 0.790600 0.033400 0.965500
C998 C 0.845000 0.098000 1.043200
H999 H 0.839200 0.124100 1.064600
C1000 C 0.891700 0.076300 1.042900
H1001 H 0.916700 0.088200 1.063000
N1002 N 0.918500 -0.012300 1.189700
N1003 N 1.191900 -0.083400 0.985500
C1004 C 0.895700 -0.033000 1.151000
H1005 H 0.866300 -0.050300 1.156200
C1006 C 0.913900 -0.029900 1.104400
H1007 H 0.896900 -0.044400 1.078600
C1008 C 0.958500 -0.004500 1.096500
C1009 C 0.983200 0.014300 1.136400
H1010 H 1.014000 0.029400 1.132800
C1011 C 0.961500 0.010400 1.182000
H1012 H 0.977900 0.024300 1.208400
C1013 C 0.979700 -0.000600 1.047400
C1014 C 1.028600 -0.014700 1.039000
H1015 H 1.048000 -0.024200 1.065300
C1016 C 1.049400 -0.015100 0.993200
C1017 C 1.099600 -0.036500 0.988000
C1018 C 1.138300 -0.020300 1.017100
H1019 H 1.134000 0.006600 1.037800
C1020 C 1.183600 -0.044600 1.014800
H1021 H 1.209400 -0.033400 1.034500
C1022 C 1.155000 -0.098000 0.956800
H1023 H 1.160800 -0.124100 0.935400
C1024 C 1.108300 -0.076300 0.957100
H1025 H 1.083300 -0.088200 0.937000
Cu1026 Cu 0.879150 0.000000 1.250000
Cu1027 Cu 1.250000 -0.129150 1.000000
Cu1028 Cu 1.120850 0.000000 0.750000
N1029 N 0.737700 0.168500 1.060300
N1030 N 0.691900 0.083400 0.985500
N1031 N 0.581500 -0.012300 0.810300
N1032 N 0.666600 -0.058100 0.735500
N1033 N -0.081500 0.487700 0.810300
N1034 N 0.191900 0.416600 1.014500
C1035 C -0.104300 0.467000 0.849000
H1036 H -0.133700 0.449700 0.843800
C1037 C -0.086100 0.470100 0.895600
H1038 H -0.103100 0.455600 0.921400
C1039 C -0.041500 0.495500 0.903500
C1040 C -0.016800 0.514300 0.863600
H1041 H 0.014000 0.529400 0.867200
C1042 C -0.038500 0.510400 0.818000
H1043 H -0.022100 0.524300 0.791600
C1044 C -0.020300 0.499400 0.952600
C1045 C 0.028600 0.485300 0.961000
H1046 H 0.048000 0.475800 0.934700
C1047 C 0.049400 0.484900 1.006800
C1048 C 0.099600 0.463500 1.012000
C1049 C 0.138300 0.479700 0.982900
H1050 H 0.134000 0.506600 0.962200
C1051 C 0.183600 0.455400 0.985200
H1052 H 0.209400 0.466600 0.965500
C1053 C 0.155000 0.402000 1.043200
H1054 H 0.160800 0.375900 1.064600
C1055 C 0.108300 0.423700 1.042900
H1056 H 0.083300 0.411800 1.063000
N1057 N 0.081500 0.512300 1.189700
N1058 N -0.191900 0.583400 0.985500
C1059 C 0.104300 0.533000 1.151000
H1060 H 0.133700 0.550300 1.156200
C1061 C 0.086100 0.529900 1.104400
H1062 H 0.103100 0.544400 1.078600
C1063 C 0.041500 0.504500 1.096500
C1064 C 0.016800 0.485700 1.136400
H1065 H -0.014000 0.470600 1.132800
C1066 C 0.038500 0.489600 1.182000
H1067 H 0.022100 0.475700 1.208400
C1068 C 0.020300 0.500600 1.047400
C1069 C -0.028600 0.514700 1.039000
H1070 H -0.048000 0.524200 1.065300
C1071 C -0.049400 0.515100 0.993200
C1072 C -0.099600 0.536500 0.988000
C1073 C -0.138300 0.520300 1.017100
H1074 H -0.134000 0.493400 1.037800
C1075 C -0.183600 0.544600 1.014800
H1076 H -0.209400 0.533400 1.034500
C1077 C -0.155000 0.598000 0.956800
H1078 H -0.160800 0.624100 0.935400
C1079 C -0.108300 0.576300 0.957100
H1080 H -0.083300 0.588200 0.937000
Cu1081 Cu 0.120850 0.500000 1.250000
Cu1082 Cu -0.250000 0.629150 1.000000
N1083 N 0.262300 0.331500 1.060300
N1084 N 0.918500 1.012300 0.310300
N1085 N 0.918500 0.987700 0.189700
N1086 N 0.833400 1.058100 0.235500
N1087 N 1.081500 0.987700 0.689700
C1088 C 1.104300 0.967000 0.651000
H1089 H 1.133700 0.949700 0.656200
C1090 C 1.086100 0.970100 0.604400
H1091 H 1.103100 0.955600 0.578600
C1092 C 1.041500 0.995500 0.596500
C1093 C 1.016800 1.014300 0.636400
H1094 H 0.986000 1.029400 0.632800
C1095 C 1.038500 1.010400 0.682000
H1096 H 1.022100 1.024300 0.708400
C1097 C 1.020300 0.999400 0.547400
C1098 C 0.971400 0.985300 0.539000
H1099 H 0.952000 0.975800 0.565300
C1100 C 0.950600 0.984900 0.493200
C1101 C 0.900400 0.963500 0.488000
C1102 C 0.861700 0.979700 0.517100
H1103 H 0.866000 1.006600 0.537800
C1104 C 0.816400 0.955400 0.514800
H1105 H 0.790600 0.966600 0.534500
C1106 C 0.845000 0.902000 0.456800
H1107 H 0.839200 0.875900 0.435400
C1108 C 0.891700 0.923700 0.457100
H1109 H 0.916700 0.911800 0.437000
N1110 N 1.191900 1.083400 0.514500
C1111 C 0.895700 1.033000 0.349000
H1112 H 0.866300 1.050300 0.343800
C1113 C 0.913900 1.029900 0.395600
H1114 H 0.896900 1.044400 0.421400
C1115 C 0.958500 1.004500 0.403500
C1116 C 0.983200 0.985700 0.363600
H1117 H 1.014000 0.970600 0.367200
C1118 C 0.961500 0.989600 0.318000
H1119 H 0.977900 0.975700 0.291600
C1120 C 0.979700 1.000600 0.452600
C1121 C 1.028600 1.014700 0.461000
H1122 H 1.048000 1.024200 0.434700
C1123 C 1.049400 1.015100 0.506800
C1124 C 1.099600 1.036500 0.512000
C1125 C 1.138300 1.020300 0.482900
H1126 H 1.134000 0.993400 0.462200
C1127 C 1.183600 1.044600 0.485200
H1128 H 1.209400 1.033400 0.465500
C1129 C 1.155000 1.098000 0.543200
H1130 H 1.160800 1.124100 0.564600
C1131 C 1.108300 1.076300 0.542900
H1132 H 1.083300 1.088200 0.563000
Cu1133 Cu 1.250000 1.129150 0.500000
Cu1134 Cu 1.120850 1.000000 0.750000
N1135 N 0.691900 0.083400 -0.014500
C1136 C 0.395700 0.033000 0.151000
H1137 H 0.366300 0.050300 0.156200
C1138 C 0.413900 0.029900 0.104400
H1139 H 0.396900 0.044400 0.078600
C1140 C 0.458500 0.004500 0.096500
C1141 C 0.483200 -0.014300 0.136400
H1142 H 0.514000 -0.029400 0.132800
C1143 C 0.461500 -0.010400 0.182000
H1144 H 0.477900 -0.024300 0.208400
C1145 C 0.479700 0.000600 0.047400
C1146 C 0.528600 0.014700 0.039000
H1147 H 0.548000 0.024200 0.065300
C1148 C 0.549400 0.015100 -0.006800
C1149 C 0.599600 0.036500 -0.012000
C1150 C 0.638300 0.020300 0.017100
H1151 H 0.634000 -0.006600 0.037800
C1152 C 0.683600 0.044600 0.014800
H1153 H 0.709400 0.033400 0.034500
C1154 C 0.655000 0.098000 -0.043200
H1155 H 0.660800 0.124100 -0.064600
C1156 C 0.608300 0.076300 -0.042900
H1157 H 0.583300 0.088200 -0.063000
N1158 N 0.581500 -0.012300 -0.189700
N1159 N 0.308100 -0.083400 0.014500
C1160 C 0.604300 -0.033000 -0.151000
H1161 H 0.633700 -0.050300 -0.156200
C1162 C 0.586100 -0.029900 -0.104400
H1163 H 0.603100 -0.044400 -0.078600
C1164 C 0.541500 -0.004500 -0.096500
C1165 C 0.516800 0.014300 -0.136400
H1166 H 0.486000 0.029400 -0.132800
C1167 C 0.538500 0.010400 -0.182000
H1168 H 0.522100 0.024300 -0.208400
C1169 C 0.520300 -0.000600 -0.047400
C1170 C 0.471400 -0.014700 -0.039000
H1171 H 0.452000 -0.024200 -0.065300
C1172 C 0.450600 -0.015100 0.006800
C1173 C 0.400400 -0.036500 0.012000
C1174 C 0.361700 -0.020300 -0.017100
H1175 H 0.366000 0.006600 -0.037800
C1176 C 0.316400 -0.044600 -0.014800
H1177 H 0.290600 -0.033400 -0.034500
C1178 C 0.345000 -0.098000 0.043200
H1179 H 0.339200 -0.124100 0.064600
C1180 C 0.391700 -0.076300 0.042900
H1181 H 0.416700 -0.088200 0.063000
Cu1182 Cu 0.620850 0.000000 -0.250000
Cu1183 Cu 0.250000 -0.129150 0.000000
N1184 N 0.762300 0.168500 -0.060300
N1185 N 0.808100 0.083400 0.014500
N1186 N 0.666600 1.058100 0.764500
C1187 C 0.710800 0.310800 1.006600
H1188 H 0.695500 0.280000 1.015700
H1189 H 0.713100 0.332000 1.034500
C1190 C 0.692000 0.367000 0.928000
H1191 H 0.722000 0.356500 0.913000
H1192 H 0.694800 0.400400 0.939100
H1193 H 0.664900 0.364500 0.905300
N1194 N 0.681000 0.335000 0.969500
H1195 H 0.659200 0.352000 0.986600
H1196 H 0.664300 0.309800 0.956500
C1197 C 0.939200 0.460800 0.256600
H1198 H 0.970000 0.445500 0.265700
H1199 H 0.918000 0.463100 0.284500
C1200 C 0.883000 0.442000 0.178000
H1201 H 0.893500 0.472000 0.163000
H1202 H 0.849600 0.444800 0.189100
H1203 H 0.885500 0.414900 0.155300
N1204 N 0.915000 0.431000 0.219500
H1205 H 0.898000 0.409200 0.236600
H1206 H 0.940200 0.414300 0.206500
C1207 C 0.289200 0.189200 1.006600
H1208 H 0.304500 0.220000 1.015700
H1209 H 0.286900 0.168000 1.034500
C1210 C 0.308000 0.133000 0.928000
H1211 H 0.278000 0.143500 0.913000
H1212 H 0.305200 0.099600 0.939100
H1213 H 0.335100 0.135500 0.905300
N1214 N 0.319000 0.165000 0.969500
H1215 H 0.340800 0.148000 0.986600
H1216 H 0.335700 0.190200 0.956500
C1217 C 0.560800 0.539200 0.756600
H1218 H 0.530000 0.554500 0.765700
H1219 H 0.582000 0.536900 0.784500
C1220 C 0.617000 0.558000 0.678000
H1221 H 0.606500 0.528000 0.663000
H1222 H 0.650400 0.555200 0.689100
H1223 H 0.614500 0.585100 0.655300
N1224 N 0.585000 0.569000 0.719500
H1225 H 0.602000 0.590800 0.736600
H1226 H 0.559800 0.585700 0.706500
C1227 C 0.710800 0.689200 0.493400
H1228 H 0.695500 0.720000 0.484300
H1229 H 0.713100 0.668000 0.465500
C1230 C 0.692000 0.633000 0.572000
H1231 H 0.722000 0.643500 0.587000
H1232 H 0.694800 0.599600 0.560900
H1233 H 0.664900 0.635500 0.594700
N1234 N 0.681000 0.665000 0.530500
H1235 H 0.659200 0.648000 0.513400
H1236 H 0.664300 0.690200 0.543500
C1237 C 0.789200 0.310800 -0.006600
H1238 H 0.804500 0.280000 -0.015700
H1239 H 0.786900 0.332000 -0.034500
C1240 C 0.808000 0.367000 0.072000
H1241 H 0.778000 0.356500 0.087000
H1242 H 0.805200 0.400400 0.060900
H1243 H 0.835100 0.364500 0.094700
N1244 N 0.819000 0.335000 0.030500
H1245 H 0.840800 0.352000 0.013400
H1246 H 0.835700 0.309800 0.043500
C1247 C 0.060800 0.960800 0.243400
H1248 H 0.030000 0.945500 0.234300
H1249 H 0.082000 0.963100 0.215500
C1250 C 0.117000 0.942000 0.322000
H1251 H 0.106500 0.972000 0.337000
H1252 H 0.150400 0.944800 0.310900
H1253 H 0.114500 0.914900 0.344700
N1254 N 0.085000 0.931000 0.280500
H1255 H 0.102000 0.909200 0.263400
H1256 H 0.059800 0.914300 0.293500
C1257 C 0.939200 0.539200 0.243400
H1258 H 0.970000 0.554500 0.234300
H1259 H 0.918000 0.536900 0.215500
C1260 C 0.883000 0.558000 0.322000
H1261 H 0.893500 0.528000 0.337000
H1262 H 0.849600 0.555200 0.310900
H1263 H 0.885500 0.585100 0.344700
N1264 N 0.915000 0.569000 0.280500
H1265 H 0.898000 0.590800 0.263400
H1266 H 0.940200 0.585700 0.293500
C1267 C 0.210800 0.810800 0.506600
H1268 H 0.195500 0.780000 0.515700
H1269 H 0.213100 0.832000 0.534500
C1270 C 0.192000 0.867000 0.428000
H1271 H 0.222000 0.856500 0.413000
H1272 H 0.194800 0.900400 0.439100
H1273 H 0.164900 0.864500 0.405300
N1274 N 0.181000 0.835000 0.469500
H1275 H 0.159200 0.852000 0.486600
H1276 H 0.164300 0.809800 0.456500
C1277 C 0.439200 0.960800 0.756600
H1278 H 0.470000 0.945500 0.765700
H1279 H 0.418000 0.963100 0.784500
C1280 C 0.383000 0.942000 0.678000
H1281 H 0.393500 0.972000 0.663000
H1282 H 0.349600 0.944800 0.689100
H1283 H 0.385500 0.914900 0.655300
N1284 N 0.415000 0.931000 0.719500
H1285 H 0.398000 0.909200 0.736600
H1286 H 0.440200 0.914300 0.706500
C1287 C 0.789200 0.689200 0.506600
H1288 H 0.804500 0.720000 0.515700
H1289 H 0.786900 0.668000 0.534500
C1290 C 0.808000 0.633000 0.428000
H1291 H 0.778000 0.643500 0.413000
H1292 H 0.805200 0.599600 0.439100
H1293 H 0.835100 0.635500 0.405300
N1294 N 0.819000 0.665000 0.469500
H1295 H 0.840800 0.648000 0.486600
H1296 H 0.835700 0.690200 0.456500
C1297 C 0.060800 0.039200 0.256600
H1298 H 0.030000 0.054500 0.265700
H1299 H 0.082000 0.036900 0.284500
C1300 C 0.117000 0.058000 0.178000
H1301 H 0.106500 0.028000 0.163000
H1302 H 0.150400 0.055200 0.189100
H1303 H 0.114500 0.085100 0.155300
N1304 N 0.085000 0.069000 0.219500
H1305 H 0.102000 0.090800 0.236600
H1306 H 0.059800 0.085700 0.206500
C1307 C 0.210800 0.189200 -0.006600
H1308 H 0.195500 0.220000 -0.015700
H1309 H 0.213100 0.168000 -0.034500
C1310 C 0.192000 0.133000 0.072000
H1311 H 0.222000 0.143500 0.087000
H1312 H 0.194800 0.099600 0.060900
H1313 H 0.164900 0.135500 0.094700
N1314 N 0.181000 0.165000 0.030500
H1315 H 0.159200 0.148000 0.013400
H1316 H 0.164300 0.190200 0.043500
C1317 C 0.289200 0.810800 0.493400
H1318 H 0.304500 0.780000 0.484300
H1319 H 0.286900 0.832000 0.465500
C1320 C 0.308000 0.867000 0.572000
H1321 H 0.278000 0.856500 0.587000
H1322 H 0.305200 0.900400 0.560900
H1323 H 0.335100 0.864500 0.594700
N1324 N 0.319000 0.835000 0.530500
H1325 H 0.340800 0.852000 0.513400
H1326 H 0.335700 0.809800 0.543500
C1327 C 0.560800 0.460800 0.743400
H1328 H 0.530000 0.445500 0.734300
H1329 H 0.582000 0.463100 0.715500
C1330 C 0.617000 0.442000 0.822000
H1331 H 0.606500 0.472000 0.837000
H1332 H 0.650400 0.444800 0.810900
H1333 H 0.614500 0.414900 0.844700
N1334 N 0.585000 0.431000 0.780500
H1335 H 0.602000 0.409200 0.763400
H1336 H 0.559800 0.414300 0.793500
C1337 C 0.439200 0.039200 0.743400
H1338 H 0.470000 0.054500 0.734300
H1339 H 0.418000 0.036900 0.715500
C1340 C 0.383000 0.058000 0.822000
H1341 H 0.393500 0.028000 0.837000
H1342 H 0.349600 0.055200 0.810900
H1343 H 0.385500 0.085100 0.844700
N1344 N 0.415000 0.069000 0.780500
H1345 H 0.398000 0.090800 0.763400
H1346 H 0.440200 0.085700 0.793500
C1347 C 0.289200 0.689200 -0.006600
H1348 H 0.304500 0.720000 -0.015700
H1349 H 0.286900 0.668000 -0.034500
C1350 C 0.308000 0.633000 0.072000
H1351 H 0.278000 0.643500 0.087000
H1352 H 0.305200 0.599600 0.060900
H1353 H 0.335100 0.635500 0.094700
N1354 N 0.319000 0.665000 0.030500
H1355 H 0.340800 0.648000 0.013400
H1356 H 0.335700 0.690200 0.043500
C1357 C 0.060800 0.539200 0.743400
H1358 H 0.030000 0.554500 0.734300
H1359 H 0.082000 0.536900 0.715500
C1360 C 0.117000 0.558000 0.822000
H1361 H 0.106500 0.528000 0.837000
H1362 H 0.150400 0.555200 0.810900
H1363 H 0.114500 0.585100 0.844700
N1364 N 0.085000 0.569000 0.780500
H1365 H 0.102000 0.590800 0.763400
H1366 H 0.059800 0.585700 0.793500
C1367 C 0.710800 0.810800 -0.006600
H1368 H 0.695500 0.780000 -0.015700
H1369 H 0.713100 0.832000 -0.034500
C1370 C 0.692000 0.867000 0.072000
H1371 H 0.722000 0.856500 0.087000
H1372 H 0.694800 0.900400 0.060900
H1373 H 0.664900 0.864500 0.094700
N1374 N 0.681000 0.835000 0.030500
H1375 H 0.659200 0.852000 0.013400
H1376 H 0.664300 0.809800 0.043500
C1377 C 0.439200 0.460800 0.243400
H1378 H 0.470000 0.445500 0.234300
H1379 H 0.418000 0.463100 0.215500
C1380 C 0.383000 0.442000 0.322000
H1381 H 0.393500 0.472000 0.337000
H1382 H 0.349600 0.444800 0.310900
H1383 H 0.385500 0.414900 0.344700
N1384 N 0.415000 0.431000 0.280500
H1385 H 0.398000 0.409200 0.263400
H1386 H 0.440200 0.414300 0.293500
C1387 C 0.289200 0.310800 0.506600
H1388 H 0.304500 0.280000 0.515700
H1389 H 0.286900 0.332000 0.534500
C1390 C 0.308000 0.367000 0.428000
H1391 H 0.278000 0.356500 0.413000
H1392 H 0.305200 0.400400 0.439100
H1393 H 0.335100 0.364500 0.405300
N1394 N 0.319000 0.335000 0.469500
H1395 H 0.340800 0.352000 0.486600
H1396 H 0.335700 0.309800 0.456500
C1397 C 0.210800 0.689200 1.006600
H1398 H 0.195500 0.720000 1.015700
H1399 H 0.213100 0.668000 1.034500
C1400 C 0.192000 0.633000 0.928000
H1401 H 0.222000 0.643500 0.913000
H1402 H 0.194800 0.599600 0.939100
H1403 H 0.164900 0.635500 0.905300
N1404 N 0.181000 0.665000 0.969500
H1405 H 0.159200 0.648000 0.986600
H1406 H 0.164300 0.690200 0.956500
C1407 C 0.939200 0.039200 0.756600
H1408 H 0.970000 0.054500 0.765700
H1409 H 0.918000 0.036900 0.784500
C1410 C 0.883000 0.058000 0.678000
H1411 H 0.893500 0.028000 0.663000
H1412 H 0.849600 0.055200 0.689100
H1413 H 0.885500 0.085100 0.655300
N1414 N 0.915000 0.069000 0.719500
H1415 H 0.898000 0.090800 0.736600
H1416 H 0.940200 0.085700 0.706500
C1417 C 0.060800 0.460800 0.756600
H1418 H 0.030000 0.445500 0.765700
H1419 H 0.082000 0.463100 0.784500
C1420 C 0.117000 0.442000 0.678000
H1421 H 0.106500 0.472000 0.663000
H1422 H 0.150400 0.444800 0.689100
H1423 H 0.114500 0.414900 0.655300
N1424 N 0.085000 0.431000 0.719500
H1425 H 0.102000 0.409200 0.736600
H1426 H 0.059800 0.414300 0.706500
C1427 C 0.789200 0.189200 0.493400
H1428 H 0.804500 0.220000 0.484300
H1429 H 0.786900 0.168000 0.465500
C1430 C 0.808000 0.133000 0.572000
H1431 H 0.778000 0.143500 0.587000
H1432 H 0.805200 0.099600 0.560900
H1433 H 0.835100 0.135500 0.594700
N1434 N 0.819000 0.165000 0.530500
H1435 H 0.840800 0.148000 0.513400
H1436 H 0.835700 0.190200 0.543500
C1437 C 0.560800 0.039200 0.243400
H1438 H 0.530000 0.054500 0.234300
H1439 H 0.582000 0.036900 0.215500
C1440 C 0.617000 0.058000 0.322000
H1441 H 0.606500 0.028000 0.337000
H1442 H 0.650400 0.055200 0.310900
H1443 H 0.614500 0.085100 0.344700
N1444 N 0.585000 0.069000 0.280500
H1445 H 0.602000 0.090800 0.263400
H1446 H 0.559800 0.085700 0.293500
C1447 C 0.210800 0.310800 0.493400
H1448 H 0.195500 0.280000 0.484300
H1449 H 0.213100 0.332000 0.465500
C1450 C 0.192000 0.367000 0.572000
H1451 H 0.222000 0.356500 0.587000
H1452 H 0.194800 0.400400 0.560900
H1453 H 0.164900 0.364500 0.594700
N1454 N 0.181000 0.335000 0.530500
H1455 H 0.159200 0.352000 0.513400
H1456 H 0.164300 0.309800 0.543500
C1457 C 0.939200 0.960800 0.743400
H1458 H 0.970000 0.945500 0.734300
H1459 H 0.918000 0.963100 0.715500
C1460 C 0.883000 0.942000 0.822000
H1461 H 0.893500 0.972000 0.837000
H1462 H 0.849600 0.944800 0.810900
H1463 H 0.885500 0.914900 0.844700
N1464 N 0.915000 0.931000 0.780500
H1465 H 0.898000 0.909200 0.763400
H1466 H 0.940200 0.914300 0.793500
C1467 C 0.789200 0.810800 1.006600
H1468 H 0.804500 0.780000 1.015700
H1469 H 0.786900 0.832000 1.034500
C1470 C 0.808000 0.867000 0.928000
H1471 H 0.778000 0.856500 0.913000
H1472 H 0.805200 0.900400 0.939100
H1473 H 0.835100 0.864500 0.905300
N1474 N 0.819000 0.835000 0.969500
H1475 H 0.840800 0.852000 0.986600
H1476 H 0.835700 0.809800 0.956500
C1477 C 0.710800 0.189200 0.506600
H1478 H 0.695500 0.220000 0.515700
H1479 H 0.713100 0.168000 0.534500
C1480 C 0.692000 0.133000 0.428000
H1481 H 0.722000 0.143500 0.413000
H1482 H 0.694800 0.099600 0.439100
H1483 H 0.664900 0.135500 0.405300
N1484 N 0.681000 0.165000 0.469500
H1485 H 0.659200 0.148000 0.486600
H1486 H 0.664300 0.190200 0.456500
C1487 C 0.439200 0.539200 0.256600
H1488 H 0.470000 0.554500 0.265700
H1489 H 0.418000 0.536900 0.284500
C1490 C 0.383000 0.558000 0.178000
H1491 H 0.393500 0.528000 0.163000
H1492 H 0.349600 0.555200 0.189100
H1493 H 0.385500 0.585100 0.155300
N1494 N 0.415000 0.569000 0.219500
H1495 H 0.398000 0.590800 0.236600
H1496 H 0.440200 0.585700 0.206500
C1497 C 0.560800 0.960800 0.256600
H1498 H 0.530000 0.945500 0.265700
H1499 H 0.582000 0.963100 0.284500
C1500 C 0.617000 0.942000 0.178000
H1501 H 0.606500 0.972000 0.163000
H1502 H 0.650400 0.944800 0.189100
H1503 H 0.614500 0.914900 0.155300
N1504 N 0.585000 0.931000 0.219500
H1505 H 0.602000 0.909200 0.236600
H1506 H 0.559800 0.914300 0.206500
W1507 W 0.591430 0.269730 0.533470
W1508 W 0.613030 0.182200 0.622110
W1509 W 0.589790 0.275570 0.716600
P1510 P 0.500000 0.250000 0.625000
O1511 O 0.665900 0.149900 0.631000
O1512 O 0.582900 0.143800 0.571400
O1513 O 0.568300 0.153200 0.667000
O1514 O 0.633500 0.227400 0.571300
O1515 O 0.631300 0.289500 0.490000
O1516 O 0.531200 0.302000 0.516900
O1517 O 0.540290 0.225620 0.592300
O1518 O 0.617700 0.235400 0.666900
O1519 O 0.634500 0.276900 0.759800
O1520 O 0.539800 0.315900 0.746400
O1521 O 0.459710 0.274380 0.592300
O1522 O 0.524380 0.290290 0.657700
O1523 O 0.475620 0.209710 0.657700
W1524 W 0.408570 0.230270 0.533470
W1525 W 0.386970 0.317800 0.622110
W1526 W 0.410210 0.224430 0.716600
O1527 O 0.334100 0.350100 0.631000
O1528 O 0.417100 0.356200 0.571400
O1529 O 0.431700 0.346800 0.667000
O1530 O 0.366500 0.272600 0.571300
O1531 O 0.368700 0.210500 0.490000
O1532 O 0.468800 0.198000 0.516900
O1533 O 0.382300 0.264600 0.666900
O1534 O 0.365500 0.223100 0.759800
O1535 O 0.460200 0.184100 0.746400
W1536 W 0.480270 0.341430 0.716530
W1537 W 0.567800 0.363030 0.627890
W1538 W 0.474430 0.339790 0.533400
O1539 O 0.600100 0.415900 0.619000
O1540 O 0.606200 0.332900 0.678600
O1541 O 0.596800 0.318300 0.583000
O1542 O 0.522600 0.383500 0.678700
O1543 O 0.460500 0.381300 0.760000
O1544 O 0.448000 0.281200 0.733100
O1545 O 0.514600 0.367700 0.583100
O1546 O 0.473100 0.384500 0.490200
O1547 O 0.434100 0.289800 0.503600
W1548 W 0.519730 0.158570 0.716530
W1549 W 0.432200 0.136970 0.627890
W1550 W 0.525570 0.160210 0.533400
O1551 O 0.399900 0.084100 0.619000
O1552 O 0.393800 0.167100 0.678600
O1553 O 0.403200 0.181700 0.583000
O1554 O 0.477400 0.116500 0.678700
O1555 O 0.539500 0.118700 0.760000
O1556 O 0.552000 0.218800 0.733100
O1557 O 0.485400 0.132300 0.583100
O1558 O 0.526900 0.115500 0.490200
O1559 O 0.565900 0.210200 0.503600
W1560 W -0.019730 0.341430 0.783470
W1561 W 0.067800 0.363030 0.872110
W1562 W -0.025570 0.339790 0.966600
P1563 P 0.000000 0.250000 0.875000
O1564 O 0.100100 0.415900 0.881000
O1565 O 0.106200 0.332900 0.821400
O1566 O 0.096800 0.318300 0.917000
O1567 O 0.022600 0.383500 0.821300
O1568 O -0.039500 0.381300 0.740000
O1569 O -0.052000 0.281200 0.766900
O1570 O 0.024380 0.290290 0.842300
O1571 O 0.014600 0.367700 0.916900
O1572 O -0.026900 0.384500 1.009800
O1573 O -0.065900 0.289800 0.996400
O1574 O -0.024380 0.209710 0.842300
O1575 O -0.040290 0.274380 0.907700
O1576 O 0.040290 0.225620 0.907700
W1577 W 0.019730 0.158570 0.783470
W1578 W -0.067800 0.136970 0.872110
W1579 W 0.025570 0.160210 0.966600
O1580 O -0.100100 0.084100 0.881000
O1581 O -0.106200 0.167100 0.821400
O1582 O -0.096800 0.181700 0.917000
O1583 O -0.022600 0.116500 0.821300
O1584 O 0.039500 0.118700 0.740000
O1585 O 0.052000 0.218800 0.766900
O1586 O -0.014600 0.132300 0.916900
O1587 O 0.026900 0.115500 1.009800
O1588 O 0.065900 0.210200 0.996400
W1589 W -0.091430 0.230270 0.966530
W1590 W -0.113030 0.317800 0.877890
W1591 W -0.089790 0.224430 0.783400
O1592 O -0.165900 0.350100 0.869000
O1593 O -0.082900 0.356200 0.928600
O1594 O -0.068300 0.346800 0.833000
O1595 O -0.133500 0.272600 0.928700
O1596 O -0.131300 0.210500 1.010000
O1597 O -0.031200 0.198000 0.983100
O1598 O -0.117700 0.264600 0.833100
O1599 O -0.134500 0.223100 0.740200
O1600 O -0.039800 0.184100 0.753600
W1601 W 0.091430 0.269730 0.966530
W1602 W 0.113030 0.182200 0.877890
W1603 W 0.089790 0.275570 0.783400
O1604 O 0.165900 0.149900 0.869000
O1605 O 0.082900 0.143800 0.928600
O1606 O 0.068300 0.153200 0.833000
O1607 O 0.133500 0.227400 0.928700
O1608 O 0.131300 0.289500 1.010000
O1609 O 0.031200 0.302000 0.983100
O1610 O 0.117700 0.235400 0.833100
O1611 O 0.134500 0.276900 0.740200
O1612 O 0.039800 0.315900 0.753600
W1613 W 0.980270 0.341430 0.783470
W1614 W 1.067800 0.363030 0.872110
W1615 W 0.974430 0.339790 0.966600
P1616 P 1.000000 0.250000 0.875000
O1617 O 1.100100 0.415900 0.881000
O1618 O 1.106200 0.332900 0.821400
O1619 O 1.096800 0.318300 0.917000
O1620 O 1.022600 0.383500 0.821300
O1621 O 0.960500 0.381300 0.740000
O1622 O 0.948000 0.281200 0.766900
O1623 O 1.024380 0.290290 0.842300
O1624 O 1.014600 0.367700 0.916900
O1625 O 0.973100 0.384500 1.009800
O1626 O 0.934100 0.289800 0.996400
O1627 O 0.975620 0.209710 0.842300
O1628 O 0.959710 0.274380 0.907700
O1629 O 1.040290 0.225620 0.907700
W1630 W 1.019730 0.158570 0.783470
W1631 W 0.932200 0.136970 0.872110
W1632 W 1.025570 0.160210 0.966600
O1633 O 0.899900 0.084100 0.881000
O1634 O 0.893800 0.167100 0.821400
O1635 O 0.903200 0.181700 0.917000
O1636 O 0.977400 0.116500 0.821300
O1637 O 1.039500 0.118700 0.740000
O1638 O 1.052000 0.218800 0.766900
O1639 O 0.985400 0.132300 0.916900
O1640 O 1.026900 0.115500 1.009800
O1641 O 1.065900 0.210200 0.996400
W1642 W 0.908570 0.230270 0.966530
W1643 W 0.886970 0.317800 0.877890
W1644 W 0.910210 0.224430 0.783400
O1645 O 0.834100 0.350100 0.869000
O1646 O 0.917100 0.356200 0.928600
O1647 O 0.931700 0.346800 0.833000
O1648 O 0.866500 0.272600 0.928700
O1649 O 0.868700 0.210500 1.010000
O1650 O 0.968800 0.198000 0.983100
O1651 O 0.882300 0.264600 0.833100
O1652 O 0.865500 0.223100 0.740200
O1653 O 0.960200 0.184100 0.753600
W1654 W 1.091430 0.269730 0.966530
W1655 W 1.113030 0.182200 0.877890
W1656 W 1.089790 0.275570 0.783400
O1657 O 1.165900 0.149900 0.869000
O1658 O 1.082900 0.143800 0.928600
O1659 O 1.068300 0.153200 0.833000
O1660 O 1.133500 0.227400 0.928700
O1661 O 1.131300 0.289500 1.010000
O1662 O 1.031200 0.302000 0.983100
O1663 O 1.117700 0.235400 0.833100
O1664 O 1.134500 0.276900 0.740200
O1665 O 1.039800 0.315900 0.753600
W1666 W 0.519730 0.658570 0.283470
W1667 W 0.432200 0.636970 0.372110
W1668 W 0.525570 0.660210 0.466600
P1669 P 0.500000 0.750000 0.375000
O1670 O 0.399900 0.584100 0.381000
O1671 O 0.393800 0.667100 0.321400
O1672 O 0.403200 0.681700 0.417000
O1673 O 0.477400 0.616500 0.321300
O1674 O 0.539500 0.618700 0.240000
O1675 O 0.552000 0.718800 0.266900
O1676 O 0.475620 0.709710 0.342300
O1677 O 0.485400 0.632300 0.416900
O1678 O 0.526900 0.615500 0.509800
O1679 O 0.565900 0.710200 0.496400
O1680 O 0.524380 0.790290 0.342300
O1681 O 0.540290 0.725620 0.407700
O1682 O 0.459710 0.774380 0.407700
W1683 W 0.480270 0.841430 0.283470
W1684 W 0.567800 0.863030 0.372110
W1685 W 0.474430 0.839790 0.466600
O1686 O 0.600100 0.915900 0.381000
O1687 O 0.606200 0.832900 0.321400
O1688 O 0.596800 0.818300 0.417000
O1689 O 0.522600 0.883500 0.321300
O1690 O 0.460500 0.881300 0.240000
O1691 O 0.448000 0.781200 0.266900
O1692 O 0.514600 0.867700 0.416900
O1693 O 0.473100 0.884500 0.509800
O1694 O 0.434100 0.789800 0.496400
W1695 W 0.591430 0.769730 0.466530
W1696 W 0.613030 0.682200 0.377890
W1697 W 0.589790 0.775570 0.283400
O1698 O 0.665900 0.649900 0.369000
O1699 O 0.582900 0.643800 0.428600
O1700 O 0.568300 0.653200 0.333000
O1701 O 0.633500 0.727400 0.428700
O1702 O 0.631300 0.789500 0.510000
O1703 O 0.531200 0.802000 0.483100
O1704 O 0.617700 0.735400 0.333100
O1705 O 0.634500 0.776900 0.240200
O1706 O 0.539800 0.815900 0.253600
W1707 W 0.408570 0.730270 0.466530
W1708 W 0.386970 0.817800 0.377890
W1709 W 0.410210 0.724430 0.283400
O1710 O 0.334100 0.850100 0.369000
O1711 O 0.417100 0.856200 0.428600
O1712 O 0.431700 0.846800 0.333000
O1713 O 0.366500 0.772600 0.428700
O1714 O 0.368700 0.710500 0.510000
O1715 O 0.468800 0.698000 0.483100
O1716 O 0.382300 0.764600 0.333100
O1717 O 0.365500 0.723100 0.240200
O1718 O 0.460200 0.684100 0.253600
W1719 W 0.591430 0.730270 0.966530
W1720 W 0.613030 0.817800 0.877890
W1721 W 0.589790 0.724430 0.783400
P1722 P 0.500000 0.750000 0.875000
O1723 O 0.665900 0.850100 0.869000
O1724 O 0.582900 0.856200 0.928600
O1725 O 0.568300 0.846800 0.833000
O1726 O 0.633500 0.772600 0.928700
O1727 O 0.631300 0.710500 1.010000
O1728 O 0.531200 0.698000 0.983100
O1729 O 0.540290 0.774380 0.907700
O1730 O 0.617700 0.764600 0.833100
O1731 O 0.634500 0.723100 0.740200
O1732 O 0.539800 0.684100 0.753600
O1733 O 0.459710 0.725620 0.907700
O1734 O 0.524380 0.709710 0.842300
O1735 O 0.475620 0.790290 0.842300
W1736 W 0.408570 0.769730 0.966530
W1737 W 0.386970 0.682200 0.877890
W1738 W 0.410210 0.775570 0.783400
O1739 O 0.334100 0.649900 0.869000
O1740 O 0.417100 0.643800 0.928600
O1741 O 0.431700 0.653200 0.833000
O1742 O 0.366500 0.727400 0.928700
O1743 O 0.368700 0.789500 1.010000
O1744 O 0.468800 0.802000 0.983100
O1745 O 0.382300 0.735400 0.833100
O1746 O 0.365500 0.776900 0.740200
O1747 O 0.460200 0.815900 0.753600
W1748 W 0.480270 0.658570 0.783470
W1749 W 0.567800 0.636970 0.872110
W1750 W 0.474430 0.660210 0.966600
O1751 O 0.600100 0.584100 0.881000
O1752 O 0.606200 0.667100 0.821400
O1753 O 0.596800 0.681700 0.917000
O1754 O 0.522600 0.616500 0.821300
O1755 O 0.460500 0.618700 0.740000
O1756 O 0.448000 0.718800 0.766900
O1757 O 0.514600 0.632300 0.916900
O1758 O 0.473100 0.615500 1.009800
O1759 O 0.434100 0.710200 0.996400
W1760 W 0.519730 0.841430 0.783470
W1761 W 0.432200 0.863030 0.872110
W1762 W 0.525570 0.839790 0.966600
O1763 O 0.399900 0.915900 0.881000
O1764 O 0.393800 0.832900 0.821400
O1765 O 0.403200 0.818300 0.917000
O1766 O 0.477400 0.883500 0.821300
O1767 O 0.539500 0.881300 0.740000
O1768 O 0.552000 0.781200 0.766900
O1769 O 0.485400 0.867700 0.916900
O1770 O 0.526900 0.884500 1.009800
O1771 O 0.565900 0.789800 0.996400
W1772 W -0.091430 0.269730 0.466530
W1773 W -0.113030 0.182200 0.377890
W1774 W -0.089790 0.275570 0.283400
P1775 P 0.000000 0.250000 0.375000
O1776 O -0.165900 0.149900 0.369000
O1777 O -0.082900 0.143800 0.428600
O1778 O -0.068300 0.153200 0.333000
O1779 O -0.133500 0.227400 0.428700
O1780 O -0.131300 0.289500 0.510000
O1781 O -0.031200 0.302000 0.483100
O1782 O -0.040290 0.225620 0.407700
O1783 O -0.117700 0.235400 0.333100
O1784 O -0.134500 0.276900 0.240200
O1785 O -0.039800 0.315900 0.253600
O1786 O 0.040290 0.274380 0.407700
O1787 O -0.024380 0.290290 0.342300
O1788 O 0.024380 0.209710 0.342300
W1789 W 0.091430 0.230270 0.466530
W1790 W 0.113030 0.317800 0.377890
W1791 W 0.089790 0.224430 0.283400
O1792 O 0.165900 0.350100 0.369000
O1793 O 0.082900 0.356200 0.428600
O1794 O 0.068300 0.346800 0.333000
O1795 O 0.133500 0.272600 0.428700
O1796 O 0.131300 0.210500 0.510000
O1797 O 0.031200 0.198000 0.483100
O1798 O 0.117700 0.264600 0.333100
O1799 O 0.134500 0.223100 0.240200
O1800 O 0.039800 0.184100 0.253600
W1801 W 0.019730 0.341430 0.283470
W1802 W -0.067800 0.363030 0.372110
W1803 W 0.025570 0.339790 0.466600
O1804 O -0.100100 0.415900 0.381000
O1805 O -0.106200 0.332900 0.321400
O1806 O -0.096800 0.318300 0.417000
O1807 O -0.022600 0.383500 0.321300
O1808 O 0.039500 0.381300 0.240000
O1809 O 0.052000 0.281200 0.266900
O1810 O -0.014600 0.367700 0.416900
O1811 O 0.026900 0.384500 0.509800
O1812 O 0.065900 0.289800 0.496400
W1813 W -0.019730 0.158570 0.283470
W1814 W 0.067800 0.136970 0.372110
W1815 W -0.025570 0.160210 0.466600
O1816 O 0.100100 0.084100 0.381000
O1817 O 0.106200 0.167100 0.321400
O1818 O 0.096800 0.181700 0.417000
O1819 O 0.022600 0.116500 0.321300
O1820 O -0.039500 0.118700 0.240000
O1821 O -0.052000 0.218800 0.266900
O1822 O 0.014600 0.132300 0.416900
O1823 O -0.026900 0.115500 0.509800
O1824 O -0.065900 0.210200 0.496400
W1825 W 0.908570 0.269730 0.466530
W1826 W 0.886970 0.182200 0.377890
W1827 W 0.910210 0.275570 0.283400
P1828 P 1.000000 0.250000 0.375000
O1829 O 0.834100 0.149900 0.369000
O1830 O 0.917100 0.143800 0.428600
O1831 O 0.931700 0.153200 0.333000
O1832 O 0.866500 0.227400 0.428700
O1833 O 0.868700 0.289500 0.510000
O1834 O 0.968800 0.302000 0.483100
O1835 O 0.959710 0.225620 0.407700
O1836 O 0.882300 0.235400 0.333100
O1837 O 0.865500 0.276900 0.240200
O1838 O 0.960200 0.315900 0.253600
O1839 O 1.040290 0.274380 0.407700
O1840 O 0.975620 0.290290 0.342300
O1841 O 1.024380 0.209710 0.342300
W1842 W 1.091430 0.230270 0.466530
W1843 W 1.113030 0.317800 0.377890
W1844 W 1.089790 0.224430 0.283400
O1845 O 1.165900 0.350100 0.369000
O1846 O 1.082900 0.356200 0.428600
O1847 O 1.068300 0.346800 0.333000
O1848 O 1.133500 0.272600 0.428700
O1849 O 1.131300 0.210500 0.510000
O1850 O 1.031200 0.198000 0.483100
O1851 O 1.117700 0.264600 0.333100
O1852 O 1.134500 0.223100 0.240200
O1853 O 1.039800 0.184100 0.253600
W1854 W 1.019730 0.341430 0.283470
W1855 W 0.932200 0.363030 0.372110
W1856 W 1.025570 0.339790 0.466600
O1857 O 0.899900 0.415900 0.381000
O1858 O 0.893800 0.332900 0.321400
O1859 O 0.903200 0.318300 0.417000
O1860 O 0.977400 0.383500 0.321300
O1861 O 1.039500 0.381300 0.240000
O1862 O 1.052000 0.281200 0.266900
O1863 O 0.985400 0.367700 0.416900
O1864 O 1.026900 0.384500 0.509800
O1865 O 1.065900 0.289800 0.496400
W1866 W 0.980270 0.158570 0.283470
W1867 W 1.067800 0.136970 0.372110
W1868 W 0.974430 0.160210 0.466600
O1869 O 1.100100 0.084100 0.381000
O1870 O 1.106200 0.167100 0.321400
O1871 O 1.096800 0.181700 0.417000
O1872 O 1.022600 0.116500 0.321300
O1873 O 0.960500 0.118700 0.240000
O1874 O 0.948000 0.218800 0.266900
O1875 O 1.014600 0.132300 0.416900
O1876 O 0.973100 0.115500 0.509800
O1877 O 0.934100 0.210200 0.496400
W1878 W 0.019730 0.841430 0.716530
W1879 W -0.067800 0.863030 0.627890
W1880 W 0.025570 0.839790 0.533400
P1881 P 0.000000 0.750000 0.625000
O1882 O -0.100100 0.915900 0.619000
O1883 O -0.106200 0.832900 0.678600
O1884 O -0.096800 0.818300 0.583000
O1885 O -0.022600 0.883500 0.678700
O1886 O 0.039500 0.881300 0.760000
O1887 O 0.052000 0.781200 0.733100
O1888 O -0.024380 0.790290 0.657700
O1889 O -0.014600 0.867700 0.583100
O1890 O 0.026900 0.884500 0.490200
O1891 O 0.065900 0.789800 0.503600
O1892 O 0.024380 0.709710 0.657700
O1893 O 0.040290 0.774380 0.592300
O1894 O -0.040290 0.725620 0.592300
W1895 W -0.019730 0.658570 0.716530
W1896 W 0.067800 0.636970 0.627890
W1897 W -0.025570 0.660210 0.533400
O1898 O 0.100100 0.584100 0.619000
O1899 O 0.106200 0.667100 0.678600
O1900 O 0.096800 0.681700 0.583000
O1901 O 0.022600 0.616500 0.678700
O1902 O -0.039500 0.618700 0.760000
O1903 O -0.052000 0.718800 0.733100
O1904 O 0.014600 0.632300 0.583100
O1905 O -0.026900 0.615500 0.490200
O1906 O -0.065900 0.710200 0.503600
W1907 W 0.091430 0.730270 0.533470
W1908 W 0.113030 0.817800 0.622110
W1909 W 0.089790 0.724430 0.716600
O1910 O 0.165900 0.850100 0.631000
O1911 O 0.082900 0.856200 0.571400
O1912 O 0.068300 0.846800 0.667000
O1913 O 0.133500 0.772600 0.571300
O1914 O 0.131300 0.710500 0.490000
O1915 O 0.031200 0.698000 0.516900
O1916 O 0.117700 0.764600 0.666900
O1917 O 0.134500 0.723100 0.759800
O1918 O 0.039800 0.684100 0.746400
W1919 W -0.091430 0.769730 0.533470
W1920 W -0.113030 0.682200 0.622110
W1921 W -0.089790 0.775570 0.716600
O1922 O -0.165900 0.649900 0.631000
O1923 O -0.082900 0.643800 0.571400
O1924 O -0.068300 0.653200 0.667000
O1925 O -0.133500 0.727400 0.571300
O1926 O -0.131300 0.789500 0.490000
O1927 O -0.031200 0.802000 0.516900
O1928 O -0.117700 0.735400 0.666900
O1929 O -0.134500 0.776900 0.759800
O1930 O -0.039800 0.815900 0.746400
W1931 W 1.019730 0.841430 0.716530
W1932 W 0.932200 0.863030 0.627890
W1933 W 1.025570 0.839790 0.533400
P1934 P 1.000000 0.750000 0.625000
O1935 O 0.899900 0.915900 0.619000
O1936 O 0.893800 0.832900 0.678600
O1937 O 0.903200 0.818300 0.583000
O1938 O 0.977400 0.883500 0.678700
O1939 O 1.039500 0.881300 0.760000
O1940 O 1.052000 0.781200 0.733100
O1941 O 0.975620 0.790290 0.657700
O1942 O 0.985400 0.867700 0.583100
O1943 O 1.026900 0.884500 0.490200
O1944 O 1.065900 0.789800 0.503600
O1945 O 1.024380 0.709710 0.657700
O1946 O 1.040290 0.774380 0.592300
O1947 O 0.959710 0.725620 0.592300
W1948 W 0.980270 0.658570 0.716530
W1949 W 1.067800 0.636970 0.627890
W1950 W 0.974430 0.660210 0.533400
O1951 O 1.100100 0.584100 0.619000
O1952 O 1.106200 0.667100 0.678600
O1953 O 1.096800 0.681700 0.583000
O1954 O 1.022600 0.616500 0.678700
O1955 O 0.960500 0.618700 0.760000
O1956 O 0.948000 0.718800 0.733100
O1957 O 1.014600 0.632300 0.583100
O1958 O 0.973100 0.615500 0.490200
O1959 O 0.934100 0.710200 0.503600
W1960 W 1.091430 0.730270 0.533470
W1961 W 1.113030 0.817800 0.622110
W1962 W 1.089790 0.724430 0.716600
O1963 O 1.165900 0.850100 0.631000
O1964 O 1.082900 0.856200 0.571400
O1965 O 1.068300 0.846800 0.667000
O1966 O 1.133500 0.772600 0.571300
O1967 O 1.131300 0.710500 0.490000
O1968 O 1.031200 0.698000 0.516900
O1969 O 1.117700 0.764600 0.666900
O1970 O 1.134500 0.723100 0.759800
O1971 O 1.039800 0.684100 0.746400
W1972 W 0.908570 0.769730 0.533470
W1973 W 0.886970 0.682200 0.622110
W1974 W 0.910210 0.775570 0.716600
O1975 O 0.834100 0.649900 0.631000
O1976 O 0.917100 0.643800 0.571400
O1977 O 0.931700 0.653200 0.667000
O1978 O 0.866500 0.727400 0.571300
O1979 O 0.868700 0.789500 0.490000
O1980 O 0.968800 0.802000 0.516900
O1981 O 0.882300 0.735400 0.666900
O1982 O 0.865500 0.776900 0.759800
O1983 O 0.960200 0.815900 0.746400
W1984 W 0.091430 0.769730 0.033470
W1985 W 0.113030 0.682200 0.122110
W1986 W 0.089790 0.775570 0.216600
P1987 P 0.000000 0.750000 0.125000
O1988 O 0.165900 0.649900 0.131000
O1989 O 0.082900 0.643800 0.071400
O1990 O 0.068300 0.653200 0.167000
O1991 O 0.133500 0.727400 0.071300
O1992 O 0.131300 0.789500 -0.010000
O1993 O 0.031200 0.802000 0.016900
O1994 O 0.040290 0.725620 0.092300
O1995 O 0.117700 0.735400 0.166900
O1996 O 0.134500 0.776900 0.259800
O1997 O 0.039800 0.815900 0.246400
O1998 O -0.040290 0.774380 0.092300
O1999 O 0.024380 0.790290 0.157700
O2000 O -0.024380 0.709710 0.157700
W2001 W -0.091430 0.730270 0.033470
W2002 W -0.113030 0.817800 0.122110
W2003 W -0.089790 0.724430 0.216600
O2004 O -0.165900 0.850100 0.131000
O2005 O -0.082900 0.856200 0.071400
O2006 O -0.068300 0.846800 0.167000
O2007 O -0.133500 0.772600 0.071300
O2008 O -0.131300 0.710500 -0.010000
O2009 O -0.031200 0.698000 0.016900
O2010 O -0.117700 0.764600 0.166900
O2011 O -0.134500 0.723100 0.259800
O2012 O -0.039800 0.684100 0.246400
W2013 W -0.019730 0.841430 0.216530
W2014 W 0.067800 0.863030 0.127890
W2015 W -0.025570 0.839790 0.033400
O2016 O 0.100100 0.915900 0.119000
O2017 O 0.106200 0.832900 0.178600
O2018 O 0.096800 0.818300 0.083000
O2019 O 0.022600 0.883500 0.178700
O2020 O -0.039500 0.881300 0.260000
O2021 O -0.052000 0.781200 0.233100
O2022 O 0.014600 0.867700 0.083100
O2023 O -0.026900 0.884500 -0.009800
O2024 O -0.065900 0.789800 0.003600
W2025 W 0.019730 0.658570 0.216530
W2026 W -0.067800 0.636970 0.127890
W2027 W 0.025570 0.660210 0.033400
O2028 O -0.100100 0.584100 0.119000
O2029 O -0.106200 0.667100 0.178600
O2030 O -0.096800 0.681700 0.083000
O2031 O -0.022600 0.616500 0.178700
O2032 O 0.039500 0.618700 0.260000
O2033 O 0.052000 0.718800 0.233100
O2034 O -0.014600 0.632300 0.083100
O2035 O 0.026900 0.615500 -0.009800
O2036 O 0.065900 0.710200 0.003600
W2037 W 1.091430 0.769730 0.033470
W2038 W 1.113030 0.682200 0.122110
W2039 W 1.089790 0.775570 0.216600
P2040 P 1.000000 0.750000 0.125000
O2041 O 1.165900 0.649900 0.131000
O2042 O 1.082900 0.643800 0.071400
O2043 O 1.068300 0.653200 0.167000
O2044 O 1.133500 0.727400 0.071300
O2045 O 1.131300 0.789500 -0.010000
O2046 O 1.031200 0.802000 0.016900
O2047 O 1.040290 0.725620 0.092300
O2048 O 1.117700 0.735400 0.166900
O2049 O 1.134500 0.776900 0.259800
O2050 O 1.039800 0.815900 0.246400
O2051 O 0.959710 0.774380 0.092300
O2052 O 1.024380 0.790290 0.157700
O2053 O 0.975620 0.709710 0.157700
W2054 W 0.908570 0.730270 0.033470
W2055 W 0.886970 0.817800 0.122110
W2056 W 0.910210 0.724430 0.216600
O2057 O 0.834100 0.850100 0.131000
O2058 O 0.917100 0.856200 0.071400
O2059 O 0.931700 0.846800 0.167000
O2060 O 0.866500 0.772600 0.071300
O2061 O 0.868700 0.710500 -0.010000
O2062 O 0.968800 0.698000 0.016900
O2063 O 0.882300 0.764600 0.166900
O2064 O 0.865500 0.723100 0.259800
O2065 O 0.960200 0.684100 0.246400
W2066 W 0.980270 0.841430 0.216530
W2067 W 1.067800 0.863030 0.127890
W2068 W 0.974430 0.839790 0.033400
O2069 O 1.100100 0.915900 0.119000
O2070 O 1.106200 0.832900 0.178600
O2071 O 1.096800 0.818300 0.083000
O2072 O 1.022600 0.883500 0.178700
O2073 O 0.960500 0.881300 0.260000
O2074 O 0.948000 0.781200 0.233100
O2075 O 1.014600 0.867700 0.083100
O2076 O 0.973100 0.884500 -0.009800
O2077 O 0.934100 0.789800 0.003600
W2078 W 1.019730 0.658570 0.216530
W2079 W 0.932200 0.636970 0.127890
W2080 W 1.025570 0.660210 0.033400
O2081 O 0.899900 0.584100 0.119000
O2082 O 0.893800 0.667100 0.178600
O2083 O 0.903200 0.681700 0.083000
O2084 O 0.977400 0.616500 0.178700
O2085 O 1.039500 0.618700 0.260000
O2086 O 1.052000 0.718800 0.233100
O2087 O 0.985400 0.632300 0.083100
O2088 O 1.026900 0.615500 -0.009800
O2089 O 1.065900 0.710200 0.003600
W2090 W 0.519730 0.341430 0.216530
W2091 W 0.432200 0.363030 0.127890
W2092 W 0.525570 0.339790 0.033400
P2093 P 0.500000 0.250000 0.125000
O2094 O 0.399900 0.415900 0.119000
O2095 O 0.393800 0.332900 0.178600
O2096 O 0.403200 0.318300 0.083000
O2097 O 0.477400 0.383500 0.178700
O2098 O 0.539500 0.381300 0.260000
O2099 O 0.552000 0.281200 0.233100
O2100 O 0.475620 0.290290 0.157700
O2101 O 0.485400 0.367700 0.083100
O2102 O 0.526900 0.384500 -0.009800
O2103 O 0.565900 0.289800 0.003600
O2104 O 0.524380 0.209710 0.157700
O2105 O 0.540290 0.274380 0.092300
O2106 O 0.459710 0.225620 0.092300
W2107 W 0.480270 0.158570 0.216530
W2108 W 0.567800 0.136970 0.127890
W2109 W 0.474430 0.160210 0.033400
O2110 O 0.600100 0.084100 0.119000
O2111 O 0.606200 0.167100 0.178600
O2112 O 0.596800 0.181700 0.083000
O2113 O 0.522600 0.116500 0.178700
O2114 O 0.460500 0.118700 0.260000
O2115 O 0.448000 0.218800 0.233100
O2116 O 0.514600 0.132300 0.083100
O2117 O 0.473100 0.115500 -0.009800
O2118 O 0.434100 0.210200 0.003600
W2119 W 0.591430 0.230270 0.033470
W2120 W 0.613030 0.317800 0.122110
W2121 W 0.589790 0.224430 0.216600
O2122 O 0.665900 0.350100 0.131000
O2123 O 0.582900 0.356200 0.071400
O2124 O 0.568300 0.346800 0.167000
O2125 O 0.633500 0.272600 0.071300
O2126 O 0.631300 0.210500 -0.010000
O2127 O 0.531200 0.198000 0.016900
O2128 O 0.617700 0.264600 0.166900
O2129 O 0.634500 0.223100 0.259800
O2130 O 0.539800 0.184100 0.246400
W2131 W 0.408570 0.269730 0.033470
W2132 W 0.386970 0.182200 0.122110
W2133 W 0.410210 0.275570 0.216600
O2134 O 0.334100 0.149900 0.131000
O2135 O 0.417100 0.143800 0.071400
O2136 O 0.431700 0.153200 0.167000
O2137 O 0.366500 0.227400 0.071300
O2138 O 0.368700 0.289500 -0.010000
O2139 O 0.468800 0.302000 0.016900
O2140 O 0.382300 0.235400 0.166900
O2141 O 0.365500 0.276900 0.259800
O2142 O 0.460200 0.315900 0.246400
H2143 H 0.743500 0.304500 0.994200
H2144 H 0.945500 0.493500 0.244200
H2145 H 0.256500 0.195500 0.994200
H2146 H 0.554500 0.506500 0.744200
H2147 H 0.743500 0.695500 0.505800
H2148 H 0.756500 0.304500 0.005800
H2149 H 0.054500 0.993500 0.255800
H2150 H 0.945500 0.506500 0.255800
H2151 H 0.243500 0.804500 0.494200
H2152 H 0.445500 0.993500 0.744200
H2153 H 0.756500 0.695500 0.494200
H2154 H 0.054500 0.006500 0.244200
H2155 H 0.243500 0.195500 0.005800
H2156 H 0.256500 0.804500 0.505800
H2157 H 0.554500 0.493500 0.755800
H2158 H 0.445500 0.006500 0.755800
H2159 H 0.256500 0.695500 0.005800
H2160 H 0.054500 0.506500 0.755800
H2161 H 0.743500 0.804500 0.005800
H2162 H 0.445500 0.493500 0.255800
H2163 H 0.256500 0.304500 0.494200
H2164 H 0.243500 0.695500 0.994200
H2165 H 0.945500 0.006500 0.744200
H2166 H 0.054500 0.493500 0.744200
H2167 H 0.756500 0.195500 0.505800
H2168 H 0.554500 0.006500 0.255800
H2169 H 0.243500 0.304500 0.505800
H2170 H 0.945500 0.993500 0.755800
H2171 H 0.756500 0.804500 0.994200
H2172 H 0.743500 0.195500 0.494200
H2173 H 0.445500 0.506500 0.244200
H2174 H 0.554500 0.993500 0.244200

#END
