
#######################################################################
#
#                 Cambridge Crystallographic Data Centre
#                                CCDC 
#
#######################################################################
#
# If this CIF has been generated from an entry in the Cambridge 
# Structural Database, then it will include bibliographic, chemical, 
# crystal, experimental, refinement or atomic coordinate data resulting 
# from the CCDC's data processing and validation procedures.
#
#######################################################################

data_ABETIN
_symmetry_cell_setting           tetragonal
_symmetry_space_group_name_H-M   'I 41/a c d'
_symmetry_Int_Tables_number      142
_space_group_name_Hall           '-I 4bd 2c'
loop_
_symmetry_equiv_pos_site_id
_symmetry_equiv_pos_as_xyz
1 x,y,z
2 1/4-y,3/4+x,1/4+z
3 -x,1/2-y,z
4 1/4+y,1/4-x,3/4+z
5 x,-y,1/2-z
6 1/2-x,y,-z
7 3/4+y,1/4+x,1/4-z
8 1/4-y,1/4-x,1/4-z
9 1/2+x,1/2+y,1/2+z
10 3/4-y,1/4+x,3/4+z
11 1/2-x,-y,1/2+z
12 3/4+y,3/4-x,1/4+z
13 1/2+x,1/2-y,-z
14 -x,1/2+y,1/2-z
15 1/4+y,3/4+x,3/4-z
16 3/4-y,3/4-x,3/4-z
17 -x,-y,-z
18 3/4+y,1/4-x,3/4-z
19 x,1/2+y,-z
20 3/4-y,3/4+x,1/4-z
21 -x,y,1/2+z
22 1/2+x,-y,z
23 1/4-y,3/4-x,3/4+z
24 3/4+y,3/4+x,3/4+z
25 1/2-x,1/2-y,1/2-z
26 1/4+y,3/4-x,1/4-z
27 1/2+x,y,1/2-z
28 1/4-y,1/4+x,3/4-z
29 1/2-x,1/2+y,z
30 x,1/2-y,1/2+z
31 3/4-y,1/4-x,1/4+z
32 1/4+y,1/4+x,1/4+z
_cell_length_a                   26.9629(3)
_cell_length_b                   26.9629(3)
_cell_length_c                   27.5365(4)
_cell_angle_alpha                90
_cell_angle_beta                 90
_cell_angle_gamma                90
_cell_volume                     20019
loop_
_atom_site_label
_atom_site_type_symbol
_atom_site_fract_x
_atom_site_fract_y
_atom_site_fract_z
Cu1 Cu 0.7500 0.37085(6) 0.5000
N1 N 0.4185(2) 0.4877(2) 0.6897(2)
N2 N 0.6919(2) 0.4166(2) 0.4855(2)
C1 C 0.3957(3) 0.4670(3) 0.6510(3)
H1 H 0.3663 0.4497 0.6562
C2 C 0.4139(3) 0.4701(3) 0.6044(3)
H2 H 0.3969 0.4556 0.5786
C3 C 0.4585(3) 0.4955(3) 0.5965(3)
C4 C 0.4832(3) 0.5143(3) 0.6364(3)
H3 H 0.5140 0.5294 0.6328
C5 C 0.4615(3) 0.5104(3) 0.6820(3)
H4 H 0.4779 0.5243 0.7084
C6 C 0.4797(3) 0.4994(3) 0.5474(3)
C7 C 0.5286(3) 0.4853(3) 0.5390(3)
H5 H 0.5480 0.4758 0.5653
C8 C 0.5494(3) 0.4849(3) 0.4932(3)
C9 C 0.5996(3) 0.4635(3) 0.4880(3)
C10 C 0.6383(3) 0.4797(3) 0.5171(3)
H6 H 0.6340 0.5066 0.5378
C11 C 0.6836(3) 0.4554(3) 0.5148(3)
H7 H 0.7094 0.4666 0.5345
C12 C 0.6550(3) 0.4020(3) 0.4568(3)
H8 H 0.6608 0.3759 0.4354
C13 C 0.6083(3) 0.4237(3) 0.4571(3)
H9 H 0.5833 0.4118 0.4370
N1P N 0.5815(2) 0.5123(2) 0.3103(2)
N2P N 0.3081(2) 0.5834(2) 0.5145(2)
C1P C 0.6043(3) 0.5330(3) 0.3490(3)
H1P H 0.6337 0.5503 0.3438
C2P C 0.5861(3) 0.5299(3) 0.3956(3)
H2P H 0.6031 0.5444 0.4214
C3P C 0.5415(3) 0.5045(3) 0.4035(3)
C4P C 0.5168(3) 0.4857(3) 0.3636(3)
H3P H 0.4860 0.4706 0.3672
C5P C 0.5385(3) 0.4896(3) 0.3180(3)
H4P H 0.5221 0.4757 0.2916
C6P C 0.5203(3) 0.5006(3) 0.4526(3)
C7P C 0.4714(3) 0.5147(3) 0.4610(3)
H5P H 0.4520 0.5242 0.4347
C8P C 0.4506(3) 0.5151(3) 0.5068(3)
C9P C 0.4004(3) 0.5365(3) 0.5120(3)
C10P C 0.3617(3) 0.5203(3) 0.4829(3)
H6P H 0.3660 0.4934 0.4622
C11P C 0.3164(3) 0.5446(3) 0.4852(3)
H7P H 0.2906 0.5334 0.4655
C12P C 0.3450(3) 0.5980(3) 0.5432(3)
H8P H 0.3392 0.6241 0.5646
C13P C 0.3917(3) 0.5763(3) 0.5429(3)
H9P H 0.4167 0.5882 0.5630
Cu1C Cu 0.62085(6) 0.5000 0.2500
Cu1P Cu 0.2500 0.62915(6) 0.5000
Cu1S Cu 0.37915(6) 0.5000 0.7500
N1V N 0.7623(2) 0.3315(2) 0.4397(2)
N1Y N 0.7377(2) 0.3315(2) 0.5603(2)
N2E N 0.8081(2) 0.4166(2) 0.5145(2)
Cu1 Cu 0.87915(6) 0.5000 0.7500
N1 N 0.7623(2) 0.1685(2) 0.9397(2)
N2 N 0.8334(2) 0.4419(2) 0.7355(2)
C1 C 0.7830(3) 0.1457(3) 0.9010(3)
H1 H 0.8003 0.1163 0.9062
C2 C 0.7799(3) 0.1639(3) 0.8544(3)
H2 H 0.7944 0.1469 0.8286
C3 C 0.7545(3) 0.2085(3) 0.8465(3)
C4 C 0.7357(3) 0.2332(3) 0.8864(3)
H3 H 0.7206 0.2640 0.8828
C5 C 0.7396(3) 0.2115(3) 0.9320(3)
H4 H 0.7257 0.2279 0.9584
C6 C 0.7506(3) 0.2297(3) 0.7974(3)
C7 C 0.7647(3) 0.2786(3) 0.7890(3)
H5 H 0.7742 0.2980 0.8153
C8 C 0.7651(3) 0.2994(3) 0.7432(3)
C9 C 0.7865(3) 0.3496(3) 0.7380(3)
C10 C 0.7703(3) 0.3883(3) 0.7671(3)
H6 H 0.7434 0.3840 0.7878
C11 C 0.7946(3) 0.4336(3) 0.7648(3)
H7 H 0.7834 0.4594 0.7845
C12 C 0.8480(3) 0.4050(3) 0.7068(3)
H8 H 0.8741 0.4108 0.6854
C13 C 0.8263(3) 0.3583(3) 0.7071(3)
H9 H 0.8382 0.3333 0.6870
N2P N 0.6666(2) 0.0581(2) 0.7645(2)
C1P C 0.7170(3) 0.3543(3) 0.5990(3)
H1P H 0.6997 0.3837 0.5938
C2P C 0.7201(3) 0.3361(3) 0.6456(3)
H2P H 0.7056 0.3531 0.6714
C3P C 0.7455(3) 0.2915(3) 0.6535(3)
C4P C 0.7643(3) 0.2668(3) 0.6136(3)
H3P H 0.7794 0.2360 0.6172
C5P C 0.7604(3) 0.2885(3) 0.5680(3)
H4P H 0.7743 0.2721 0.5416
C6P C 0.7494(3) 0.2703(3) 0.7026(3)
C7P C 0.7353(3) 0.2214(3) 0.7110(3)
H5P H 0.7258 0.2020 0.6847
C8P C 0.7349(3) 0.2006(3) 0.7568(3)
C9P C 0.7135(3) 0.1504(3) 0.7620(3)
C10P C 0.7297(3) 0.1117(3) 0.7329(3)
H6P H 0.7566 0.1160 0.7122
C11P C 0.7054(3) 0.0664(3) 0.7352(3)
H7P H 0.7166 0.0406 0.7155
C12P C 0.6520(3) 0.0950(3) 0.7932(3)
H8P H 0.6259 0.0892 0.8146
C13P C 0.6737(3) 0.1417(3) 0.7929(3)
H9P H 0.6618 0.1667 0.8130
Cu1P Cu 0.62085(6) 0.0000 0.7500
Cu1S Cu 0.7500 0.12915(6) 1.0000
N1V N 0.9185(2) 0.5123(2) 0.6897(2)
N1Y N 0.9185(2) 0.4877(2) 0.8103(2)
N2E N 0.8334(2) 0.5581(2) 0.7645(2)
Cu1 Cu 0.2500 0.12915(6) 0.5000
N1 N 0.5815(2) 0.0123(2) 0.6897(2)
N2 N 0.3081(2) 0.0834(2) 0.4855(2)
C1 C 0.6043(3) 0.0330(3) 0.6510(3)
H1 H 0.6337 0.0503 0.6562
C2 C 0.5861(3) 0.0299(3) 0.6044(3)
H2 H 0.6031 0.0444 0.5786
C3 C 0.5415(3) 0.0045(3) 0.5965(3)
C4 C 0.5168(3) -0.0143(3) 0.6364(3)
H3 H 0.4860 -0.0294 0.6328
C5 C 0.5385(3) -0.0104(3) 0.6820(3)
H4 H 0.5221 -0.0243 0.7084
C6 C 0.5203(3) 0.0006(3) 0.5474(3)
C7 C 0.4714(3) 0.0147(3) 0.5390(3)
H5 H 0.4520 0.0242 0.5653
C8 C 0.4506(3) 0.0151(3) 0.4932(3)
C9 C 0.4004(3) 0.0365(3) 0.4880(3)
C10 C 0.3617(3) 0.0203(3) 0.5171(3)
H6 H 0.3660 -0.0066 0.5378
C11 C 0.3164(3) 0.0446(3) 0.5148(3)
H7 H 0.2906 0.0334 0.5345
C12 C 0.3450(3) 0.0980(3) 0.4568(3)
H8 H 0.3392 0.1241 0.4354
C13 C 0.3917(3) 0.0763(3) 0.4571(3)
H9 H 0.4167 0.0882 0.4370
N1P N 0.4185(2) -0.0123(2) 0.3103(2)
N2P N 0.6919(2) -0.0834(2) 0.5145(2)
C1P C 0.3957(3) -0.0330(3) 0.3490(3)
H1P H 0.3663 -0.0503 0.3438
C2P C 0.4139(3) -0.0299(3) 0.3956(3)
H2P H 0.3969 -0.0444 0.4214
C3P C 0.4585(3) -0.0045(3) 0.4035(3)
C4P C 0.4832(3) 0.0143(3) 0.3636(3)
H3P H 0.5140 0.0294 0.3672
C5P C 0.4615(3) 0.0104(3) 0.3180(3)
H4P H 0.4779 0.0243 0.2916
C6P C 0.4797(3) -0.0006(3) 0.4526(3)
C7P C 0.5286(3) -0.0147(3) 0.4610(3)
H5P H 0.5480 -0.0242 0.4347
C8P C 0.5494(3) -0.0151(3) 0.5068(3)
C9P C 0.5996(3) -0.0365(3) 0.5120(3)
C10P C 0.6383(3) -0.0203(3) 0.4829(3)
H6P H 0.6340 0.0066 0.4622
C11P C 0.6836(3) -0.0446(3) 0.4852(3)
H7P H 0.7094 -0.0334 0.4655
C12P C 0.6550(3) -0.0980(3) 0.5432(3)
H8P H 0.6608 -0.1241 0.5646
C13P C 0.6083(3) -0.0763(3) 0.5429(3)
H9P H 0.5833 -0.0882 0.5630
Cu1C Cu 0.37915(6) 0.0000 0.2500
Cu1P Cu 0.7500 -0.12915(6) 0.5000
N1V N 0.2377(2) 0.1685(2) 0.4397(2)
N1Y N 0.2623(2) 0.1685(2) 0.5603(2)
N2E N 0.1919(2) 0.0834(2) 0.5145(2)
N1 N 0.7377(2) 0.8315(2) 0.4397(2)
N2 N 0.6666(2) 0.5581(2) 0.2355(2)
C1 C 0.7170(3) 0.8543(3) 0.4010(3)
H1 H 0.6997 0.8837 0.4062
C2 C 0.7201(3) 0.8361(3) 0.3544(3)
H2 H 0.7056 0.8531 0.3286
C3 C 0.7455(3) 0.7915(3) 0.3465(3)
C4 C 0.7643(3) 0.7668(3) 0.3864(3)
H3 H 0.7794 0.7360 0.3828
C5 C 0.7604(3) 0.7885(3) 0.4320(3)
H4 H 0.7743 0.7721 0.4584
C6 C 0.7494(3) 0.7703(3) 0.2974(3)
C7 C 0.7353(3) 0.7214(3) 0.2890(3)
H5 H 0.7258 0.7020 0.3153
C8 C 0.7349(3) 0.7006(3) 0.2432(3)
C9 C 0.7135(3) 0.6504(3) 0.2380(3)
C10 C 0.7297(3) 0.6117(3) 0.2671(3)
H6 H 0.7566 0.6160 0.2878
C11 C 0.7054(3) 0.5664(3) 0.2648(3)
H7 H 0.7166 0.5406 0.2845
C12 C 0.6520(3) 0.5950(3) 0.2068(3)
H8 H 0.6259 0.5892 0.1854
C13 C 0.6737(3) 0.6417(3) 0.2071(3)
H9 H 0.6618 0.6667 0.1870
N1P N 0.7623(2) 0.6685(2) 0.0603(2)
N2P N 0.8334(2) 0.9419(2) 0.2645(2)
C1P C 0.7830(3) 0.6457(3) 0.0990(3)
H1P H 0.8003 0.6163 0.0938
C2P C 0.7799(3) 0.6639(3) 0.1456(3)
H2P H 0.7944 0.6469 0.1714
C3P C 0.7545(3) 0.7085(3) 0.1535(3)
C4P C 0.7357(3) 0.7332(3) 0.1136(3)
H3P H 0.7206 0.7640 0.1172
C5P C 0.7396(3) 0.7115(3) 0.0680(3)
H4P H 0.7257 0.7279 0.0416
C6P C 0.7506(3) 0.7297(3) 0.2026(3)
C7P C 0.7647(3) 0.7786(3) 0.2110(3)
H5P H 0.7742 0.7980 0.1847
C8P C 0.7651(3) 0.7994(3) 0.2568(3)
C9P C 0.7865(3) 0.8496(3) 0.2620(3)
C10P C 0.7703(3) 0.8883(3) 0.2329(3)
H6P H 0.7434 0.8840 0.2122
C11P C 0.7946(3) 0.9336(3) 0.2352(3)
H7P H 0.7834 0.9594 0.2155
C12P C 0.8480(3) 0.9050(3) 0.2932(3)
H8P H 0.8741 0.9108 0.3146
C13P C 0.8263(3) 0.8583(3) 0.2929(3)
H9P H 0.8382 0.8333 0.3130
Cu1C Cu 0.7500 0.62915(6) 0.0000
Cu1P Cu 0.87915(6) 1.0000 0.2500
Cu1S Cu 0.7500 0.87085(6) 0.5000
N1V N 0.5815(2) 0.4877(2) 0.1897(2)
N2E N 0.6666(2) 0.4419(2) 0.2645(2)
Cu1 Cu 0.7500 0.62915(6) 1.0000
N1 N 0.4185(2) 0.5123(2) 0.8103(2)
N2 N 0.6919(2) 0.5834(2) 1.0145(2)
C1 C 0.3957(3) 0.5330(3) 0.8490(3)
H1 H 0.3663 0.5503 0.8438
C2 C 0.4139(3) 0.5299(3) 0.8956(3)
H2 H 0.3969 0.5444 0.9214
C3 C 0.4585(3) 0.5045(3) 0.9035(3)
C4 C 0.4832(3) 0.4857(3) 0.8636(3)
H3 H 0.5140 0.4706 0.8672
C5 C 0.4615(3) 0.4896(3) 0.8180(3)
H4 H 0.4779 0.4757 0.7916
C6 C 0.4797(3) 0.5006(3) 0.9526(3)
C7 C 0.5286(3) 0.5147(3) 0.9610(3)
H5 H 0.5480 0.5242 0.9347
C8 C 0.5494(3) 0.5151(3) 1.0068(3)
C9 C 0.5996(3) 0.5365(3) 1.0120(3)
C10 C 0.6383(3) 0.5203(3) 0.9829(3)
H6 H 0.6340 0.4934 0.9622
C11 C 0.6836(3) 0.5446(3) 0.9852(3)
H7 H 0.7094 0.5334 0.9655
C12 C 0.6550(3) 0.5980(3) 1.0432(3)
H8 H 0.6608 0.6241 1.0646
C13 C 0.6083(3) 0.5763(3) 1.0429(3)
H9 H 0.5833 0.5882 1.0630
N1P N 0.5815(2) 0.4877(2) 1.1897(2)
N2P N 0.3081(2) 0.4166(2) 0.9855(2)
C1P C 0.6043(3) 0.4670(3) 1.1510(3)
H1P H 0.6337 0.4497 1.1562
C2P C 0.5861(3) 0.4701(3) 1.1044(3)
H2P H 0.6031 0.4556 1.0786
C3P C 0.5415(3) 0.4955(3) 1.0965(3)
C4P C 0.5168(3) 0.5143(3) 1.1364(3)
H3P H 0.4860 0.5294 1.1328
C5P C 0.5385(3) 0.5104(3) 1.1820(3)
H4P H 0.5221 0.5243 1.2084
C6P C 0.5203(3) 0.4994(3) 1.0474(3)
C7P C 0.4714(3) 0.4853(3) 1.0390(3)
H5P H 0.4520 0.4758 1.0653
C8P C 0.4506(3) 0.4849(3) 0.9932(3)
C9P C 0.4004(3) 0.4635(3) 0.9880(3)
C10P C 0.3617(3) 0.4797(3) 1.0171(3)
H6P H 0.3660 0.5066 1.0378
C11P C 0.3164(3) 0.4554(3) 1.0148(3)
H7P H 0.2906 0.4666 1.0345
C12P C 0.3450(3) 0.4020(3) 0.9568(3)
H8P H 0.3392 0.3759 0.9354
C13P C 0.3917(3) 0.4237(3) 0.9571(3)
H9P H 0.4167 0.4118 0.9370
Cu1C Cu 0.62085(6) 0.5000 1.2500
Cu1P Cu 0.2500 0.37085(6) 1.0000
N1V N 0.7623(2) 0.6685(2) 1.0603(2)
N1Y N 0.7377(2) 0.6685(2) 0.9397(2)
N2E N 0.8081(2) 0.5834(2) 0.9855(2)
N1 N 1.0815(2) 0.4877(2) 0.3103(2)
C1 C 1.1043(3) 0.4670(3) 0.3490(3)
H1 H 1.1337 0.4497 0.3438
C2 C 1.0861(3) 0.4701(3) 0.3956(3)
H2 H 1.1031 0.4556 0.4214
C3 C 1.0415(3) 0.4955(3) 0.4035(3)
C4 C 1.0168(3) 0.5143(3) 0.3636(3)
H3 H 0.9860 0.5294 0.3672
C5 C 1.0385(3) 0.5104(3) 0.3180(3)
H4 H 1.0221 0.5243 0.2916
C6 C 1.0203(3) 0.4994(3) 0.4526(3)
C7 C 0.9714(3) 0.4853(3) 0.4610(3)
H5 H 0.9520 0.4758 0.4347
C8 C 0.9506(3) 0.4849(3) 0.5068(3)
C9 C 0.9004(3) 0.4635(3) 0.5120(3)
C10 C 0.8617(3) 0.4797(3) 0.4829(3)
H6 H 0.8660 0.5066 0.4622
C11 C 0.8164(3) 0.4554(3) 0.4852(3)
H7 H 0.7906 0.4666 0.4655
C12 C 0.8450(3) 0.4020(3) 0.5432(3)
H8 H 0.8392 0.3759 0.5646
C13 C 0.8917(3) 0.4237(3) 0.5429(3)
H9 H 0.9167 0.4118 0.5630
N2P N 1.1919(2) 0.5834(2) 0.4855(2)
C1P C 0.8957(3) 0.5330(3) 0.6510(3)
H1P H 0.8663 0.5503 0.6562
C2P C 0.9139(3) 0.5299(3) 0.6044(3)
H2P H 0.8969 0.5444 0.5786
C3P C 0.9585(3) 0.5045(3) 0.5965(3)
C4P C 0.9832(3) 0.4857(3) 0.6364(3)
H3P H 1.0140 0.4706 0.6328
C5P C 0.9615(3) 0.4896(3) 0.6820(3)
H4P H 0.9779 0.4757 0.7084
C6P C 0.9797(3) 0.5006(3) 0.5474(3)
C7P C 1.0286(3) 0.5147(3) 0.5390(3)
H5P H 1.0480 0.5242 0.5653
C8P C 1.0494(3) 0.5151(3) 0.4932(3)
C9P C 1.0996(3) 0.5365(3) 0.4880(3)
C10P C 1.1383(3) 0.5203(3) 0.5171(3)
H6P H 1.1340 0.4934 0.5378
C11P C 1.1836(3) 0.5446(3) 0.5148(3)
H7P H 1.2094 0.5334 0.5345
C12P C 1.1550(3) 0.5980(3) 0.4568(3)
H8P H 1.1608 0.6241 0.4354
C13P C 1.1083(3) 0.5763(3) 0.4571(3)
H9P H 1.0833 0.5882 0.4370
Cu1P Cu 1.2500 0.62915(6) 0.5000
Cu1S Cu 1.12085(6) 0.5000 0.2500
Cu1 Cu 0.12085(6) 1.0000 0.7500
N1 N 0.2377(2) 0.6685(2) 0.5603(2)
N2 N 0.1666(2) 0.9419(2) 0.7645(2)
C1 C 0.2170(3) 0.6457(3) 0.5990(3)
H1 H 0.1997 0.6163 0.5938
C2 C 0.2201(3) 0.6639(3) 0.6456(3)
H2 H 0.2056 0.6469 0.6714
C3 C 0.2455(3) 0.7085(3) 0.6535(3)
C4 C 0.2643(3) 0.7332(3) 0.6136(3)
H3 H 0.2794 0.7640 0.6172
C5 C 0.2604(3) 0.7115(3) 0.5680(3)
H4 H 0.2743 0.7279 0.5416
C6 C 0.2494(3) 0.7297(3) 0.7026(3)
C7 C 0.2353(3) 0.7786(3) 0.7110(3)
H5 H 0.2258 0.7980 0.6847
C8 C 0.2349(3) 0.7994(3) 0.7568(3)
C9 C 0.2135(3) 0.8496(3) 0.7620(3)
C10 C 0.2297(3) 0.8883(3) 0.7329(3)
H6 H 0.2566 0.8840 0.7122
C11 C 0.2054(3) 0.9336(3) 0.7352(3)
H7 H 0.2166 0.9594 0.7155
C12 C 0.1520(3) 0.9050(3) 0.7932(3)
H8 H 0.1259 0.9108 0.8146
C13 C 0.1737(3) 0.8583(3) 0.7929(3)
H9 H 0.1618 0.8333 0.8130
N1P N 0.2623(2) 0.8315(2) 0.9397(2)
N2P N 0.3334(2) 0.5581(2) 0.7355(2)
C1P C 0.2830(3) 0.8543(3) 0.9010(3)
H1P H 0.3003 0.8837 0.9062
C2P C 0.2799(3) 0.8361(3) 0.8544(3)
H2P H 0.2944 0.8531 0.8286
C3P C 0.2545(3) 0.7915(3) 0.8465(3)
C4P C 0.2357(3) 0.7668(3) 0.8864(3)
H3P H 0.2206 0.7360 0.8828
C5P C 0.2396(3) 0.7885(3) 0.9320(3)
H4P H 0.2257 0.7721 0.9584
C6P C 0.2506(3) 0.7703(3) 0.7974(3)
C7P C 0.2647(3) 0.7214(3) 0.7890(3)
H5P H 0.2742 0.7020 0.8153
C8P C 0.2651(3) 0.7006(3) 0.7432(3)
C9P C 0.2865(3) 0.6504(3) 0.7380(3)
C10P C 0.2703(3) 0.6117(3) 0.7671(3)
H6P H 0.2434 0.6160 0.7878
C11P C 0.2946(3) 0.5664(3) 0.7648(3)
H7P H 0.2834 0.5406 0.7845
C12P C 0.3480(3) 0.5950(3) 0.7068(3)
H8P H 0.3741 0.5892 0.6854
C13P C 0.3263(3) 0.6417(3) 0.7071(3)
H9P H 0.3382 0.6667 0.6870
Cu1C Cu 0.2500 0.87085(6) 1.0000
N1V N 0.0815(2) 1.0123(2) 0.8103(2)
N1Y N 0.0815(2) 0.9877(2) 0.6897(2)
N2E N 0.1666(2) 1.0581(2) 0.7355(2)
N1 N 0.7623(2) 0.8315(2) 0.5603(2)
C1 C 0.7830(3) 0.8543(3) 0.5990(3)
H1 H 0.8003 0.8837 0.5938
C2 C 0.7799(3) 0.8361(3) 0.6456(3)
H2 H 0.7944 0.8531 0.6714
C3 C 0.7545(3) 0.7915(3) 0.6535(3)
C4 C 0.7357(3) 0.7668(3) 0.6136(3)
H3 H 0.7206 0.7360 0.6172
C5 C 0.7396(3) 0.7885(3) 0.5680(3)
H4 H 0.7257 0.7721 0.5416
C6 C 0.7506(3) 0.7703(3) 0.7026(3)
C7 C 0.7647(3) 0.7214(3) 0.7110(3)
H5 H 0.7742 0.7020 0.6847
C8 C 0.7651(3) 0.7006(3) 0.7568(3)
C9 C 0.7865(3) 0.6504(3) 0.7620(3)
C10 C 0.7703(3) 0.6117(3) 0.7329(3)
H6 H 0.7434 0.6160 0.7122
C11 C 0.7946(3) 0.5664(3) 0.7352(3)
H7 H 0.7834 0.5406 0.7155
C12 C 0.8480(3) 0.5950(3) 0.7932(3)
H8 H 0.8741 0.5892 0.8146
C13 C 0.8263(3) 0.6417(3) 0.7929(3)
H9 H 0.8382 0.6667 0.8130
N2P N 0.6666(2) 0.9419(2) 0.7355(2)
C1P C 0.7170(3) 0.6457(3) 0.9010(3)
H1P H 0.6997 0.6163 0.9062
C2P C 0.7201(3) 0.6639(3) 0.8544(3)
H2P H 0.7056 0.6469 0.8286
C3P C 0.7455(3) 0.7085(3) 0.8465(3)
C4P C 0.7643(3) 0.7332(3) 0.8864(3)
H3P H 0.7794 0.7640 0.8828
C5P C 0.7604(3) 0.7115(3) 0.9320(3)
H4P H 0.7743 0.7279 0.9584
C6P C 0.7494(3) 0.7297(3) 0.7974(3)
C7P C 0.7353(3) 0.7786(3) 0.7890(3)
H5P H 0.7258 0.7980 0.8153
C8P C 0.7349(3) 0.7994(3) 0.7432(3)
C9P C 0.7135(3) 0.8496(3) 0.7380(3)
C10P C 0.7297(3) 0.8883(3) 0.7671(3)
H6P H 0.7566 0.8840 0.7878
C11P C 0.7054(3) 0.9336(3) 0.7648(3)
H7P H 0.7166 0.9594 0.7845
C12P C 0.6520(3) 0.9050(3) 0.7068(3)
H8P H 0.6259 0.9108 0.6854
C13P C 0.6737(3) 0.8583(3) 0.7071(3)
H9P H 0.6618 0.8333 0.6870
Cu1P Cu 0.62085(6) 1.0000 0.7500
Cu1 Cu 0.2500 0.87085(6) 0.0000
N1 N -0.0815(2) 0.9877(2) 0.1897(2)
N2 N 0.1919(2) 0.9166(2) -0.0145(2)
C1 C -0.1043(3) 0.9670(3) 0.1510(3)
H1 H -0.1337 0.9497 0.1562
C2 C -0.0861(3) 0.9701(3) 0.1044(3)
H2 H -0.1031 0.9556 0.0786
C3 C -0.0415(3) 0.9955(3) 0.0965(3)
C4 C -0.0168(3) 1.0143(3) 0.1364(3)
H3 H 0.0140 1.0294 0.1328
C5 C -0.0385(3) 1.0104(3) 0.1820(3)
H4 H -0.0221 1.0243 0.2084
C6 C -0.0203(3) 0.9994(3) 0.0474(3)
C7 C 0.0286(3) 0.9853(3) 0.0390(3)
H5 H 0.0480 0.9758 0.0653
C8 C 0.0494(3) 0.9849(3) -0.0068(3)
C9 C 0.0996(3) 0.9635(3) -0.0120(3)
C10 C 0.1383(3) 0.9797(3) 0.0171(3)
H6 H 0.1340 1.0066 0.0378
C11 C 0.1836(3) 0.9554(3) 0.0148(3)
H7 H 0.2094 0.9666 0.0345
C12 C 0.1550(3) 0.9020(3) -0.0432(3)
H8 H 0.1608 0.8759 -0.0646
C13 C 0.1083(3) 0.9237(3) -0.0429(3)
H9 H 0.0833 0.9118 -0.0630
N1P N 0.0815(2) 1.0123(2) -0.1897(2)
N2P N -0.1919(2) 1.0834(2) 0.0145(2)
C1P C 0.1043(3) 1.0330(3) -0.1510(3)
H1P H 0.1337 1.0503 -0.1562
C2P C 0.0861(3) 1.0299(3) -0.1044(3)
H2P H 0.1031 1.0444 -0.0786
C3P C 0.0415(3) 1.0045(3) -0.0965(3)
C4P C 0.0168(3) 0.9857(3) -0.1364(3)
H3P H -0.0140 0.9706 -0.1328
C5P C 0.0385(3) 0.9896(3) -0.1820(3)
H4P H 0.0221 0.9757 -0.2084
C6P C 0.0203(3) 1.0006(3) -0.0474(3)
C7P C -0.0286(3) 1.0147(3) -0.0390(3)
H5P H -0.0480 1.0242 -0.0653
C8P C -0.0494(3) 1.0151(3) 0.0068(3)
C9P C -0.0996(3) 1.0365(3) 0.0120(3)
C10P C -0.1383(3) 1.0203(3) -0.0171(3)
H6P H -0.1340 0.9934 -0.0378
C11P C -0.1836(3) 1.0446(3) -0.0148(3)
H7P H -0.2094 1.0334 -0.0345
C12P C -0.1550(3) 1.0980(3) 0.0432(3)
H8P H -0.1608 1.1241 0.0646
C13P C -0.1083(3) 1.0763(3) 0.0429(3)
H9P H -0.0833 1.0882 0.0630
Cu1C Cu 0.12085(6) 1.0000 -0.2500
Cu1P Cu -0.2500 1.12915(6) 0.0000
Cu1S Cu -0.12085(6) 1.0000 0.2500
N1V N 0.2623(2) 0.8315(2) -0.0603(2)
N1Y N 0.2377(2) 0.8315(2) 0.0603(2)
N2E N 0.3081(2) 0.9166(2) 0.0145(2)
Cu1 Cu 0.37915(6) 1.0000 0.2500
N1 N 0.2623(2) 0.6685(2) 0.4397(2)
N2 N 0.3334(2) 0.9419(2) 0.2355(2)
C1 C 0.2830(3) 0.6457(3) 0.4010(3)
H1 H 0.3003 0.6163 0.4062
C2 C 0.2799(3) 0.6639(3) 0.3544(3)
H2 H 0.2944 0.6469 0.3286
C3 C 0.2545(3) 0.7085(3) 0.3465(3)
C4 C 0.2357(3) 0.7332(3) 0.3864(3)
H3 H 0.2206 0.7640 0.3828
C5 C 0.2396(3) 0.7115(3) 0.4320(3)
H4 H 0.2257 0.7279 0.4584
C6 C 0.2506(3) 0.7297(3) 0.2974(3)
C7 C 0.2647(3) 0.7786(3) 0.2890(3)
H5 H 0.2742 0.7980 0.3153
C8 C 0.2651(3) 0.7994(3) 0.2432(3)
C9 C 0.2865(3) 0.8496(3) 0.2380(3)
C10 C 0.2703(3) 0.8883(3) 0.2671(3)
H6 H 0.2434 0.8840 0.2878
C11 C 0.2946(3) 0.9336(3) 0.2648(3)
H7 H 0.2834 0.9594 0.2845
C12 C 0.3480(3) 0.9050(3) 0.2068(3)
H8 H 0.3741 0.9108 0.1854
C13 C 0.3263(3) 0.8583(3) 0.2071(3)
H9 H 0.3382 0.8333 0.1870
N2P N 0.1666(2) 0.5581(2) 0.2645(2)
C1P C 0.2170(3) 0.8543(3) 0.0990(3)
H1P H 0.1997 0.8837 0.0938
C2P C 0.2201(3) 0.8361(3) 0.1456(3)
H2P H 0.2056 0.8531 0.1714
C3P C 0.2455(3) 0.7915(3) 0.1535(3)
C4P C 0.2643(3) 0.7668(3) 0.1136(3)
H3P H 0.2794 0.7360 0.1172
C5P C 0.2604(3) 0.7885(3) 0.0680(3)
H4P H 0.2743 0.7721 0.0416
C6P C 0.2494(3) 0.7703(3) 0.2026(3)
C7P C 0.2353(3) 0.7214(3) 0.2110(3)
H5P H 0.2258 0.7020 0.1847
C8P C 0.2349(3) 0.7006(3) 0.2568(3)
C9P C 0.2135(3) 0.6504(3) 0.2620(3)
C10P C 0.2297(3) 0.6117(3) 0.2329(3)
H6P H 0.2566 0.6160 0.2122
C11P C 0.2054(3) 0.5664(3) 0.2352(3)
H7P H 0.2166 0.5406 0.2155
C12P C 0.1520(3) 0.5950(3) 0.2932(3)
H8P H 0.1259 0.5892 0.3146
C13P C 0.1737(3) 0.6417(3) 0.2929(3)
H9P H 0.1618 0.6667 0.3130
Cu1P Cu 0.12085(6) 0.5000 0.2500
N1V N 0.4185(2) 1.0123(2) 0.1897(2)
N1Y N 0.4185(2) 0.9877(2) 0.3103(2)
N2E N 0.3334(2) 1.0581(2) 0.2645(2)
N1 N 1.0815(2) 0.5123(2) 0.1897(2)
N2 N 0.8081(2) 0.5834(2) -0.0145(2)
C1 C 1.1043(3) 0.5330(3) 0.1510(3)
H1 H 1.1337 0.5503 0.1562
C2 C 1.0861(3) 0.5299(3) 0.1044(3)
H2 H 1.1031 0.5444 0.0786
C3 C 1.0415(3) 0.5045(3) 0.0965(3)
C4 C 1.0168(3) 0.4857(3) 0.1364(3)
H3 H 0.9860 0.4706 0.1328
C5 C 1.0385(3) 0.4896(3) 0.1820(3)
H4 H 1.0221 0.4757 0.2084
C6 C 1.0203(3) 0.5006(3) 0.0474(3)
C7 C 0.9714(3) 0.5147(3) 0.0390(3)
H5 H 0.9520 0.5242 0.0653
C8 C 0.9506(3) 0.5151(3) -0.0068(3)
C9 C 0.9004(3) 0.5365(3) -0.0120(3)
C10 C 0.8617(3) 0.5203(3) 0.0171(3)
H6 H 0.8660 0.4934 0.0378
C11 C 0.8164(3) 0.5446(3) 0.0148(3)
H7 H 0.7906 0.5334 0.0345
C12 C 0.8450(3) 0.5980(3) -0.0432(3)
H8 H 0.8392 0.6241 -0.0646
C13 C 0.8917(3) 0.5763(3) -0.0429(3)
H9 H 0.9167 0.5882 -0.0630
N1P N 0.9185(2) 0.4877(2) -0.1897(2)
N2P N 1.1919(2) 0.4166(2) 0.0145(2)
C1P C 0.8957(3) 0.4670(3) -0.1510(3)
H1P H 0.8663 0.4497 -0.1562
C2P C 0.9139(3) 0.4701(3) -0.1044(3)
H2P H 0.8969 0.4556 -0.0786
C3P C 0.9585(3) 0.4955(3) -0.0965(3)
C4P C 0.9832(3) 0.5143(3) -0.1364(3)
H3P H 1.0140 0.5294 -0.1328
C5P C 0.9615(3) 0.5104(3) -0.1820(3)
H4P H 0.9779 0.5243 -0.2084
C6P C 0.9797(3) 0.4994(3) -0.0474(3)
C7P C 1.0286(3) 0.4853(3) -0.0390(3)
H5P H 1.0480 0.4758 -0.0653
C8P C 1.0494(3) 0.4849(3) 0.0068(3)
C9P C 1.0996(3) 0.4635(3) 0.0120(3)
C10P C 1.1383(3) 0.4797(3) -0.0171(3)
H6P H 1.1340 0.5066 -0.0378
C11P C 1.1836(3) 0.4554(3) -0.0148(3)
H7P H 1.2094 0.4666 -0.0345
C12P C 1.1550(3) 0.4020(3) 0.0432(3)
H8P H 1.1608 0.3759 0.0646
C13P C 1.1083(3) 0.4237(3) 0.0429(3)
H9P H 1.0833 0.4118 0.0630
Cu1C Cu 0.87915(6) 0.5000 -0.2500
Cu1P Cu 1.2500 0.37085(6) 0.0000
N1V N 0.7377(2) 0.6685(2) -0.0603(2)
N2E N 0.6919(2) 0.5834(2) 0.0145(2)
Cu1 Cu 0.12085(6) 0.0000 0.7500
N1 N 0.2377(2) 0.3315(2) 0.9397(2)
N2 N 0.1666(2) 0.0581(2) 0.7355(2)
C1 C 0.2170(3) 0.3543(3) 0.9010(3)
H1 H 0.1997 0.3837 0.9062
C2 C 0.2201(3) 0.3361(3) 0.8544(3)
H2 H 0.2056 0.3531 0.8286
C3 C 0.2455(3) 0.2915(3) 0.8465(3)
C4 C 0.2643(3) 0.2668(3) 0.8864(3)
H3 H 0.2794 0.2360 0.8828
C5 C 0.2604(3) 0.2885(3) 0.9320(3)
H4 H 0.2743 0.2721 0.9584
C6 C 0.2494(3) 0.2703(3) 0.7974(3)
C7 C 0.2353(3) 0.2214(3) 0.7890(3)
H5 H 0.2258 0.2020 0.8153
C8 C 0.2349(3) 0.2006(3) 0.7432(3)
C9 C 0.2135(3) 0.1504(3) 0.7380(3)
C10 C 0.2297(3) 0.1117(3) 0.7671(3)
H6 H 0.2566 0.1160 0.7878
C11 C 0.2054(3) 0.0664(3) 0.7648(3)
H7 H 0.2166 0.0406 0.7845
C12 C 0.1520(3) 0.0950(3) 0.7068(3)
H8 H 0.1259 0.0892 0.6854
C13 C 0.1737(3) 0.1417(3) 0.7071(3)
H9 H 0.1618 0.1667 0.6870
N2P N 0.3334(2) 0.4419(2) 0.7645(2)
C1P C 0.2830(3) 0.1457(3) 0.5990(3)
H1P H 0.3003 0.1163 0.5938
C2P C 0.2799(3) 0.1639(3) 0.6456(3)
H2P H 0.2944 0.1469 0.6714
C3P C 0.2545(3) 0.2085(3) 0.6535(3)
C4P C 0.2357(3) 0.2332(3) 0.6136(3)
H3P H 0.2206 0.2640 0.6172
C5P C 0.2396(3) 0.2115(3) 0.5680(3)
H4P H 0.2257 0.2279 0.5416
C6P C 0.2506(3) 0.2297(3) 0.7026(3)
C7P C 0.2647(3) 0.2786(3) 0.7110(3)
H5P H 0.2742 0.2980 0.6847
C8P C 0.2651(3) 0.2994(3) 0.7568(3)
C9P C 0.2865(3) 0.3496(3) 0.7620(3)
C10P C 0.2703(3) 0.3883(3) 0.7329(3)
H6P H 0.2434 0.3840 0.7122
C11P C 0.2946(3) 0.4336(3) 0.7352(3)
H7P H 0.2834 0.4594 0.7155
C12P C 0.3480(3) 0.4050(3) 0.7932(3)
H8P H 0.3741 0.4108 0.8146
C13P C 0.3263(3) 0.3583(3) 0.7929(3)
H9P H 0.3382 0.3333 0.8130
N1V N 0.0815(2) -0.0123(2) 0.6897(2)
N1Y N 0.0815(2) 0.0123(2) 0.8103(2)
N2E N 0.1666(2) -0.0581(2) 0.7645(2)
N1 N -0.0815(2) 0.0123(2) 0.3103(2)
C1 C -0.1043(3) 0.0330(3) 0.3490(3)
H1 H -0.1337 0.0503 0.3438
C2 C -0.0861(3) 0.0299(3) 0.3956(3)
H2 H -0.1031 0.0444 0.4214
C3 C -0.0415(3) 0.0045(3) 0.4035(3)
C4 C -0.0168(3) -0.0143(3) 0.3636(3)
H3 H 0.0140 -0.0294 0.3672
C5 C -0.0385(3) -0.0104(3) 0.3180(3)
H4 H -0.0221 -0.0243 0.2916
C6 C -0.0203(3) 0.0006(3) 0.4526(3)
C7 C 0.0286(3) 0.0147(3) 0.4610(3)
H5 H 0.0480 0.0242 0.4347
C8 C 0.0494(3) 0.0151(3) 0.5068(3)
C9 C 0.0996(3) 0.0365(3) 0.5120(3)
C10 C 0.1383(3) 0.0203(3) 0.4829(3)
H6 H 0.1340 -0.0066 0.4622
C11 C 0.1836(3) 0.0446(3) 0.4852(3)
H7 H 0.2094 0.0334 0.4655
C12 C 0.1550(3) 0.0980(3) 0.5432(3)
H8 H 0.1608 0.1241 0.5646
C13 C 0.1083(3) 0.0763(3) 0.5429(3)
H9 H 0.0833 0.0882 0.5630
N2P N -0.1919(2) -0.0834(2) 0.4855(2)
C1P C 0.1043(3) -0.0330(3) 0.6510(3)
H1P H 0.1337 -0.0503 0.6562
C2P C 0.0861(3) -0.0299(3) 0.6044(3)
H2P H 0.1031 -0.0444 0.5786
C3P C 0.0415(3) -0.0045(3) 0.5965(3)
C4P C 0.0168(3) 0.0143(3) 0.6364(3)
H3P H -0.0140 0.0294 0.6328
C5P C 0.0385(3) 0.0104(3) 0.6820(3)
H4P H 0.0221 0.0243 0.7084
C6P C 0.0203(3) -0.0006(3) 0.5474(3)
C7P C -0.0286(3) -0.0147(3) 0.5390(3)
H5P H -0.0480 -0.0242 0.5653
C8P C -0.0494(3) -0.0151(3) 0.4932(3)
C9P C -0.0996(3) -0.0365(3) 0.4880(3)
C10P C -0.1383(3) -0.0203(3) 0.5171(3)
H6P H -0.1340 0.0066 0.5378
C11P C -0.1836(3) -0.0446(3) 0.5148(3)
H7P H -0.2094 -0.0334 0.5345
C12P C -0.1550(3) -0.0980(3) 0.4568(3)
H8P H -0.1608 -0.1241 0.4354
C13P C -0.1083(3) -0.0763(3) 0.4571(3)
H9P H -0.0833 -0.0882 0.4370
Cu1P Cu -0.2500 -0.12915(6) 0.5000
Cu1S Cu -0.12085(6) 0.0000 0.2500
N1 N 0.5815(2) 0.9877(2) 0.8103(2)
N2 N 0.3081(2) 0.9166(2) 1.0145(2)
C1 C 0.6043(3) 0.9670(3) 0.8490(3)
H1 H 0.6337 0.9497 0.8438
C2 C 0.5861(3) 0.9701(3) 0.8956(3)
H2 H 0.6031 0.9556 0.9214
C3 C 0.5415(3) 0.9955(3) 0.9035(3)
C4 C 0.5168(3) 1.0143(3) 0.8636(3)
H3 H 0.4860 1.0294 0.8672
C5 C 0.5385(3) 1.0104(3) 0.8180(3)
H4 H 0.5221 1.0243 0.7916
C6 C 0.5203(3) 0.9994(3) 0.9526(3)
C7 C 0.4714(3) 0.9853(3) 0.9610(3)
H5 H 0.4520 0.9758 0.9347
C8 C 0.4506(3) 0.9849(3) 1.0068(3)
C9 C 0.4004(3) 0.9635(3) 1.0120(3)
C10 C 0.3617(3) 0.9797(3) 0.9829(3)
H6 H 0.3660 1.0066 0.9622
C11 C 0.3164(3) 0.9554(3) 0.9852(3)
H7 H 0.2906 0.9666 0.9655
C12 C 0.3450(3) 0.9020(3) 1.0432(3)
H8 H 0.3392 0.8759 1.0646
C13 C 0.3917(3) 0.9237(3) 1.0429(3)
H9 H 0.4167 0.9118 1.0630
N1P N 0.4185(2) 1.0123(2) 1.1897(2)
N2P N 0.6919(2) 1.0834(2) 0.9855(2)
C1P C 0.3957(3) 1.0330(3) 1.1510(3)
H1P H 0.3663 1.0503 1.1562
C2P C 0.4139(3) 1.0299(3) 1.1044(3)
H2P H 0.3969 1.0444 1.0786
C3P C 0.4585(3) 1.0045(3) 1.0965(3)
C4P C 0.4832(3) 0.9857(3) 1.1364(3)
H3P H 0.5140 0.9706 1.1328
C5P C 0.4615(3) 0.9896(3) 1.1820(3)
H4P H 0.4779 0.9757 1.2084
C6P C 0.4797(3) 1.0006(3) 1.0474(3)
C7P C 0.5286(3) 1.0147(3) 1.0390(3)
H5P H 0.5480 1.0242 1.0653
C8P C 0.5494(3) 1.0151(3) 0.9932(3)
C9P C 0.5996(3) 1.0365(3) 0.9880(3)
C10P C 0.6383(3) 1.0203(3) 1.0171(3)
H6P H 0.6340 0.9934 1.0378
C11P C 0.6836(3) 1.0446(3) 1.0148(3)
H7P H 0.7094 1.0334 1.0345
C12P C 0.6550(3) 1.0980(3) 0.9568(3)
H8P H 0.6608 1.1241 0.9354
C13P C 0.6083(3) 1.0763(3) 0.9571(3)
H9P H 0.5833 1.0882 0.9370
Cu1C Cu 0.37915(6) 1.0000 1.2500
Cu1P Cu 0.7500 1.12915(6) 1.0000
N1V N 0.2377(2) 0.8315(2) 1.0603(2)
N2E N 0.1919(2) 0.9166(2) 0.9855(2)
N1 N 0.7377(2) 0.1685(2) 0.0603(2)
C1 C 0.7170(3) 0.1457(3) 0.0990(3)
H1 H 0.6997 0.1163 0.0938
C2 C 0.7201(3) 0.1639(3) 0.1456(3)
H2 H 0.7056 0.1469 0.1714
C3 C 0.7455(3) 0.2085(3) 0.1535(3)
C4 C 0.7643(3) 0.2332(3) 0.1136(3)
H3 H 0.7794 0.2640 0.1172
C5 C 0.7604(3) 0.2115(3) 0.0680(3)
H4 H 0.7743 0.2279 0.0416
C6 C 0.7494(3) 0.2297(3) 0.2026(3)
C7 C 0.7353(3) 0.2786(3) 0.2110(3)
H5 H 0.7258 0.2980 0.1847
C8 C 0.7349(3) 0.2994(3) 0.2568(3)
C9 C 0.7135(3) 0.3496(3) 0.2620(3)
C10 C 0.7297(3) 0.3883(3) 0.2329(3)
H6 H 0.7566 0.3840 0.2122
C11 C 0.7054(3) 0.4336(3) 0.2352(3)
H7 H 0.7166 0.4594 0.2155
C12 C 0.6520(3) 0.4050(3) 0.2932(3)
H8 H 0.6259 0.4108 0.3146
C13 C 0.6737(3) 0.3583(3) 0.2929(3)
H9 H 0.6618 0.3333 0.3130
N2P N 0.8334(2) 0.0581(2) 0.2355(2)
C1P C 0.7830(3) 0.3543(3) 0.4010(3)
H1P H 0.8003 0.3837 0.4062
C2P C 0.7799(3) 0.3361(3) 0.3544(3)
H2P H 0.7944 0.3531 0.3286
C3P C 0.7545(3) 0.2915(3) 0.3465(3)
C4P C 0.7357(3) 0.2668(3) 0.3864(3)
H3P H 0.7206 0.2360 0.3828
C5P C 0.7396(3) 0.2885(3) 0.4320(3)
H4P H 0.7257 0.2721 0.4584
C6P C 0.7506(3) 0.2703(3) 0.2974(3)
C7P C 0.7647(3) 0.2214(3) 0.2890(3)
H5P H 0.7742 0.2020 0.3153
C8P C 0.7651(3) 0.2006(3) 0.2432(3)
C9P C 0.7865(3) 0.1504(3) 0.2380(3)
C10P C 0.7703(3) 0.1117(3) 0.2671(3)
H6P H 0.7434 0.1160 0.2878
C11P C 0.7946(3) 0.0664(3) 0.2648(3)
H7P H 0.7834 0.0406 0.2845
C12P C 0.8480(3) 0.0950(3) 0.2068(3)
H8P H 0.8741 0.0892 0.1854
C13P C 0.8263(3) 0.1417(3) 0.2071(3)
H9P H 0.8382 0.1667 0.1870
Cu1P Cu 0.87915(6) 0.0000 0.2500
Cu1S Cu 0.7500 0.12915(6) 0.0000
N1 N 0.2623(2) 0.3315(2) 0.0603(2)
N2 N 0.3334(2) 0.0581(2) 0.2645(2)
C1 C 0.2830(3) 0.3543(3) 0.0990(3)
H1 H 0.3003 0.3837 0.0938
C2 C 0.2799(3) 0.3361(3) 0.1456(3)
H2 H 0.2944 0.3531 0.1714
C3 C 0.2545(3) 0.2915(3) 0.1535(3)
C4 C 0.2357(3) 0.2668(3) 0.1136(3)
H3 H 0.2206 0.2360 0.1172
C5 C 0.2396(3) 0.2885(3) 0.0680(3)
H4 H 0.2257 0.2721 0.0416
C6 C 0.2506(3) 0.2703(3) 0.2026(3)
C7 C 0.2647(3) 0.2214(3) 0.2110(3)
H5 H 0.2742 0.2020 0.1847
C8 C 0.2651(3) 0.2006(3) 0.2568(3)
C9 C 0.2865(3) 0.1504(3) 0.2620(3)
C10 C 0.2703(3) 0.1117(3) 0.2329(3)
H6 H 0.2434 0.1160 0.2122
C11 C 0.2946(3) 0.0664(3) 0.2352(3)
H7 H 0.2834 0.0406 0.2155
C12 C 0.3480(3) 0.0950(3) 0.2932(3)
H8 H 0.3741 0.0892 0.3146
C13 C 0.3263(3) 0.1417(3) 0.2929(3)
H9 H 0.3382 0.1667 0.3130
N2P N 0.1666(2) 0.4419(2) 0.2355(2)
C1P C 0.2170(3) 0.1457(3) 0.4010(3)
H1P H 0.1997 0.1163 0.4062
C2P C 0.2201(3) 0.1639(3) 0.3544(3)
H2P H 0.2056 0.1469 0.3286
C3P C 0.2455(3) 0.2085(3) 0.3465(3)
C4P C 0.2643(3) 0.2332(3) 0.3864(3)
H3P H 0.2794 0.2640 0.3828
C5P C 0.2604(3) 0.2115(3) 0.4320(3)
H4P H 0.2743 0.2279 0.4584
C6P C 0.2494(3) 0.2297(3) 0.2974(3)
C7P C 0.2353(3) 0.2786(3) 0.2890(3)
H5P H 0.2258 0.2980 0.3153
C8P C 0.2349(3) 0.2994(3) 0.2432(3)
C9P C 0.2135(3) 0.3496(3) 0.2380(3)
C10P C 0.2297(3) 0.3883(3) 0.2671(3)
H6P H 0.2566 0.3840 0.2878
C11P C 0.2054(3) 0.4336(3) 0.2648(3)
H7P H 0.2166 0.4594 0.2845
C12P C 0.1520(3) 0.4050(3) 0.2068(3)
H8P H 0.1259 0.4108 0.1854
C13P C 0.1737(3) 0.3583(3) 0.2071(3)
H9P H 0.1618 0.3333 0.1870
Cu1S Cu 0.2500 0.37085(6) 0.0000
N1Y N 0.4185(2) 0.0123(2) 0.1897(2)
N2E N 0.3334(2) -0.0581(2) 0.2355(2)
N2E N 0.1919(2) 0.5834(2) 0.4855(2)
N1V N 0.0815(2) 0.4877(2) 0.3103(2)
N1Y N 0.0815(2) 0.5123(2) 0.1897(2)
N2 N 0.6919(2) 0.9166(2) 0.5145(2)
C1 C 0.3957(3) 0.9670(3) 0.3490(3)
H1 H 0.3663 0.9497 0.3438
C2 C 0.4139(3) 0.9701(3) 0.3956(3)
H2 H 0.3969 0.9556 0.4214
C3 C 0.4585(3) 0.9955(3) 0.4035(3)
C4 C 0.4832(3) 1.0143(3) 0.3636(3)
H3 H 0.5140 1.0294 0.3672
C5 C 0.4615(3) 1.0104(3) 0.3180(3)
H4 H 0.4779 1.0243 0.2916
C6 C 0.4797(3) 0.9994(3) 0.4526(3)
C7 C 0.5286(3) 0.9853(3) 0.4610(3)
H5 H 0.5480 0.9758 0.4347
C8 C 0.5494(3) 0.9849(3) 0.5068(3)
C9 C 0.5996(3) 0.9635(3) 0.5120(3)
C10 C 0.6383(3) 0.9797(3) 0.4829(3)
H6 H 0.6340 1.0066 0.4622
C11 C 0.6836(3) 0.9554(3) 0.4852(3)
H7 H 0.7094 0.9666 0.4655
C12 C 0.6550(3) 0.9020(3) 0.5432(3)
H8 H 0.6608 0.8759 0.5646
C13 C 0.6083(3) 0.9237(3) 0.5429(3)
H9 H 0.5833 0.9118 0.5630
N1P N 0.5815(2) 1.0123(2) 0.6897(2)
N2P N 0.3081(2) 1.0834(2) 0.4855(2)
C1P C 0.6043(3) 1.0330(3) 0.6510(3)
H1P H 0.6337 1.0503 0.6562
C2P C 0.5861(3) 1.0299(3) 0.6044(3)
H2P H 0.6031 1.0444 0.5786
C3P C 0.5415(3) 1.0045(3) 0.5965(3)
C4P C 0.5168(3) 0.9857(3) 0.6364(3)
H3P H 0.4860 0.9706 0.6328
C5P C 0.5385(3) 0.9896(3) 0.6820(3)
H4P H 0.5221 0.9757 0.7084
C6P C 0.5203(3) 1.0006(3) 0.5474(3)
C7P C 0.4714(3) 1.0147(3) 0.5390(3)
H5P H 0.4520 1.0242 0.5653
C8P C 0.4506(3) 1.0151(3) 0.4932(3)
C9P C 0.4004(3) 1.0365(3) 0.4880(3)
C10P C 0.3617(3) 1.0203(3) 0.5171(3)
H6P H 0.3660 0.9934 0.5378
C11P C 0.3164(3) 1.0446(3) 0.5148(3)
H7P H 0.2906 1.0334 0.5345
C12P C 0.3450(3) 1.0980(3) 0.4568(3)
H8P H 0.3392 1.1241 0.4354
C13P C 0.3917(3) 1.0763(3) 0.4571(3)
H9P H 0.4167 1.0882 0.4370
Cu1P Cu 0.2500 1.12915(6) 0.5000
N2E N 0.8081(2) 0.9166(2) 0.4855(2)
N2 N 0.3081(2) 0.4166(2) -0.0145(2)
C1 C 0.6043(3) 0.4670(3) 0.1510(3)
H1 H 0.6337 0.4497 0.1562
C2 C 0.5861(3) 0.4701(3) 0.1044(3)
H2 H 0.6031 0.4556 0.0786
C3 C 0.5415(3) 0.4955(3) 0.0965(3)
C4 C 0.5168(3) 0.5143(3) 0.1364(3)
H3 H 0.4860 0.5294 0.1328
C5 C 0.5385(3) 0.5104(3) 0.1820(3)
H4 H 0.5221 0.5243 0.2084
C6 C 0.5203(3) 0.4994(3) 0.0474(3)
C7 C 0.4714(3) 0.4853(3) 0.0390(3)
H5 H 0.4520 0.4758 0.0653
C8 C 0.4506(3) 0.4849(3) -0.0068(3)
C9 C 0.4004(3) 0.4635(3) -0.0120(3)
C10 C 0.3617(3) 0.4797(3) 0.0171(3)
H6 H 0.3660 0.5066 0.0378
C11 C 0.3164(3) 0.4554(3) 0.0148(3)
H7 H 0.2906 0.4666 0.0345
C12 C 0.3450(3) 0.4020(3) -0.0432(3)
H8 H 0.3392 0.3759 -0.0646
C13 C 0.3917(3) 0.4237(3) -0.0429(3)
H9 H 0.4167 0.4118 -0.0630
N1P N 0.4185(2) 0.5123(2) -0.1897(2)
C1P C 0.3957(3) 0.5330(3) -0.1510(3)
H1P H 0.3663 0.5503 -0.1562
C2P C 0.4139(3) 0.5299(3) -0.1044(3)
H2P H 0.3969 0.5444 -0.0786
C3P C 0.4585(3) 0.5045(3) -0.0965(3)
C4P C 0.4832(3) 0.4857(3) -0.1364(3)
H3P H 0.5140 0.4706 -0.1328
C5P C 0.4615(3) 0.4896(3) -0.1820(3)
H4P H 0.4779 0.4757 -0.2084
C6P C 0.4797(3) 0.5006(3) -0.0474(3)
C7P C 0.5286(3) 0.5147(3) -0.0390(3)
H5P H 0.5480 0.5242 -0.0653
C8P C 0.5494(3) 0.5151(3) 0.0068(3)
C9P C 0.5996(3) 0.5365(3) 0.0120(3)
C10P C 0.6383(3) 0.5203(3) -0.0171(3)
H6P H 0.6340 0.4934 -0.0378
C11P C 0.6836(3) 0.5446(3) -0.0148(3)
H7P H 0.7094 0.5334 -0.0345
C12P C 0.6550(3) 0.5980(3) 0.0432(3)
H8P H 0.6608 0.6241 0.0646
C13P C 0.6083(3) 0.5763(3) 0.0429(3)
H9P H 0.5833 0.5882 0.0630
Cu1C Cu 0.37915(6) 0.5000 -0.2500
N1V N 0.2377(2) 0.3315(2) -0.0603(2)
N2E N 0.1919(2) 0.4166(2) 0.0145(2)
N1 N -0.0815(2) 0.5123(2) 0.6897(2)
C1 C -0.1043(3) 0.5330(3) 0.6510(3)
H1 H -0.1337 0.5503 0.6562
C2 C -0.0861(3) 0.5299(3) 0.6044(3)
H2 H -0.1031 0.5444 0.5786
C3 C -0.0415(3) 0.5045(3) 0.5965(3)
C4 C -0.0168(3) 0.4857(3) 0.6364(3)
H3 H 0.0140 0.4706 0.6328
C5 C -0.0385(3) 0.4896(3) 0.6820(3)
H4 H -0.0221 0.4757 0.7084
C6 C -0.0203(3) 0.5006(3) 0.5474(3)
C7 C 0.0286(3) 0.5147(3) 0.5390(3)
H5 H 0.0480 0.5242 0.5653
C8 C 0.0494(3) 0.5151(3) 0.4932(3)
C9 C 0.0996(3) 0.5365(3) 0.4880(3)
C10 C 0.1383(3) 0.5203(3) 0.5171(3)
H6 H 0.1340 0.4934 0.5378
C11 C 0.1836(3) 0.5446(3) 0.5148(3)
H7 H 0.2094 0.5334 0.5345
C12 C 0.1550(3) 0.5980(3) 0.4568(3)
H8 H 0.1608 0.6241 0.4354
C13 C 0.1083(3) 0.5763(3) 0.4571(3)
H9 H 0.0833 0.5882 0.4370
N2P N -0.1919(2) 0.4166(2) 0.5145(2)
C1P C 0.1043(3) 0.4670(3) 0.3490(3)
H1P H 0.1337 0.4497 0.3438
C2P C 0.0861(3) 0.4701(3) 0.3956(3)
H2P H 0.1031 0.4556 0.4214
C3P C 0.0415(3) 0.4955(3) 0.4035(3)
C4P C 0.0168(3) 0.5143(3) 0.3636(3)
H3P H -0.0140 0.5294 0.3672
C5P C 0.0385(3) 0.5104(3) 0.3180(3)
H4P H 0.0221 0.5243 0.2916
C6P C 0.0203(3) 0.4994(3) 0.4526(3)
C7P C -0.0286(3) 0.4853(3) 0.4610(3)
H5P H -0.0480 0.4758 0.4347
C8P C -0.0494(3) 0.4849(3) 0.5068(3)
C9P C -0.0996(3) 0.4635(3) 0.5120(3)
C10P C -0.1383(3) 0.4797(3) 0.4829(3)
H6P H -0.1340 0.5066 0.4622
C11P C -0.1836(3) 0.4554(3) 0.4852(3)
H7P H -0.2094 0.4666 0.4655
C12P C -0.1550(3) 0.4020(3) 0.5432(3)
H8P H -0.1608 0.3759 0.5646
C13P C -0.1083(3) 0.4237(3) 0.5429(3)
H9P H -0.0833 0.4118 0.5630
Cu1P Cu -0.2500 0.37085(6) 0.5000
Cu1S Cu -0.12085(6) 0.5000 0.7500
N1V N 0.9185(2) -0.0123(2) 0.1897(2)
N1Y N 0.9185(2) 0.0123(2) 0.3103(2)
N2E N 0.8334(2) -0.0581(2) 0.2645(2)
N1 N 1.0815(2) 0.0123(2) 0.8103(2)
N2 N 0.8081(2) 0.0834(2) 1.0145(2)
C1 C 1.1043(3) 0.0330(3) 0.8490(3)
H1 H 1.1337 0.0503 0.8438
C2 C 1.0861(3) 0.0299(3) 0.8956(3)
H2 H 1.1031 0.0444 0.9214
C3 C 1.0415(3) 0.0045(3) 0.9035(3)
C4 C 1.0168(3) -0.0143(3) 0.8636(3)
H3 H 0.9860 -0.0294 0.8672
C5 C 1.0385(3) -0.0104(3) 0.8180(3)
H4 H 1.0221 -0.0243 0.7916
C6 C 1.0203(3) 0.0006(3) 0.9526(3)
C7 C 0.9714(3) 0.0147(3) 0.9610(3)
H5 H 0.9520 0.0242 0.9347
C8 C 0.9506(3) 0.0151(3) 1.0068(3)
C9 C 0.9004(3) 0.0365(3) 1.0120(3)
C10 C 0.8617(3) 0.0203(3) 0.9829(3)
H6 H 0.8660 -0.0066 0.9622
C11 C 0.8164(3) 0.0446(3) 0.9852(3)
H7 H 0.7906 0.0334 0.9655
C12 C 0.8450(3) 0.0980(3) 1.0432(3)
H8 H 0.8392 0.1241 1.0646
C13 C 0.8917(3) 0.0763(3) 1.0429(3)
H9 H 0.9167 0.0882 1.0630
N1P N 0.9185(2) -0.0123(2) 1.1897(2)
N2P N 1.1919(2) -0.0834(2) 0.9855(2)
C1P C 0.8957(3) -0.0330(3) 1.1510(3)
H1P H 0.8663 -0.0503 1.1562
C2P C 0.9139(3) -0.0299(3) 1.1044(3)
H2P H 0.8969 -0.0444 1.0786
C3P C 0.9585(3) -0.0045(3) 1.0965(3)
C4P C 0.9832(3) 0.0143(3) 1.1364(3)
H3P H 1.0140 0.0294 1.1328
C5P C 0.9615(3) 0.0104(3) 1.1820(3)
H4P H 0.9779 0.0243 1.2084
C6P C 0.9797(3) -0.0006(3) 1.0474(3)
C7P C 1.0286(3) -0.0147(3) 1.0390(3)
H5P H 1.0480 -0.0242 1.0653
C8P C 1.0494(3) -0.0151(3) 0.9932(3)
C9P C 1.0996(3) -0.0365(3) 0.9880(3)
C10P C 1.1383(3) -0.0203(3) 1.0171(3)
H6P H 1.1340 0.0066 1.0378
C11P C 1.1836(3) -0.0446(3) 1.0148(3)
H7P H 1.2094 -0.0334 1.0345
C12P C 1.1550(3) -0.0980(3) 0.9568(3)
H8P H 1.1608 -0.1241 0.9354
C13P C 1.1083(3) -0.0763(3) 0.9571(3)
H9P H 1.0833 -0.0882 0.9370
Cu1C Cu 0.87915(6) 0.0000 1.2500
Cu1P Cu 1.2500 -0.12915(6) 1.0000
Cu1S Cu 1.12085(6) 0.0000 0.7500
N1V N 0.7377(2) 0.1685(2) 1.0603(2)
N2E N 0.6919(2) 0.0834(2) 0.9855(2)
N1V N 0.5815(2) -0.0123(2) 0.8103(2)
N2E N 0.6666(2) -0.0581(2) 0.7355(2)
N1 N -0.0815(2) 0.4877(2) 0.8103(2)
N2 N 0.1919(2) 0.4166(2) 1.0145(2)
C1 C -0.1043(3) 0.4670(3) 0.8490(3)
H1 H -0.1337 0.4497 0.8438
C2 C -0.0861(3) 0.4701(3) 0.8956(3)
H2 H -0.1031 0.4556 0.9214
C3 C -0.0415(3) 0.4955(3) 0.9035(3)
C4 C -0.0168(3) 0.5143(3) 0.8636(3)
H3 H 0.0140 0.5294 0.8672
C5 C -0.0385(3) 0.5104(3) 0.8180(3)
H4 H -0.0221 0.5243 0.7916
C6 C -0.0203(3) 0.4994(3) 0.9526(3)
C7 C 0.0286(3) 0.4853(3) 0.9610(3)
H5 H 0.0480 0.4758 0.9347
C8 C 0.0494(3) 0.4849(3) 1.0068(3)
C9 C 0.0996(3) 0.4635(3) 1.0120(3)
C10 C 0.1383(3) 0.4797(3) 0.9829(3)
H6 H 0.1340 0.5066 0.9622
C11 C 0.1836(3) 0.4554(3) 0.9852(3)
H7 H 0.2094 0.4666 0.9655
C12 C 0.1550(3) 0.4020(3) 1.0432(3)
H8 H 0.1608 0.3759 1.0646
C13 C 0.1083(3) 0.4237(3) 1.0429(3)
H9 H 0.0833 0.4118 1.0630
N1P N 0.0815(2) 0.5123(2) 1.1897(2)
N2P N -0.1919(2) 0.5834(2) 0.9855(2)
C1P C 0.1043(3) 0.5330(3) 1.1510(3)
H1P H 0.1337 0.5503 1.1562
C2P C 0.0861(3) 0.5299(3) 1.1044(3)
H2P H 0.1031 0.5444 1.0786
C3P C 0.0415(3) 0.5045(3) 1.0965(3)
C4P C 0.0168(3) 0.4857(3) 1.1364(3)
H3P H -0.0140 0.4706 1.1328
C5P C 0.0385(3) 0.4896(3) 1.1820(3)
H4P H 0.0221 0.4757 1.2084
C6P C 0.0203(3) 0.5006(3) 1.0474(3)
C7P C -0.0286(3) 0.5147(3) 1.0390(3)
H5P H -0.0480 0.5242 1.0653
C8P C -0.0494(3) 0.5151(3) 0.9932(3)
C9P C -0.0996(3) 0.5365(3) 0.9880(3)
C10P C -0.1383(3) 0.5203(3) 1.0171(3)
H6P H -0.1340 0.4934 1.0378
C11P C -0.1836(3) 0.5446(3) 1.0148(3)
H7P H -0.2094 0.5334 1.0345
C12P C -0.1550(3) 0.5980(3) 0.9568(3)
H8P H -0.1608 0.6241 0.9354
C13P C -0.1083(3) 0.5763(3) 0.9571(3)
H9P H -0.0833 0.5882 0.9370
Cu1C Cu 0.12085(6) 0.5000 1.2500
Cu1P Cu -0.2500 0.62915(6) 1.0000
N1V N 0.2623(2) 0.3315(2) 1.0603(2)
N1V N 0.9185(2) 1.0123(2) 0.3103(2)
N1Y N 0.9185(2) 0.9877(2) 0.1897(2)
N2E N 0.8334(2) 1.0581(2) 0.2355(2)
N1 N 1.0815(2) 0.9877(2) 0.6897(2)
C1 C 1.1043(3) 0.9670(3) 0.6510(3)
H1 H 1.1337 0.9497 0.6562
C2 C 1.0861(3) 0.9701(3) 0.6044(3)
H2 H 1.1031 0.9556 0.5786
C3 C 1.0415(3) 0.9955(3) 0.5965(3)
C4 C 1.0168(3) 1.0143(3) 0.6364(3)
H3 H 0.9860 1.0294 0.6328
C5 C 1.0385(3) 1.0104(3) 0.6820(3)
H4 H 1.0221 1.0243 0.7084
C6 C 1.0203(3) 0.9994(3) 0.5474(3)
C7 C 0.9714(3) 0.9853(3) 0.5390(3)
H5 H 0.9520 0.9758 0.5653
C8 C 0.9506(3) 0.9849(3) 0.4932(3)
C9 C 0.9004(3) 0.9635(3) 0.4880(3)
C10 C 0.8617(3) 0.9797(3) 0.5171(3)
H6 H 0.8660 1.0066 0.5378
C11 C 0.8164(3) 0.9554(3) 0.5148(3)
H7 H 0.7906 0.9666 0.5345
C12 C 0.8450(3) 0.9020(3) 0.4568(3)
H8 H 0.8392 0.8759 0.4354
C13 C 0.8917(3) 0.9237(3) 0.4571(3)
H9 H 0.9167 0.9118 0.4370
N2P N 1.1919(2) 1.0834(2) 0.5145(2)
C1P C 0.8957(3) 1.0330(3) 0.3490(3)
H1P H 0.8663 1.0503 0.3438
C2P C 0.9139(3) 1.0299(3) 0.3956(3)
H2P H 0.8969 1.0444 0.4214
C3P C 0.9585(3) 1.0045(3) 0.4035(3)
C4P C 0.9832(3) 0.9857(3) 0.3636(3)
H3P H 1.0140 0.9706 0.3672
C5P C 0.9615(3) 0.9896(3) 0.3180(3)
H4P H 0.9779 0.9757 0.2916
C6P C 0.9797(3) 1.0006(3) 0.4526(3)
C7P C 1.0286(3) 1.0147(3) 0.4610(3)
H5P H 1.0480 1.0242 0.4347
C8P C 1.0494(3) 1.0151(3) 0.5068(3)
C9P C 1.0996(3) 1.0365(3) 0.5120(3)
C10P C 1.1383(3) 1.0203(3) 0.4829(3)
H6P H 1.1340 0.9934 0.4622
C11P C 1.1836(3) 1.0446(3) 0.4852(3)
H7P H 1.2094 1.0334 0.4655
C12P C 1.1550(3) 1.0980(3) 0.5432(3)
H8P H 1.1608 1.1241 0.5646
C13P C 1.1083(3) 1.0763(3) 0.5429(3)
H9P H 1.0833 1.0882 0.5630
Cu1P Cu 1.2500 1.12915(6) 0.5000
Cu1S Cu 1.12085(6) 1.0000 0.7500
N2 N 0.6919(2) 0.0834(2) -0.0145(2)
C1 C 0.3957(3) 0.0330(3) 0.1510(3)
H1 H 0.3663 0.0503 0.1562
C2 C 0.4139(3) 0.0299(3) 0.1044(3)
H2 H 0.3969 0.0444 0.0786
C3 C 0.4585(3) 0.0045(3) 0.0965(3)
C4 C 0.4832(3) -0.0143(3) 0.1364(3)
H3 H 0.5140 -0.0294 0.1328
C5 C 0.4615(3) -0.0104(3) 0.1820(3)
H4 H 0.4779 -0.0243 0.2084
C6 C 0.4797(3) 0.0006(3) 0.0474(3)
C7 C 0.5286(3) 0.0147(3) 0.0390(3)
H5 H 0.5480 0.0242 0.0653
C8 C 0.5494(3) 0.0151(3) -0.0068(3)
C9 C 0.5996(3) 0.0365(3) -0.0120(3)
C10 C 0.6383(3) 0.0203(3) 0.0171(3)
H6 H 0.6340 -0.0066 0.0378
C11 C 0.6836(3) 0.0446(3) 0.0148(3)
H7 H 0.7094 0.0334 0.0345
C12 C 0.6550(3) 0.0980(3) -0.0432(3)
H8 H 0.6608 0.1241 -0.0646
C13 C 0.6083(3) 0.0763(3) -0.0429(3)
H9 H 0.5833 0.0882 -0.0630
N1P N 0.5815(2) -0.0123(2) -0.1897(2)
N2P N 0.3081(2) -0.0834(2) 0.0145(2)
C1P C 0.6043(3) -0.0330(3) -0.1510(3)
H1P H 0.6337 -0.0503 -0.1562
C2P C 0.5861(3) -0.0299(3) -0.1044(3)
H2P H 0.6031 -0.0444 -0.0786
C3P C 0.5415(3) -0.0045(3) -0.0965(3)
C4P C 0.5168(3) 0.0143(3) -0.1364(3)
H3P H 0.4860 0.0294 -0.1328
C5P C 0.5385(3) 0.0104(3) -0.1820(3)
H4P H 0.5221 0.0243 -0.2084
C6P C 0.5203(3) -0.0006(3) -0.0474(3)
C7P C 0.4714(3) -0.0147(3) -0.0390(3)
H5P H 0.4520 -0.0242 -0.0653
C8P C 0.4506(3) -0.0151(3) 0.0068(3)
C9P C 0.4004(3) -0.0365(3) 0.0120(3)
C10P C 0.3617(3) -0.0203(3) -0.0171(3)
H6P H 0.3660 0.0066 -0.0378
C11P C 0.3164(3) -0.0446(3) -0.0148(3)
H7P H 0.2906 -0.0334 -0.0345
C12P C 0.3450(3) -0.0980(3) 0.0432(3)
H8P H 0.3392 -0.1241 0.0646
C13P C 0.3917(3) -0.0763(3) 0.0429(3)
H9P H 0.4167 -0.0882 0.0630
Cu1C Cu 0.62085(6) 0.0000 -0.2500
Cu1P Cu 0.2500 -0.12915(6) 0.0000
N1V N 0.7623(2) 0.1685(2) -0.0603(2)
N2E N 0.8081(2) 0.0834(2) 0.0145(2)
N2E N 0.6666(2) 1.0581(2) 0.7645(2)
C14 C 0.7108(12) 0.3108(13) 1.0066(12)
H10 H 0.6955 0.2800 1.0157
H11 H 0.7131 0.3320 1.0345
C15 C 0.692(3) 0.367(3) 0.928(2)
H12 H 0.7220 0.3565 0.9130
H13 H 0.6948 0.4004 0.9391
H14 H 0.6649 0.3645 0.9053
N3 N 0.681(2) 0.335(2) 0.9695(17)
H15 H 0.6592 0.3520 0.9866
H16 H 0.6643 0.3098 0.9565
C14 C 0.9392(13) 0.4608(12) 0.2566(12)
H10 H 0.9700 0.4455 0.2657
H11 H 0.9180 0.4631 0.2845
C15 C 0.883(3) 0.442(3) 0.178(2)
H12 H 0.8935 0.4720 0.1630
H13 H 0.8496 0.4448 0.1891
H14 H 0.8855 0.4149 0.1553
N3 N 0.915(2) 0.431(2) 0.2195(17)
H15 H 0.8980 0.4092 0.2366
H16 H 0.9402 0.4143 0.2065
C14 C 0.2892(12) 0.1892(13) 1.0066(12)
H10 H 0.3045 0.2200 1.0157
H11 H 0.2869 0.1680 1.0345
C15 C 0.308(3) 0.133(3) 0.928(2)
H12 H 0.2780 0.1435 0.9130
H13 H 0.3052 0.0996 0.9391
H14 H 0.3351 0.1355 0.9053
N3 N 0.319(2) 0.165(2) 0.9695(17)
H15 H 0.3408 0.1480 0.9866
H16 H 0.3357 0.1902 0.9565
C14 C 0.5608(13) 0.5392(12) 0.7566(12)
H10 H 0.5300 0.5545 0.7657
H11 H 0.5820 0.5369 0.7845
C15 C 0.617(3) 0.558(3) 0.678(2)
H12 H 0.6065 0.5280 0.6630
H13 H 0.6504 0.5552 0.6891
H14 H 0.6145 0.5851 0.6553
N3 N 0.585(2) 0.569(2) 0.7195(17)
H15 H 0.6020 0.5908 0.7366
H16 H 0.5598 0.5857 0.7065
C14 C 0.7108(12) 0.6892(13) 0.4934(12)
H10 H 0.6955 0.7200 0.4843
H11 H 0.7131 0.6680 0.4655
C15 C 0.692(3) 0.633(3) 0.572(2)
H12 H 0.7220 0.6435 0.5870
H13 H 0.6948 0.5996 0.5609
H14 H 0.6649 0.6355 0.5947
N3 N 0.681(2) 0.665(2) 0.5305(17)
H15 H 0.6592 0.6480 0.5134
H16 H 0.6643 0.6902 0.5435
C14 C 0.7892(12) 0.3108(13) -0.0066(12)
H10 H 0.8045 0.2800 -0.0157
H11 H 0.7869 0.3320 -0.0345
C15 C 0.808(3) 0.367(3) 0.072(2)
H12 H 0.7780 0.3565 0.0870
H13 H 0.8052 0.4004 0.0609
H14 H 0.8351 0.3645 0.0947
N3 N 0.819(2) 0.335(2) 0.0305(17)
H15 H 0.8408 0.3520 0.0134
H16 H 0.8357 0.3098 0.0435
C14 C 0.0608(13) 0.9608(12) 0.2434(12)
H10 H 0.0300 0.9455 0.2343
H11 H 0.0820 0.9631 0.2155
C15 C 0.117(3) 0.942(3) 0.322(2)
H12 H 0.1065 0.9720 0.3370
H13 H 0.1504 0.9448 0.3109
H14 H 0.1145 0.9149 0.3447
N3 N 0.085(2) 0.931(2) 0.2805(17)
H15 H 0.1020 0.9092 0.2634
H16 H 0.0598 0.9143 0.2935
C14 C 0.9392(13) 0.5392(12) 0.2434(12)
H10 H 0.9700 0.5545 0.2343
H11 H 0.9180 0.5369 0.2155
C15 C 0.883(3) 0.558(3) 0.322(2)
H12 H 0.8935 0.5280 0.3370
H13 H 0.8496 0.5552 0.3109
H14 H 0.8855 0.5851 0.3447
N3 N 0.915(2) 0.569(2) 0.2805(17)
H15 H 0.8980 0.5908 0.2634
H16 H 0.9402 0.5857 0.2935
C14 C 0.2108(12) 0.8108(13) 0.5066(12)
H10 H 0.1955 0.7800 0.5157
H11 H 0.2131 0.8320 0.5345
C15 C 0.192(3) 0.867(3) 0.428(2)
H12 H 0.2220 0.8565 0.4130
H13 H 0.1948 0.9004 0.4391
H14 H 0.1649 0.8645 0.4053
N3 N 0.181(2) 0.835(2) 0.4695(17)
H15 H 0.1592 0.8520 0.4866
H16 H 0.1643 0.8098 0.4565
C14 C 0.4392(13) 0.9608(12) 0.7566(12)
H10 H 0.4700 0.9455 0.7657
H11 H 0.4180 0.9631 0.7845
C15 C 0.383(3) 0.942(3) 0.678(2)
H12 H 0.3935 0.9720 0.6630
H13 H 0.3496 0.9448 0.6891
H14 H 0.3855 0.9149 0.6553
N3 N 0.415(2) 0.931(2) 0.7195(17)
H15 H 0.3980 0.9092 0.7366
H16 H 0.4402 0.9143 0.7065
C14 C 0.7892(12) 0.6892(13) 0.5066(12)
H10 H 0.8045 0.7200 0.5157
H11 H 0.7869 0.6680 0.5345
C15 C 0.808(3) 0.633(3) 0.428(2)
H12 H 0.7780 0.6435 0.4130
H13 H 0.8052 0.5996 0.4391
H14 H 0.8351 0.6355 0.4053
N3 N 0.819(2) 0.665(2) 0.4695(17)
H15 H 0.8408 0.6480 0.4866
H16 H 0.8357 0.6902 0.4565
C14 C 0.0608(13) 0.0392(12) 0.2566(12)
H10 H 0.0300 0.0545 0.2657
H11 H 0.0820 0.0369 0.2845
C15 C 0.117(3) 0.058(3) 0.178(2)
H12 H 0.1065 0.0280 0.1630
H13 H 0.1504 0.0552 0.1891
H14 H 0.1145 0.0851 0.1553
N3 N 0.085(2) 0.069(2) 0.2195(17)
H15 H 0.1020 0.0908 0.2366
H16 H 0.0598 0.0857 0.2065
C14 C 0.2108(12) 0.1892(13) -0.0066(12)
H10 H 0.1955 0.2200 -0.0157
H11 H 0.2131 0.1680 -0.0345
C15 C 0.192(3) 0.133(3) 0.072(2)
H12 H 0.2220 0.1435 0.0870
H13 H 0.1948 0.0996 0.0609
H14 H 0.1649 0.1355 0.0947
N3 N 0.181(2) 0.165(2) 0.0305(17)
H15 H 0.1592 0.1480 0.0134
H16 H 0.1643 0.1902 0.0435
C14 C 0.2892(12) 0.8108(13) 0.4934(12)
H10 H 0.3045 0.7800 0.4843
H11 H 0.2869 0.8320 0.4655
C15 C 0.308(3) 0.867(3) 0.572(2)
H12 H 0.2780 0.8565 0.5870
H13 H 0.3052 0.9004 0.5609
H14 H 0.3351 0.8645 0.5947
N3 N 0.319(2) 0.835(2) 0.5305(17)
H15 H 0.3408 0.8520 0.5134
H16 H 0.3357 0.8098 0.5435
C14 C 0.5608(13) 0.4608(12) 0.7434(12)
H10 H 0.5300 0.4455 0.7343
H11 H 0.5820 0.4631 0.7155
C15 C 0.617(3) 0.442(3) 0.822(2)
H12 H 0.6065 0.4720 0.8370
H13 H 0.6504 0.4448 0.8109
H14 H 0.6145 0.4149 0.8447
N3 N 0.585(2) 0.431(2) 0.7805(17)
H15 H 0.6020 0.4092 0.7634
H16 H 0.5598 0.4143 0.7935
C14 C 0.4392(13) 0.0392(12) 0.7434(12)
H10 H 0.4700 0.0545 0.7343
H11 H 0.4180 0.0369 0.7155
C15 C 0.383(3) 0.058(3) 0.822(2)
H12 H 0.3935 0.0280 0.8370
H13 H 0.3496 0.0552 0.8109
H14 H 0.3855 0.0851 0.8447
N3 N 0.415(2) 0.069(2) 0.7805(17)
H15 H 0.3980 0.0908 0.7634
H16 H 0.4402 0.0857 0.7935
C14 C 0.2892(12) 0.6892(13) -0.0066(12)
H10 H 0.3045 0.7200 -0.0157
H11 H 0.2869 0.6680 -0.0345
C15 C 0.308(3) 0.633(3) 0.072(2)
H12 H 0.2780 0.6435 0.0870
H13 H 0.3052 0.5996 0.0609
H14 H 0.3351 0.6355 0.0947
N3 N 0.319(2) 0.665(2) 0.0305(17)
H15 H 0.3408 0.6480 0.0134
H16 H 0.3357 0.6902 0.0435
C14 C 0.0608(13) 0.5392(12) 0.7434(12)
H10 H 0.0300 0.5545 0.7343
H11 H 0.0820 0.5369 0.7155
C15 C 0.117(3) 0.558(3) 0.822(2)
H12 H 0.1065 0.5280 0.8370
H13 H 0.1504 0.5552 0.8109
H14 H 0.1145 0.5851 0.8447
N3 N 0.085(2) 0.569(2) 0.7805(17)
H15 H 0.1020 0.5908 0.7634
H16 H 0.0598 0.5857 0.7935
C14 C 0.7108(12) 0.8108(13) -0.0066(12)
H10 H 0.6955 0.7800 -0.0157
H11 H 0.7131 0.8320 -0.0345
C15 C 0.692(3) 0.867(3) 0.072(2)
H12 H 0.7220 0.8565 0.0870
H13 H 0.6948 0.9004 0.0609
H14 H 0.6649 0.8645 0.0947
N3 N 0.681(2) 0.835(2) 0.0305(17)
H15 H 0.6592 0.8520 0.0134
H16 H 0.6643 0.8098 0.0435
C14 C 0.4392(13) 0.4608(12) 0.2434(12)
H10 H 0.4700 0.4455 0.2343
H11 H 0.4180 0.4631 0.2155
C15 C 0.383(3) 0.442(3) 0.322(2)
H12 H 0.3935 0.4720 0.3370
H13 H 0.3496 0.4448 0.3109
H14 H 0.3855 0.4149 0.3447
N3 N 0.415(2) 0.431(2) 0.2805(17)
H15 H 0.3980 0.4092 0.2634
H16 H 0.4402 0.4143 0.2935
C14 C 0.2892(12) 0.3108(13) 0.5066(12)
H10 H 0.3045 0.2800 0.5157
H11 H 0.2869 0.3320 0.5345
C15 C 0.308(3) 0.367(3) 0.428(2)
H12 H 0.2780 0.3565 0.4130
H13 H 0.3052 0.4004 0.4391
H14 H 0.3351 0.3645 0.4053
N3 N 0.319(2) 0.335(2) 0.4695(17)
H15 H 0.3408 0.3520 0.4866
H16 H 0.3357 0.3098 0.4565
C14 C 0.2108(12) 0.6892(13) 1.0066(12)
H10 H 0.1955 0.7200 1.0157
H11 H 0.2131 0.6680 1.0345
C15 C 0.192(3) 0.633(3) 0.928(2)
H12 H 0.2220 0.6435 0.9130
H13 H 0.1948 0.5996 0.9391
H14 H 0.1649 0.6355 0.9053
N3 N 0.181(2) 0.665(2) 0.9695(17)
H15 H 0.1592 0.6480 0.9866
H16 H 0.1643 0.6902 0.9565
C14 C 0.9392(13) 0.0392(12) 0.7566(12)
H10 H 0.9700 0.0545 0.7657
H11 H 0.9180 0.0369 0.7845
C15 C 0.883(3) 0.058(3) 0.678(2)
H12 H 0.8935 0.0280 0.6630
H13 H 0.8496 0.0552 0.6891
H14 H 0.8855 0.0851 0.6553
N3 N 0.915(2) 0.069(2) 0.7195(17)
H15 H 0.8980 0.0908 0.7366
H16 H 0.9402 0.0857 0.7065
C14 C 0.0608(13) 0.4608(12) 0.7566(12)
H10 H 0.0300 0.4455 0.7657
H11 H 0.0820 0.4631 0.7845
C15 C 0.117(3) 0.442(3) 0.678(2)
H12 H 0.1065 0.4720 0.6630
H13 H 0.1504 0.4448 0.6891
H14 H 0.1145 0.4149 0.6553
N3 N 0.085(2) 0.431(2) 0.7195(17)
H15 H 0.1020 0.4092 0.7366
H16 H 0.0598 0.4143 0.7065
C14 C 0.7892(12) 0.1892(13) 0.4934(12)
H10 H 0.8045 0.2200 0.4843
H11 H 0.7869 0.1680 0.4655
C15 C 0.808(3) 0.133(3) 0.572(2)
H12 H 0.7780 0.1435 0.5870
H13 H 0.8052 0.0996 0.5609
H14 H 0.8351 0.1355 0.5947
N3 N 0.819(2) 0.165(2) 0.5305(17)
H15 H 0.8408 0.1480 0.5134
H16 H 0.8357 0.1902 0.5435
C14 C 0.5608(13) 0.0392(12) 0.2434(12)
H10 H 0.5300 0.0545 0.2343
H11 H 0.5820 0.0369 0.2155
C15 C 0.617(3) 0.058(3) 0.322(2)
H12 H 0.6065 0.0280 0.3370
H13 H 0.6504 0.0552 0.3109
H14 H 0.6145 0.0851 0.3447
N3 N 0.585(2) 0.069(2) 0.2805(17)
H15 H 0.6020 0.0908 0.2634
H16 H 0.5598 0.0857 0.2935
C14 C 0.2108(12) 0.3108(13) 0.4934(12)
H10 H 0.1955 0.2800 0.4843
H11 H 0.2131 0.3320 0.4655
C15 C 0.192(3) 0.367(3) 0.572(2)
H12 H 0.2220 0.3565 0.5870
H13 H 0.1948 0.4004 0.5609
H14 H 0.1649 0.3645 0.5947
N3 N 0.181(2) 0.335(2) 0.5305(17)
H15 H 0.1592 0.3520 0.5134
H16 H 0.1643 0.3098 0.5435
C14 C 0.9392(13) 0.9608(12) 0.7434(12)
H10 H 0.9700 0.9455 0.7343
H11 H 0.9180 0.9631 0.7155
C15 C 0.883(3) 0.942(3) 0.822(2)
H12 H 0.8935 0.9720 0.8370
H13 H 0.8496 0.9448 0.8109
H14 H 0.8855 0.9149 0.8447
N3 N 0.915(2) 0.931(2) 0.7805(17)
H15 H 0.8980 0.9092 0.7634
H16 H 0.9402 0.9143 0.7935
C14 C 0.7892(12) 0.8108(13) 1.0066(12)
H10 H 0.8045 0.7800 1.0157
H11 H 0.7869 0.8320 1.0345
C15 C 0.808(3) 0.867(3) 0.928(2)
H12 H 0.7780 0.8565 0.9130
H13 H 0.8052 0.9004 0.9391
H14 H 0.8351 0.8645 0.9053
N3 N 0.819(2) 0.835(2) 0.9695(17)
H15 H 0.8408 0.8520 0.9866
H16 H 0.8357 0.8098 0.9565
C14 C 0.7108(12) 0.1892(13) 0.5066(12)
H10 H 0.6955 0.2200 0.5157
H11 H 0.7131 0.1680 0.5345
C15 C 0.692(3) 0.133(3) 0.428(2)
H12 H 0.7220 0.1435 0.4130
H13 H 0.6948 0.0996 0.4391
H14 H 0.6649 0.1355 0.4053
N3 N 0.681(2) 0.165(2) 0.4695(17)
H15 H 0.6592 0.1480 0.4866
H16 H 0.6643 0.1902 0.4565
C14 C 0.4392(13) 0.5392(12) 0.2566(12)
H10 H 0.4700 0.5545 0.2657
H11 H 0.4180 0.5369 0.2845
C15 C 0.383(3) 0.558(3) 0.178(2)
H12 H 0.3935 0.5280 0.1630
H13 H 0.3496 0.5552 0.1891
H14 H 0.3855 0.5851 0.1553
N3 N 0.415(2) 0.569(2) 0.2195(17)
H15 H 0.3980 0.5908 0.2366
H16 H 0.4402 0.5857 0.2065
C14 C 0.5608(13) 0.9608(12) 0.2566(12)
H10 H 0.5300 0.9455 0.2657
H11 H 0.5820 0.9631 0.2845
C15 C 0.617(3) 0.942(3) 0.178(2)
H12 H 0.6065 0.9720 0.1630
H13 H 0.6504 0.9448 0.1891
H14 H 0.6145 0.9149 0.1553
N3 N 0.585(2) 0.931(2) 0.2195(17)
H15 H 0.6020 0.9092 0.2366
H16 H 0.5598 0.9143 0.2065
W1 W 0.59143(2) 0.26973(2) 0.53347(2)
W2 W 0.61303(2) 0.18220(2) 0.62211(2)
W3 W 0.58979(2) 0.27557(2) 0.71660(2)
P1 P 0.5000 0.2500 0.6250
O1 O 0.6659(2) 0.1499(2) 0.6310(3)
O2 O 0.5829(2) 0.1438(2) 0.5714(3)
O3 O 0.5683(2) 0.1532(2) 0.6670(2)
O4 O 0.6335(2) 0.2274(2) 0.5713(2)
O5 O 0.6313(2) 0.2895(2) 0.4900(3)
O6 O 0.5312(2) 0.3020(2) 0.5169(2)
O7 O 0.54029(19) 0.22562(19) 0.5923(2)
O8 O 0.6177(2) 0.2354(2) 0.6669(2)
O9 O 0.6345(2) 0.2769(2) 0.7598(3)
O10 O 0.5398(2) 0.3159(2) 0.7464(3)
O7B O 0.45971(19) 0.27438(19) 0.5923(2)
O7S O 0.52438(19) 0.29029(19) 0.6577(2)
O7Y O 0.47562(19) 0.20971(19) 0.6577(2)
W1B W 0.40857(2) 0.23027(2) 0.53347(2)
W2B W 0.38697(2) 0.31780(2) 0.62211(2)
W3B W 0.41021(2) 0.22443(2) 0.71660(2)
O1B O 0.3341(2) 0.3501(2) 0.6310(3)
O2B O 0.4171(2) 0.3562(2) 0.5714(3)
O3B O 0.4317(2) 0.3468(2) 0.6670(2)
O4B O 0.3665(2) 0.2726(2) 0.5713(2)
O5B O 0.3687(2) 0.2105(2) 0.4900(3)
O6B O 0.4688(2) 0.1980(2) 0.5169(2)
O8B O 0.3823(2) 0.2646(2) 0.6669(2)
O9B O 0.3655(2) 0.2231(2) 0.7598(3)
O10B O 0.4602(2) 0.1841(2) 0.7464(3)
W1S W 0.48027(2) 0.34143(2) 0.71653(2)
W2S W 0.56780(2) 0.36303(2) 0.62789(2)
W3S W 0.47443(2) 0.33979(2) 0.53340(2)
O1S O 0.6001(2) 0.4159(2) 0.6190(3)
O2S O 0.6062(2) 0.3329(2) 0.6786(3)
O3S O 0.5968(2) 0.3183(2) 0.5830(2)
O4S O 0.5226(2) 0.3835(2) 0.6787(2)
O5S O 0.4605(2) 0.3813(2) 0.7600(3)
O6S O 0.4480(2) 0.2812(2) 0.7331(2)
O8S O 0.5146(2) 0.3677(2) 0.5831(2)
O9S O 0.4731(2) 0.3845(2) 0.4902(3)
O10S O 0.4341(2) 0.2898(2) 0.5036(3)
W1Y W 0.51973(2) 0.15857(2) 0.71653(2)
W2Y W 0.43220(2) 0.13697(2) 0.62789(2)
W3Y W 0.52557(2) 0.16021(2) 0.53340(2)
O1Y O 0.3999(2) 0.0841(2) 0.6190(3)
O2Y O 0.3938(2) 0.1671(2) 0.6786(3)
O3Y O 0.4032(2) 0.1817(2) 0.5830(2)
O4Y O 0.4774(2) 0.1165(2) 0.6787(2)
O5Y O 0.5395(2) 0.1187(2) 0.7600(3)
O6Y O 0.5520(2) 0.2188(2) 0.7331(2)
O8Y O 0.4854(2) 0.1323(2) 0.5831(2)
O9Y O 0.5269(2) 0.1155(2) 0.4902(3)
O10Y O 0.5659(2) 0.2102(2) 0.5036(3)
W1 W -0.01973(2) 0.34143(2) 0.78347(2)
W2 W 0.06780(2) 0.36303(2) 0.87211(2)
W3 W -0.02557(2) 0.33979(2) 0.96660(2)
P1 P 0.0000 0.2500 0.8750
O1 O 0.1001(2) 0.4159(2) 0.8810(3)
O2 O 0.1062(2) 0.3329(2) 0.8214(3)
O3 O 0.0968(2) 0.3183(2) 0.9170(2)
O4 O 0.0226(2) 0.3835(2) 0.8213(2)
O5 O -0.0395(2) 0.3813(2) 0.7400(3)
O6 O -0.0520(2) 0.2812(2) 0.7669(2)
O7 O 0.02438(19) 0.29029(19) 0.8423(2)
O8 O 0.0146(2) 0.3677(2) 0.9169(2)
O9 O -0.0269(2) 0.3845(2) 1.0098(3)
O10 O -0.0659(2) 0.2898(2) 0.9964(3)
O7B O -0.02438(19) 0.20971(19) 0.8423(2)
O7S O -0.04029(19) 0.27438(19) 0.9077(2)
O7Y O 0.04029(19) 0.22562(19) 0.9077(2)
W1B W 0.01973(2) 0.15857(2) 0.78347(2)
W2B W -0.06780(2) 0.13697(2) 0.87211(2)
W3B W 0.02557(2) 0.16021(2) 0.96660(2)
O1B O -0.1001(2) 0.0841(2) 0.8810(3)
O2B O -0.1062(2) 0.1671(2) 0.8214(3)
O3B O -0.0968(2) 0.1817(2) 0.9170(2)
O4B O -0.0226(2) 0.1165(2) 0.8213(2)
O5B O 0.0395(2) 0.1187(2) 0.7400(3)
O6B O 0.0520(2) 0.2188(2) 0.7669(2)
O8B O -0.0146(2) 0.1323(2) 0.9169(2)
O9B O 0.0269(2) 0.1155(2) 1.0098(3)
O10B O 0.0659(2) 0.2102(2) 0.9964(3)
W1S W -0.09143(2) 0.23027(2) 0.96653(2)
W2S W -0.11303(2) 0.31780(2) 0.87789(2)
W3S W -0.08979(2) 0.22443(2) 0.78340(2)
O1S O -0.1659(2) 0.3501(2) 0.8690(3)
O2S O -0.0829(2) 0.3562(2) 0.9286(3)
O3S O -0.0683(2) 0.3468(2) 0.8330(2)
O4S O -0.1335(2) 0.2726(2) 0.9287(2)
O5S O -0.1313(2) 0.2105(2) 1.0100(3)
O6S O -0.0312(2) 0.1980(2) 0.9831(2)
O8S O -0.1177(2) 0.2646(2) 0.8331(2)
O9S O -0.1345(2) 0.2231(2) 0.7402(3)
O10S O -0.0398(2) 0.1841(2) 0.7536(3)
W1Y W 0.09143(2) 0.26973(2) 0.96653(2)
W2Y W 0.11303(2) 0.18220(2) 0.87789(2)
W3Y W 0.08979(2) 0.27557(2) 0.78340(2)
O1Y O 0.1659(2) 0.1499(2) 0.8690(3)
O2Y O 0.0829(2) 0.1438(2) 0.9286(3)
O3Y O 0.0683(2) 0.1532(2) 0.8330(2)
O4Y O 0.1335(2) 0.2274(2) 0.9287(2)
O5Y O 0.1313(2) 0.2895(2) 1.0100(3)
O6Y O 0.0312(2) 0.3020(2) 0.9831(2)
O8Y O 0.1177(2) 0.2354(2) 0.8331(2)
O9Y O 0.1345(2) 0.2769(2) 0.7402(3)
O10Y O 0.0398(2) 0.3159(2) 0.7536(3)
W1 W 0.98027(2) 0.34143(2) 0.78347(2)
W2 W 1.06780(2) 0.36303(2) 0.87211(2)
W3 W 0.97443(2) 0.33979(2) 0.96660(2)
P1 P 1.0000 0.2500 0.8750
O1 O 1.1001(2) 0.4159(2) 0.8810(3)
O2 O 1.1062(2) 0.3329(2) 0.8214(3)
O3 O 1.0968(2) 0.3183(2) 0.9170(2)
O4 O 1.0226(2) 0.3835(2) 0.8213(2)
O5 O 0.9605(2) 0.3813(2) 0.7400(3)
O6 O 0.9480(2) 0.2812(2) 0.7669(2)
O7 O 1.02438(19) 0.29029(19) 0.8423(2)
O8 O 1.0146(2) 0.3677(2) 0.9169(2)
O9 O 0.9731(2) 0.3845(2) 1.0098(3)
O10 O 0.9341(2) 0.2898(2) 0.9964(3)
O7B O 0.97562(19) 0.20971(19) 0.8423(2)
O7S O 0.95971(19) 0.27438(19) 0.9077(2)
O7Y O 1.04029(19) 0.22562(19) 0.9077(2)
W1B W 1.01973(2) 0.15857(2) 0.78347(2)
W2B W 0.93220(2) 0.13697(2) 0.87211(2)
W3B W 1.02557(2) 0.16021(2) 0.96660(2)
O1B O 0.8999(2) 0.0841(2) 0.8810(3)
O2B O 0.8938(2) 0.1671(2) 0.8214(3)
O3B O 0.9032(2) 0.1817(2) 0.9170(2)
O4B O 0.9774(2) 0.1165(2) 0.8213(2)
O5B O 1.0395(2) 0.1187(2) 0.7400(3)
O6B O 1.0520(2) 0.2188(2) 0.7669(2)
O8B O 0.9854(2) 0.1323(2) 0.9169(2)
O9B O 1.0269(2) 0.1155(2) 1.0098(3)
O10B O 1.0659(2) 0.2102(2) 0.9964(3)
W1S W 0.90857(2) 0.23027(2) 0.96653(2)
W2S W 0.88697(2) 0.31780(2) 0.87789(2)
W3S W 0.91021(2) 0.22443(2) 0.78340(2)
O1S O 0.8341(2) 0.3501(2) 0.8690(3)
O2S O 0.9171(2) 0.3562(2) 0.9286(3)
O3S O 0.9317(2) 0.3468(2) 0.8330(2)
O4S O 0.8665(2) 0.2726(2) 0.9287(2)
O5S O 0.8687(2) 0.2105(2) 1.0100(3)
O6S O 0.9688(2) 0.1980(2) 0.9831(2)
O8S O 0.8823(2) 0.2646(2) 0.8331(2)
O9S O 0.8655(2) 0.2231(2) 0.7402(3)
O10S O 0.9602(2) 0.1841(2) 0.7536(3)
W1Y W 1.09143(2) 0.26973(2) 0.96653(2)
W2Y W 1.11303(2) 0.18220(2) 0.87789(2)
W3Y W 1.08979(2) 0.27557(2) 0.78340(2)
O1Y O 1.1659(2) 0.1499(2) 0.8690(3)
O2Y O 1.0829(2) 0.1438(2) 0.9286(3)
O3Y O 1.0683(2) 0.1532(2) 0.8330(2)
O4Y O 1.1335(2) 0.2274(2) 0.9287(2)
O5Y O 1.1313(2) 0.2895(2) 1.0100(3)
O6Y O 1.0312(2) 0.3020(2) 0.9831(2)
O8Y O 1.1177(2) 0.2354(2) 0.8331(2)
O9Y O 1.1345(2) 0.2769(2) 0.7402(3)
O10Y O 1.0398(2) 0.3159(2) 0.7536(3)
W1 W 0.51973(2) 0.65857(2) 0.28347(2)
W2 W 0.43220(2) 0.63697(2) 0.37211(2)
W3 W 0.52557(2) 0.66021(2) 0.46660(2)
P1 P 0.5000 0.7500 0.3750
O1 O 0.3999(2) 0.5841(2) 0.3810(3)
O2 O 0.3938(2) 0.6671(2) 0.3214(3)
O3 O 0.4032(2) 0.6817(2) 0.4170(2)
O4 O 0.4774(2) 0.6165(2) 0.3213(2)
O5 O 0.5395(2) 0.6187(2) 0.2400(3)
O6 O 0.5520(2) 0.7188(2) 0.2669(2)
O7 O 0.47562(19) 0.70971(19) 0.3423(2)
O8 O 0.4854(2) 0.6323(2) 0.4169(2)
O9 O 0.5269(2) 0.6155(2) 0.5098(3)
O10 O 0.5659(2) 0.7102(2) 0.4964(3)
O7B O 0.52438(19) 0.79029(19) 0.3423(2)
O7S O 0.54029(19) 0.72562(19) 0.4077(2)
O7Y O 0.45971(19) 0.77438(19) 0.4077(2)
W1B W 0.48027(2) 0.84143(2) 0.28347(2)
W2B W 0.56780(2) 0.86303(2) 0.37211(2)
W3B W 0.47443(2) 0.83979(2) 0.46660(2)
O1B O 0.6001(2) 0.9159(2) 0.3810(3)
O2B O 0.6062(2) 0.8329(2) 0.3214(3)
O3B O 0.5968(2) 0.8183(2) 0.4170(2)
O4B O 0.5226(2) 0.8835(2) 0.3213(2)
O5B O 0.4605(2) 0.8813(2) 0.2400(3)
O6B O 0.4480(2) 0.7812(2) 0.2669(2)
O8B O 0.5146(2) 0.8677(2) 0.4169(2)
O9B O 0.4731(2) 0.8845(2) 0.5098(3)
O10B O 0.4341(2) 0.7898(2) 0.4964(3)
W1S W 0.59143(2) 0.76973(2) 0.46653(2)
W2S W 0.61303(2) 0.68220(2) 0.37789(2)
W3S W 0.58979(2) 0.77557(2) 0.28340(2)
O1S O 0.6659(2) 0.6499(2) 0.3690(3)
O2S O 0.5829(2) 0.6438(2) 0.4286(3)
O3S O 0.5683(2) 0.6532(2) 0.3330(2)
O4S O 0.6335(2) 0.7274(2) 0.4287(2)
O5S O 0.6313(2) 0.7895(2) 0.5100(3)
O6S O 0.5312(2) 0.8020(2) 0.4831(2)
O8S O 0.6177(2) 0.7354(2) 0.3331(2)
O9S O 0.6345(2) 0.7769(2) 0.2402(3)
O10S O 0.5398(2) 0.8159(2) 0.2536(3)
W1Y W 0.40857(2) 0.73027(2) 0.46653(2)
W2Y W 0.38697(2) 0.81780(2) 0.37789(2)
W3Y W 0.41021(2) 0.72443(2) 0.28340(2)
O1Y O 0.3341(2) 0.8501(2) 0.3690(3)
O2Y O 0.4171(2) 0.8562(2) 0.4286(3)
O3Y O 0.4317(2) 0.8468(2) 0.3330(2)
O4Y O 0.3665(2) 0.7726(2) 0.4287(2)
O5Y O 0.3687(2) 0.7105(2) 0.5100(3)
O6Y O 0.4688(2) 0.6980(2) 0.4831(2)
O8Y O 0.3823(2) 0.7646(2) 0.3331(2)
O9Y O 0.3655(2) 0.7231(2) 0.2402(3)
O10Y O 0.4602(2) 0.6841(2) 0.2536(3)
W1 W 0.59143(2) 0.73027(2) 0.96653(2)
W2 W 0.61303(2) 0.81780(2) 0.87789(2)
W3 W 0.58979(2) 0.72443(2) 0.78340(2)
P1 P 0.5000 0.7500 0.8750
O1 O 0.6659(2) 0.8501(2) 0.8690(3)
O2 O 0.5829(2) 0.8562(2) 0.9286(3)
O3 O 0.5683(2) 0.8468(2) 0.8330(2)
O4 O 0.6335(2) 0.7726(2) 0.9287(2)
O5 O 0.6313(2) 0.7105(2) 1.0100(3)
O6 O 0.5312(2) 0.6980(2) 0.9831(2)
O7 O 0.54029(19) 0.77438(19) 0.9077(2)
O8 O 0.6177(2) 0.7646(2) 0.8331(2)
O9 O 0.6345(2) 0.7231(2) 0.7402(3)
O10 O 0.5398(2) 0.6841(2) 0.7536(3)
O7B O 0.45971(19) 0.72562(19) 0.9077(2)
O7S O 0.52438(19) 0.70971(19) 0.8423(2)
O7Y O 0.47562(19) 0.79029(19) 0.8423(2)
W1B W 0.40857(2) 0.76973(2) 0.96653(2)
W2B W 0.38697(2) 0.68220(2) 0.87789(2)
W3B W 0.41021(2) 0.77557(2) 0.78340(2)
O1B O 0.3341(2) 0.6499(2) 0.8690(3)
O2B O 0.4171(2) 0.6438(2) 0.9286(3)
O3B O 0.4317(2) 0.6532(2) 0.8330(2)
O4B O 0.3665(2) 0.7274(2) 0.9287(2)
O5B O 0.3687(2) 0.7895(2) 1.0100(3)
O6B O 0.4688(2) 0.8020(2) 0.9831(2)
O8B O 0.3823(2) 0.7354(2) 0.8331(2)
O9B O 0.3655(2) 0.7769(2) 0.7402(3)
O10B O 0.4602(2) 0.8159(2) 0.7536(3)
W1S W 0.48027(2) 0.65857(2) 0.78347(2)
W2S W 0.56780(2) 0.63697(2) 0.87211(2)
W3S W 0.47443(2) 0.66021(2) 0.96660(2)
O1S O 0.6001(2) 0.5841(2) 0.8810(3)
O2S O 0.6062(2) 0.6671(2) 0.8214(3)
O3S O 0.5968(2) 0.6817(2) 0.9170(2)
O4S O 0.5226(2) 0.6165(2) 0.8213(2)
O5S O 0.4605(2) 0.6187(2) 0.7400(3)
O6S O 0.4480(2) 0.7188(2) 0.7669(2)
O8S O 0.5146(2) 0.6323(2) 0.9169(2)
O9S O 0.4731(2) 0.6155(2) 1.0098(3)
O10S O 0.4341(2) 0.7102(2) 0.9964(3)
W1Y W 0.51973(2) 0.84143(2) 0.78347(2)
W2Y W 0.43220(2) 0.86303(2) 0.87211(2)
W3Y W 0.52557(2) 0.83979(2) 0.96660(2)
O1Y O 0.3999(2) 0.9159(2) 0.8810(3)
O2Y O 0.3938(2) 0.8329(2) 0.8214(3)
O3Y O 0.4032(2) 0.8183(2) 0.9170(2)
O4Y O 0.4774(2) 0.8835(2) 0.8213(2)
O5Y O 0.5395(2) 0.8813(2) 0.7400(3)
O6Y O 0.5520(2) 0.7812(2) 0.7669(2)
O8Y O 0.4854(2) 0.8677(2) 0.9169(2)
O9Y O 0.5269(2) 0.8845(2) 1.0098(3)
O10Y O 0.5659(2) 0.7898(2) 0.9964(3)
W1 W -0.09143(2) 0.26973(2) 0.46653(2)
W2 W -0.11303(2) 0.18220(2) 0.37789(2)
W3 W -0.08979(2) 0.27557(2) 0.28340(2)
P1 P 0.0000 0.2500 0.3750
O1 O -0.1659(2) 0.1499(2) 0.3690(3)
O2 O -0.0829(2) 0.1438(2) 0.4286(3)
O3 O -0.0683(2) 0.1532(2) 0.3330(2)
O4 O -0.1335(2) 0.2274(2) 0.4287(2)
O5 O -0.1313(2) 0.2895(2) 0.5100(3)
O6 O -0.0312(2) 0.3020(2) 0.4831(2)
O7 O -0.04029(19) 0.22562(19) 0.4077(2)
O8 O -0.1177(2) 0.2354(2) 0.3331(2)
O9 O -0.1345(2) 0.2769(2) 0.2402(3)
O10 O -0.0398(2) 0.3159(2) 0.2536(3)
O7B O 0.04029(19) 0.27438(19) 0.4077(2)
O7S O -0.02438(19) 0.29029(19) 0.3423(2)
O7Y O 0.02438(19) 0.20971(19) 0.3423(2)
W1B W 0.09143(2) 0.23027(2) 0.46653(2)
W2B W 0.11303(2) 0.31780(2) 0.37789(2)
W3B W 0.08979(2) 0.22443(2) 0.28340(2)
O1B O 0.1659(2) 0.3501(2) 0.3690(3)
O2B O 0.0829(2) 0.3562(2) 0.4286(3)
O3B O 0.0683(2) 0.3468(2) 0.3330(2)
O4B O 0.1335(2) 0.2726(2) 0.4287(2)
O5B O 0.1313(2) 0.2105(2) 0.5100(3)
O6B O 0.0312(2) 0.1980(2) 0.4831(2)
O8B O 0.1177(2) 0.2646(2) 0.3331(2)
O9B O 0.1345(2) 0.2231(2) 0.2402(3)
O10B O 0.0398(2) 0.1841(2) 0.2536(3)
W1S W 0.01973(2) 0.34143(2) 0.28347(2)
W2S W -0.06780(2) 0.36303(2) 0.37211(2)
W3S W 0.02557(2) 0.33979(2) 0.46660(2)
O1S O -0.1001(2) 0.4159(2) 0.3810(3)
O2S O -0.1062(2) 0.3329(2) 0.3214(3)
O3S O -0.0968(2) 0.3183(2) 0.4170(2)
O4S O -0.0226(2) 0.3835(2) 0.3213(2)
O5S O 0.0395(2) 0.3813(2) 0.2400(3)
O6S O 0.0520(2) 0.2812(2) 0.2669(2)
O8S O -0.0146(2) 0.3677(2) 0.4169(2)
O9S O 0.0269(2) 0.3845(2) 0.5098(3)
O10S O 0.0659(2) 0.2898(2) 0.4964(3)
W1Y W -0.01973(2) 0.15857(2) 0.28347(2)
W2Y W 0.06780(2) 0.13697(2) 0.37211(2)
W3Y W -0.02557(2) 0.16021(2) 0.46660(2)
O1Y O 0.1001(2) 0.0841(2) 0.3810(3)
O2Y O 0.1062(2) 0.1671(2) 0.3214(3)
O3Y O 0.0968(2) 0.1817(2) 0.4170(2)
O4Y O 0.0226(2) 0.1165(2) 0.3213(2)
O5Y O -0.0395(2) 0.1187(2) 0.2400(3)
O6Y O -0.0520(2) 0.2188(2) 0.2669(2)
O8Y O 0.0146(2) 0.1323(2) 0.4169(2)
O9Y O -0.0269(2) 0.1155(2) 0.5098(3)
O10Y O -0.0659(2) 0.2102(2) 0.4964(3)
W1 W 0.90857(2) 0.26973(2) 0.46653(2)
W2 W 0.88697(2) 0.18220(2) 0.37789(2)
W3 W 0.91021(2) 0.27557(2) 0.28340(2)
P1 P 1.0000 0.2500 0.3750
O1 O 0.8341(2) 0.1499(2) 0.3690(3)
O2 O 0.9171(2) 0.1438(2) 0.4286(3)
O3 O 0.9317(2) 0.1532(2) 0.3330(2)
O4 O 0.8665(2) 0.2274(2) 0.4287(2)
O5 O 0.8687(2) 0.2895(2) 0.5100(3)
O6 O 0.9688(2) 0.3020(2) 0.4831(2)
O7 O 0.95971(19) 0.22562(19) 0.4077(2)
O8 O 0.8823(2) 0.2354(2) 0.3331(2)
O9 O 0.8655(2) 0.2769(2) 0.2402(3)
O10 O 0.9602(2) 0.3159(2) 0.2536(3)
O7B O 1.04029(19) 0.27438(19) 0.4077(2)
O7S O 0.97562(19) 0.29029(19) 0.3423(2)
O7Y O 1.02438(19) 0.20971(19) 0.3423(2)
W1B W 1.09143(2) 0.23027(2) 0.46653(2)
W2B W 1.11303(2) 0.31780(2) 0.37789(2)
W3B W 1.08979(2) 0.22443(2) 0.28340(2)
O1B O 1.1659(2) 0.3501(2) 0.3690(3)
O2B O 1.0829(2) 0.3562(2) 0.4286(3)
O3B O 1.0683(2) 0.3468(2) 0.3330(2)
O4B O 1.1335(2) 0.2726(2) 0.4287(2)
O5B O 1.1313(2) 0.2105(2) 0.5100(3)
O6B O 1.0312(2) 0.1980(2) 0.4831(2)
O8B O 1.1177(2) 0.2646(2) 0.3331(2)
O9B O 1.1345(2) 0.2231(2) 0.2402(3)
O10B O 1.0398(2) 0.1841(2) 0.2536(3)
W1S W 1.01973(2) 0.34143(2) 0.28347(2)
W2S W 0.93220(2) 0.36303(2) 0.37211(2)
W3S W 1.02557(2) 0.33979(2) 0.46660(2)
O1S O 0.8999(2) 0.4159(2) 0.3810(3)
O2S O 0.8938(2) 0.3329(2) 0.3214(3)
O3S O 0.9032(2) 0.3183(2) 0.4170(2)
O4S O 0.9774(2) 0.3835(2) 0.3213(2)
O5S O 1.0395(2) 0.3813(2) 0.2400(3)
O6S O 1.0520(2) 0.2812(2) 0.2669(2)
O8S O 0.9854(2) 0.3677(2) 0.4169(2)
O9S O 1.0269(2) 0.3845(2) 0.5098(3)
O10S O 1.0659(2) 0.2898(2) 0.4964(3)
W1Y W 0.98027(2) 0.15857(2) 0.28347(2)
W2Y W 1.06780(2) 0.13697(2) 0.37211(2)
W3Y W 0.97443(2) 0.16021(2) 0.46660(2)
O1Y O 1.1001(2) 0.0841(2) 0.3810(3)
O2Y O 1.1062(2) 0.1671(2) 0.3214(3)
O3Y O 1.0968(2) 0.1817(2) 0.4170(2)
O4Y O 1.0226(2) 0.1165(2) 0.3213(2)
O5Y O 0.9605(2) 0.1187(2) 0.2400(3)
O6Y O 0.9480(2) 0.2188(2) 0.2669(2)
O8Y O 1.0146(2) 0.1323(2) 0.4169(2)
O9Y O 0.9731(2) 0.1155(2) 0.5098(3)
O10Y O 0.9341(2) 0.2102(2) 0.4964(3)
W1 W 0.01973(2) 0.84143(2) 0.71653(2)
W2 W -0.06780(2) 0.86303(2) 0.62789(2)
W3 W 0.02557(2) 0.83979(2) 0.53340(2)
P1 P 0.0000 0.7500 0.6250
O1 O -0.1001(2) 0.9159(2) 0.6190(3)
O2 O -0.1062(2) 0.8329(2) 0.6786(3)
O3 O -0.0968(2) 0.8183(2) 0.5830(2)
O4 O -0.0226(2) 0.8835(2) 0.6787(2)
O5 O 0.0395(2) 0.8813(2) 0.7600(3)
O6 O 0.0520(2) 0.7812(2) 0.7331(2)
O7 O -0.02438(19) 0.79029(19) 0.6577(2)
O8 O -0.0146(2) 0.8677(2) 0.5831(2)
O9 O 0.0269(2) 0.8845(2) 0.4902(3)
O10 O 0.0659(2) 0.7898(2) 0.5036(3)
O7B O 0.02438(19) 0.70971(19) 0.6577(2)
O7S O 0.04029(19) 0.77438(19) 0.5923(2)
O7Y O -0.04029(19) 0.72562(19) 0.5923(2)
W1B W -0.01973(2) 0.65857(2) 0.71653(2)
W2B W 0.06780(2) 0.63697(2) 0.62789(2)
W3B W -0.02557(2) 0.66021(2) 0.53340(2)
O1B O 0.1001(2) 0.5841(2) 0.6190(3)
O2B O 0.1062(2) 0.6671(2) 0.6786(3)
O3B O 0.0968(2) 0.6817(2) 0.5830(2)
O4B O 0.0226(2) 0.6165(2) 0.6787(2)
O5B O -0.0395(2) 0.6187(2) 0.7600(3)
O6B O -0.0520(2) 0.7188(2) 0.7331(2)
O8B O 0.0146(2) 0.6323(2) 0.5831(2)
O9B O -0.0269(2) 0.6155(2) 0.4902(3)
O10B O -0.0659(2) 0.7102(2) 0.5036(3)
W1S W 0.09143(2) 0.73027(2) 0.53347(2)
W2S W 0.11303(2) 0.81780(2) 0.62211(2)
W3S W 0.08979(2) 0.72443(2) 0.71660(2)
O1S O 0.1659(2) 0.8501(2) 0.6310(3)
O2S O 0.0829(2) 0.8562(2) 0.5714(3)
O3S O 0.0683(2) 0.8468(2) 0.6670(2)
O4S O 0.1335(2) 0.7726(2) 0.5713(2)
O5S O 0.1313(2) 0.7105(2) 0.4900(3)
O6S O 0.0312(2) 0.6980(2) 0.5169(2)
O8S O 0.1177(2) 0.7646(2) 0.6669(2)
O9S O 0.1345(2) 0.7231(2) 0.7598(3)
O10S O 0.0398(2) 0.6841(2) 0.7464(3)
W1Y W -0.09143(2) 0.76973(2) 0.53347(2)
W2Y W -0.11303(2) 0.68220(2) 0.62211(2)
W3Y W -0.08979(2) 0.77557(2) 0.71660(2)
O1Y O -0.1659(2) 0.6499(2) 0.6310(3)
O2Y O -0.0829(2) 0.6438(2) 0.5714(3)
O3Y O -0.0683(2) 0.6532(2) 0.6670(2)
O4Y O -0.1335(2) 0.7274(2) 0.5713(2)
O5Y O -0.1313(2) 0.7895(2) 0.4900(3)
O6Y O -0.0312(2) 0.8020(2) 0.5169(2)
O8Y O -0.1177(2) 0.7354(2) 0.6669(2)
O9Y O -0.1345(2) 0.7769(2) 0.7598(3)
O10Y O -0.0398(2) 0.8159(2) 0.7464(3)
W1 W 1.01973(2) 0.84143(2) 0.71653(2)
W2 W 0.93220(2) 0.86303(2) 0.62789(2)
W3 W 1.02557(2) 0.83979(2) 0.53340(2)
P1 P 1.0000 0.7500 0.6250
O1 O 0.8999(2) 0.9159(2) 0.6190(3)
O2 O 0.8938(2) 0.8329(2) 0.6786(3)
O3 O 0.9032(2) 0.8183(2) 0.5830(2)
O4 O 0.9774(2) 0.8835(2) 0.6787(2)
O5 O 1.0395(2) 0.8813(2) 0.7600(3)
O6 O 1.0520(2) 0.7812(2) 0.7331(2)
O7 O 0.97562(19) 0.79029(19) 0.6577(2)
O8 O 0.9854(2) 0.8677(2) 0.5831(2)
O9 O 1.0269(2) 0.8845(2) 0.4902(3)
O10 O 1.0659(2) 0.7898(2) 0.5036(3)
O7B O 1.02438(19) 0.70971(19) 0.6577(2)
O7S O 1.04029(19) 0.77438(19) 0.5923(2)
O7Y O 0.95971(19) 0.72562(19) 0.5923(2)
W1B W 0.98027(2) 0.65857(2) 0.71653(2)
W2B W 1.06780(2) 0.63697(2) 0.62789(2)
W3B W 0.97443(2) 0.66021(2) 0.53340(2)
O1B O 1.1001(2) 0.5841(2) 0.6190(3)
O2B O 1.1062(2) 0.6671(2) 0.6786(3)
O3B O 1.0968(2) 0.6817(2) 0.5830(2)
O4B O 1.0226(2) 0.6165(2) 0.6787(2)
O5B O 0.9605(2) 0.6187(2) 0.7600(3)
O6B O 0.9480(2) 0.7188(2) 0.7331(2)
O8B O 1.0146(2) 0.6323(2) 0.5831(2)
O9B O 0.9731(2) 0.6155(2) 0.4902(3)
O10B O 0.9341(2) 0.7102(2) 0.5036(3)
W1S W 1.09143(2) 0.73027(2) 0.53347(2)
W2S W 1.11303(2) 0.81780(2) 0.62211(2)
W3S W 1.08979(2) 0.72443(2) 0.71660(2)
O1S O 1.1659(2) 0.8501(2) 0.6310(3)
O2S O 1.0829(2) 0.8562(2) 0.5714(3)
O3S O 1.0683(2) 0.8468(2) 0.6670(2)
O4S O 1.1335(2) 0.7726(2) 0.5713(2)
O5S O 1.1313(2) 0.7105(2) 0.4900(3)
O6S O 1.0312(2) 0.6980(2) 0.5169(2)
O8S O 1.1177(2) 0.7646(2) 0.6669(2)
O9S O 1.1345(2) 0.7231(2) 0.7598(3)
O10S O 1.0398(2) 0.6841(2) 0.7464(3)
W1Y W 0.90857(2) 0.76973(2) 0.53347(2)
W2Y W 0.88697(2) 0.68220(2) 0.62211(2)
W3Y W 0.91021(2) 0.77557(2) 0.71660(2)
O1Y O 0.8341(2) 0.6499(2) 0.6310(3)
O2Y O 0.9171(2) 0.6438(2) 0.5714(3)
O3Y O 0.9317(2) 0.6532(2) 0.6670(2)
O4Y O 0.8665(2) 0.7274(2) 0.5713(2)
O5Y O 0.8687(2) 0.7895(2) 0.4900(3)
O6Y O 0.9688(2) 0.8020(2) 0.5169(2)
O8Y O 0.8823(2) 0.7354(2) 0.6669(2)
O9Y O 0.8655(2) 0.7769(2) 0.7598(3)
O10Y O 0.9602(2) 0.8159(2) 0.7464(3)
W1 W 0.09143(2) 0.76973(2) 0.03347(2)
W2 W 0.11303(2) 0.68220(2) 0.12211(2)
W3 W 0.08979(2) 0.77557(2) 0.21660(2)
P1 P 0.0000 0.7500 0.1250
O1 O 0.1659(2) 0.6499(2) 0.1310(3)
O2 O 0.0829(2) 0.6438(2) 0.0714(3)
O3 O 0.0683(2) 0.6532(2) 0.1670(2)
O4 O 0.1335(2) 0.7274(2) 0.0713(2)
O5 O 0.1313(2) 0.7895(2) -0.0100(3)
O6 O 0.0312(2) 0.8020(2) 0.0169(2)
O7 O 0.04029(19) 0.72562(19) 0.0923(2)
O8 O 0.1177(2) 0.7354(2) 0.1669(2)
O9 O 0.1345(2) 0.7769(2) 0.2598(3)
O10 O 0.0398(2) 0.8159(2) 0.2464(3)
O7B O -0.04029(19) 0.77438(19) 0.0923(2)
O7S O 0.02438(19) 0.79029(19) 0.1577(2)
O7Y O -0.02438(19) 0.70971(19) 0.1577(2)
W1B W -0.09143(2) 0.73027(2) 0.03347(2)
W2B W -0.11303(2) 0.81780(2) 0.12211(2)
W3B W -0.08979(2) 0.72443(2) 0.21660(2)
O1B O -0.1659(2) 0.8501(2) 0.1310(3)
O2B O -0.0829(2) 0.8562(2) 0.0714(3)
O3B O -0.0683(2) 0.8468(2) 0.1670(2)
O4B O -0.1335(2) 0.7726(2) 0.0713(2)
O5B O -0.1313(2) 0.7105(2) -0.0100(3)
O6B O -0.0312(2) 0.6980(2) 0.0169(2)
O8B O -0.1177(2) 0.7646(2) 0.1669(2)
O9B O -0.1345(2) 0.7231(2) 0.2598(3)
O10B O -0.0398(2) 0.6841(2) 0.2464(3)
W1S W -0.01973(2) 0.84143(2) 0.21653(2)
W2S W 0.06780(2) 0.86303(2) 0.12789(2)
W3S W -0.02557(2) 0.83979(2) 0.03340(2)
O1S O 0.1001(2) 0.9159(2) 0.1190(3)
O2S O 0.1062(2) 0.8329(2) 0.1786(3)
O3S O 0.0968(2) 0.8183(2) 0.0830(2)
O4S O 0.0226(2) 0.8835(2) 0.1787(2)
O5S O -0.0395(2) 0.8813(2) 0.2600(3)
O6S O -0.0520(2) 0.7812(2) 0.2331(2)
O8S O 0.0146(2) 0.8677(2) 0.0831(2)
O9S O -0.0269(2) 0.8845(2) -0.0098(3)
O10S O -0.0659(2) 0.7898(2) 0.0036(3)
W1Y W 0.01973(2) 0.65857(2) 0.21653(2)
W2Y W -0.06780(2) 0.63697(2) 0.12789(2)
W3Y W 0.02557(2) 0.66021(2) 0.03340(2)
O1Y O -0.1001(2) 0.5841(2) 0.1190(3)
O2Y O -0.1062(2) 0.6671(2) 0.1786(3)
O3Y O -0.0968(2) 0.6817(2) 0.0830(2)
O4Y O -0.0226(2) 0.6165(2) 0.1787(2)
O5Y O 0.0395(2) 0.6187(2) 0.2600(3)
O6Y O 0.0520(2) 0.7188(2) 0.2331(2)
O8Y O -0.0146(2) 0.6323(2) 0.0831(2)
O9Y O 0.0269(2) 0.6155(2) -0.0098(3)
O10Y O 0.0659(2) 0.7102(2) 0.0036(3)
W1 W 1.09143(2) 0.76973(2) 0.03347(2)
W2 W 1.11303(2) 0.68220(2) 0.12211(2)
W3 W 1.08979(2) 0.77557(2) 0.21660(2)
P1 P 1.0000 0.7500 0.1250
O1 O 1.1659(2) 0.6499(2) 0.1310(3)
O2 O 1.0829(2) 0.6438(2) 0.0714(3)
O3 O 1.0683(2) 0.6532(2) 0.1670(2)
O4 O 1.1335(2) 0.7274(2) 0.0713(2)
O5 O 1.1313(2) 0.7895(2) -0.0100(3)
O6 O 1.0312(2) 0.8020(2) 0.0169(2)
O7 O 1.04029(19) 0.72562(19) 0.0923(2)
O8 O 1.1177(2) 0.7354(2) 0.1669(2)
O9 O 1.1345(2) 0.7769(2) 0.2598(3)
O10 O 1.0398(2) 0.8159(2) 0.2464(3)
O7B O 0.95971(19) 0.77438(19) 0.0923(2)
O7S O 1.02438(19) 0.79029(19) 0.1577(2)
O7Y O 0.97562(19) 0.70971(19) 0.1577(2)
W1B W 0.90857(2) 0.73027(2) 0.03347(2)
W2B W 0.88697(2) 0.81780(2) 0.12211(2)
W3B W 0.91021(2) 0.72443(2) 0.21660(2)
O1B O 0.8341(2) 0.8501(2) 0.1310(3)
O2B O 0.9171(2) 0.8562(2) 0.0714(3)
O3B O 0.9317(2) 0.8468(2) 0.1670(2)
O4B O 0.8665(2) 0.7726(2) 0.0713(2)
O5B O 0.8687(2) 0.7105(2) -0.0100(3)
O6B O 0.9688(2) 0.6980(2) 0.0169(2)
O8B O 0.8823(2) 0.7646(2) 0.1669(2)
O9B O 0.8655(2) 0.7231(2) 0.2598(3)
O10B O 0.9602(2) 0.6841(2) 0.2464(3)
W1S W 0.98027(2) 0.84143(2) 0.21653(2)
W2S W 1.06780(2) 0.86303(2) 0.12789(2)
W3S W 0.97443(2) 0.83979(2) 0.03340(2)
O1S O 1.1001(2) 0.9159(2) 0.1190(3)
O2S O 1.1062(2) 0.8329(2) 0.1786(3)
O3S O 1.0968(2) 0.8183(2) 0.0830(2)
O4S O 1.0226(2) 0.8835(2) 0.1787(2)
O5S O 0.9605(2) 0.8813(2) 0.2600(3)
O6S O 0.9480(2) 0.7812(2) 0.2331(2)
O8S O 1.0146(2) 0.8677(2) 0.0831(2)
O9S O 0.9731(2) 0.8845(2) -0.0098(3)
O10S O 0.9341(2) 0.7898(2) 0.0036(3)
W1Y W 1.01973(2) 0.65857(2) 0.21653(2)
W2Y W 0.93220(2) 0.63697(2) 0.12789(2)
W3Y W 1.02557(2) 0.66021(2) 0.03340(2)
O1Y O 0.8999(2) 0.5841(2) 0.1190(3)
O2Y O 0.8938(2) 0.6671(2) 0.1786(3)
O3Y O 0.9032(2) 0.6817(2) 0.0830(2)
O4Y O 0.9774(2) 0.6165(2) 0.1787(2)
O5Y O 1.0395(2) 0.6187(2) 0.2600(3)
O6Y O 1.0520(2) 0.7188(2) 0.2331(2)
O8Y O 0.9854(2) 0.6323(2) 0.0831(2)
O9Y O 1.0269(2) 0.6155(2) -0.0098(3)
O10Y O 1.0659(2) 0.7102(2) 0.0036(3)
W1 W 0.51973(2) 0.34143(2) 0.21653(2)
W2 W 0.43220(2) 0.36303(2) 0.12789(2)
W3 W 0.52557(2) 0.33979(2) 0.03340(2)
P1 P 0.5000 0.2500 0.1250
O1 O 0.3999(2) 0.4159(2) 0.1190(3)
O2 O 0.3938(2) 0.3329(2) 0.1786(3)
O3 O 0.4032(2) 0.3183(2) 0.0830(2)
O4 O 0.4774(2) 0.3835(2) 0.1787(2)
O5 O 0.5395(2) 0.3813(2) 0.2600(3)
O6 O 0.5520(2) 0.2812(2) 0.2331(2)
O7 O 0.47562(19) 0.29029(19) 0.1577(2)
O8 O 0.4854(2) 0.3677(2) 0.0831(2)
O9 O 0.5269(2) 0.3845(2) -0.0098(3)
O10 O 0.5659(2) 0.2898(2) 0.0036(3)
O7B O 0.52438(19) 0.20971(19) 0.1577(2)
O7S O 0.54029(19) 0.27438(19) 0.0923(2)
O7Y O 0.45971(19) 0.22562(19) 0.0923(2)
W1B W 0.48027(2) 0.15857(2) 0.21653(2)
W2B W 0.56780(2) 0.13697(2) 0.12789(2)
W3B W 0.47443(2) 0.16021(2) 0.03340(2)
O1B O 0.6001(2) 0.0841(2) 0.1190(3)
O2B O 0.6062(2) 0.1671(2) 0.1786(3)
O3B O 0.5968(2) 0.1817(2) 0.0830(2)
O4B O 0.5226(2) 0.1165(2) 0.1787(2)
O5B O 0.4605(2) 0.1187(2) 0.2600(3)
O6B O 0.4480(2) 0.2188(2) 0.2331(2)
O8B O 0.5146(2) 0.1323(2) 0.0831(2)
O9B O 0.4731(2) 0.1155(2) -0.0098(3)
O10B O 0.4341(2) 0.2102(2) 0.0036(3)
W1S W 0.59143(2) 0.23027(2) 0.03347(2)
W2S W 0.61303(2) 0.31780(2) 0.12211(2)
W3S W 0.58979(2) 0.22443(2) 0.21660(2)
O1S O 0.6659(2) 0.3501(2) 0.1310(3)
O2S O 0.5829(2) 0.3562(2) 0.0714(3)
O3S O 0.5683(2) 0.3468(2) 0.1670(2)
O4S O 0.6335(2) 0.2726(2) 0.0713(2)
O5S O 0.6313(2) 0.2105(2) -0.0100(3)
O6S O 0.5312(2) 0.1980(2) 0.0169(2)
O8S O 0.6177(2) 0.2646(2) 0.1669(2)
O9S O 0.6345(2) 0.2231(2) 0.2598(3)
O10S O 0.5398(2) 0.1841(2) 0.2464(3)
W1Y W 0.40857(2) 0.26973(2) 0.03347(2)
W2Y W 0.38697(2) 0.18220(2) 0.12211(2)
W3Y W 0.41021(2) 0.27557(2) 0.21660(2)
O1Y O 0.3341(2) 0.1499(2) 0.1310(3)
O2Y O 0.4171(2) 0.1438(2) 0.0714(3)
O3Y O 0.4317(2) 0.1532(2) 0.1670(2)
O4Y O 0.3665(2) 0.2274(2) 0.0713(2)
O5Y O 0.3687(2) 0.2895(2) -0.0100(3)
O6Y O 0.4688(2) 0.3020(2) 0.0169(2)
O8Y O 0.3823(2) 0.2354(2) 0.1669(2)
O9Y O 0.3655(2) 0.2769(2) 0.2598(3)
O10Y O 0.4602(2) 0.3159(2) 0.2464(3)
H17? H 0.7435 0.3045 0.9942
H17? H 0.9455 0.4935 0.2442
H17? H 0.2565 0.1955 0.9942
H17? H 0.5545 0.5065 0.7442
H17? H 0.7435 0.6955 0.5058
H17? H 0.7565 0.3045 0.0058
H17? H 0.0545 0.9935 0.2558
H17? H 0.9455 0.5065 0.2558
H17? H 0.2435 0.8045 0.4942
H17? H 0.4455 0.9935 0.7442
H17? H 0.7565 0.6955 0.4942
H17? H 0.0545 0.0065 0.2442
H17? H 0.2435 0.1955 0.0058
H17? H 0.2565 0.8045 0.5058
H17? H 0.5545 0.4935 0.7558
H17? H 0.4455 0.0065 0.7558
H17? H 0.2565 0.6955 0.0058
H17? H 0.0545 0.5065 0.7558
H17? H 0.7435 0.8045 0.0058
H17? H 0.4455 0.4935 0.2558
H17? H 0.2565 0.3045 0.4942
H17? H 0.2435 0.6955 0.9942
H17? H 0.9455 0.0065 0.7442
H17? H 0.0545 0.4935 0.7442
H17? H 0.7565 0.1955 0.5058
H17? H 0.5545 0.0065 0.2558
H17? H 0.2435 0.3045 0.5058
H17? H 0.9455 0.9935 0.7558
H17? H 0.7565 0.8045 0.9942
H17? H 0.7435 0.1955 0.4942
H17? H 0.4455 0.5065 0.2442
H17? H 0.5545 0.9935 0.2442

#END
