./ABIBIX_from_xyz.cif_generated_by_CrystalShift
_symmetry_cell_setting triclinic
_symmetry_space_group_name_H-M 'P 1'
loop_
_symmetry_equiv_pos_site_id
_symmetry_equiv_pos_as_xyz
1 x,y,z
_cell_length_a 14.388000
_cell_length_b 5.801000
_cell_length_c 19.958000
_cell_angle_alpha 90.000000
_cell_angle_beta 110.670000
_cell_angle_gamma 90.000000
_cell_volume 1558.561607
loop_
_atom_site_label
_atom_site_type_symbol
_atom_site_fract_x
_atom_site_fract_y
_atom_site_fract_z
Sn1 Sn 0.000000 1.335900 0.500000
O2 O 0.083600 1.075000 0.472300
O3 O -0.116000 1.219000 0.390400
N4 N 0.113600 0.748000 0.417400
N5 N 0.064900 0.602000 0.358800
C6 C -0.025400 0.687000 0.330000
C7 C -0.040400 0.891000 0.366600
C8 C 0.053800 0.923000 0.423500
C9 C -0.122100 1.036000 0.356400
C10 C 0.213000 0.692000 0.461700
C11 C 0.270000 0.852000 0.511700
C12 C 0.369500 0.790000 0.552900
C13 C 0.409100 0.582000 0.543800
C14 C 0.350500 0.425000 0.494900
C15 C 0.249800 0.478000 0.452000
C16 C -0.093100 0.575000 0.263200
C17 C -0.224400 0.969000 0.303700
C18 C -0.289100 1.170000 0.268100
C19 C -0.336200 1.320000 0.302800
C20 C -0.397200 1.492000 0.270000
C21 C -0.411200 1.541000 0.198100
C22 C -0.367000 1.405000 0.161700
C23 C -0.305400 1.220000 0.195300
H24 H 0.242900 0.997600 0.518200
H25 H 0.410000 0.896200 0.587900
H26 H 0.477100 0.545700 0.571200
H27 H 0.377900 0.278400 0.489400
H28 H 0.209100 0.369100 0.417900
H29 H -0.156300 0.652000 0.247400
H30 H -0.064500 0.585200 0.226600
H31 H -0.102100 0.416100 0.272800
H32 H -0.215300 0.873500 0.267200
H33 H -0.258000 0.882000 0.329300
H34 H -0.323900 1.294200 0.352700
H35 H -0.430700 1.580400 0.295300
H36 H -0.451900 1.668900 0.174500
H37 H -0.377900 1.438000 0.112300
H38 H -0.274600 1.127300 0.169100
O39 O -0.083600 1.075000 0.527700
C40 C -0.053800 0.923000 0.576500
N41 N -0.113600 0.748000 0.582600
N42 N -0.064900 0.602000 0.641200
C43 C 0.025400 0.687000 0.670000
C44 C 0.040400 0.891000 0.633400
C45 C 0.122100 1.036000 0.643600
O46 O 0.116000 1.219000 0.609600
C47 C 0.224400 0.969000 0.696300
C48 C 0.289100 1.170000 0.731900
C49 C 0.336200 1.320000 0.697200
C50 C 0.397200 1.492000 0.730000
C51 C 0.411200 1.541000 0.801900
C52 C 0.367000 1.405000 0.838300
C53 C 0.305400 1.220000 0.804700
H54 H 0.274600 1.127300 0.830900
H55 H 0.377900 1.438000 0.887700
H56 H 0.451900 1.668900 0.825500
H57 H 0.430700 1.580400 0.704700
H58 H 0.323900 1.294200 0.647300
H59 H 0.215300 0.873500 0.732800
H60 H 0.258000 0.882000 0.670700
C61 C 0.093100 0.575000 0.736800
H62 H 0.156300 0.652000 0.752600
H63 H 0.064500 0.585200 0.773400
H64 H 0.102100 0.416100 0.727200
C65 C -0.213000 0.692000 0.538300
C66 C -0.270000 0.852000 0.488300
C67 C -0.369500 0.790000 0.447100
C68 C -0.409100 0.582000 0.456200
C69 C -0.350500 0.425000 0.505100
C70 C -0.249800 0.478000 0.548000
H71 H -0.209100 0.369100 0.582100
H72 H -0.377900 0.278400 0.510600
H73 H -0.477100 0.545700 0.428800
H74 H -0.410000 0.896200 0.412100
H75 H -0.242900 0.997600 0.481800
Sn76 Sn 1.000000 1.335900 0.500000
O77 O 1.083600 1.075000 0.472300
O78 O 0.884000 1.219000 0.390400
N79 N 1.113600 0.748000 0.417400
N80 N 1.064900 0.602000 0.358800
C81 C 0.974600 0.687000 0.330000
C82 C 0.959600 0.891000 0.366600
C83 C 1.053800 0.923000 0.423500
C84 C 0.877900 1.036000 0.356400
C85 C 1.213000 0.692000 0.461700
C86 C 1.270000 0.852000 0.511700
C87 C 1.369500 0.790000 0.552900
C88 C 1.409100 0.582000 0.543800
C89 C 1.350500 0.425000 0.494900
C90 C 1.249800 0.478000 0.452000
C91 C 0.906900 0.575000 0.263200
C92 C 0.775600 0.969000 0.303700
C93 C 0.710900 1.170000 0.268100
C94 C 0.663800 1.320000 0.302800
C95 C 0.602800 1.492000 0.270000
C96 C 0.588800 1.541000 0.198100
C97 C 0.633000 1.405000 0.161700
C98 C 0.694600 1.220000 0.195300
H99 H 1.242900 0.997600 0.518200
H100 H 1.410000 0.896200 0.587900
H101 H 1.477100 0.545700 0.571200
H102 H 1.377900 0.278400 0.489400
H103 H 1.209100 0.369100 0.417900
H104 H 0.843700 0.652000 0.247400
H105 H 0.935500 0.585200 0.226600
H106 H 0.897900 0.416100 0.272800
H107 H 0.784700 0.873500 0.267200
H108 H 0.742000 0.882000 0.329300
H109 H 0.676100 1.294200 0.352700
H110 H 0.569300 1.580400 0.295300
H111 H 0.548100 1.668900 0.174500
H112 H 0.622100 1.438000 0.112300
H113 H 0.725400 1.127300 0.169100
O114 O 0.916400 1.075000 0.527700
C115 C 0.946200 0.923000 0.576500
N116 N 0.886400 0.748000 0.582600
N117 N 0.935100 0.602000 0.641200
C118 C 1.025400 0.687000 0.670000
C119 C 1.040400 0.891000 0.633400
C120 C 1.122100 1.036000 0.643600
O121 O 1.116000 1.219000 0.609600
C122 C 1.224400 0.969000 0.696300
C123 C 1.289100 1.170000 0.731900
C124 C 1.336200 1.320000 0.697200
C125 C 1.397200 1.492000 0.730000
C126 C 1.411200 1.541000 0.801900
C127 C 1.367000 1.405000 0.838300
C128 C 1.305400 1.220000 0.804700
H129 H 1.274600 1.127300 0.830900
H130 H 1.377900 1.438000 0.887700
H131 H 1.451900 1.668900 0.825500
H132 H 1.430700 1.580400 0.704700
H133 H 1.323900 1.294200 0.647300
H134 H 1.215300 0.873500 0.732800
H135 H 1.258000 0.882000 0.670700
C136 C 1.093100 0.575000 0.736800
H137 H 1.156300 0.652000 0.752600
H138 H 1.064500 0.585200 0.773400
H139 H 1.102100 0.416100 0.727200
C140 C 0.787000 0.692000 0.538300
C141 C 0.730000 0.852000 0.488300
C142 C 0.630500 0.790000 0.447100
C143 C 0.590900 0.582000 0.456200
C144 C 0.649500 0.425000 0.505100
C145 C 0.750200 0.478000 0.548000
H146 H 0.790900 0.369100 0.582100
H147 H 0.622100 0.278400 0.510600
H148 H 0.522900 0.545700 0.428800
H149 H 0.590000 0.896200 0.412100
H150 H 0.757100 0.997600 0.481800
Sn151 Sn 0.000000 0.835900 0.000000
O152 O 0.083600 0.575000 -0.027700
O153 O -0.116000 0.719000 -0.109600
N154 N 0.113600 0.248000 -0.082600
N155 N 0.064900 0.102000 -0.141200
C156 C -0.025400 0.187000 -0.170000
C157 C -0.040400 0.391000 -0.133400
C158 C 0.053800 0.423000 -0.076500
C159 C -0.122100 0.536000 -0.143600
C160 C 0.213000 0.192000 -0.038300
C161 C 0.270000 0.352000 0.011700
C162 C 0.369500 0.290000 0.052900
C163 C 0.409100 0.082000 0.043800
C164 C 0.350500 -0.075000 -0.005100
C165 C 0.249800 -0.022000 -0.048000
C166 C -0.093100 0.075000 -0.236800
C167 C -0.224400 0.469000 -0.196300
C168 C -0.289100 0.670000 -0.231900
C169 C -0.336200 0.820000 -0.197200
C170 C -0.397200 0.992000 -0.230000
C171 C -0.411200 1.041000 -0.301900
C172 C -0.367000 0.905000 -0.338300
C173 C -0.305400 0.720000 -0.304700
H174 H 0.242900 0.497600 0.018200
H175 H 0.410000 0.396200 0.087900
H176 H 0.477100 0.045700 0.071200
H177 H 0.377900 -0.221600 -0.010600
H178 H 0.209100 -0.130900 -0.082100
H179 H -0.156300 0.152000 -0.252600
H180 H -0.064500 0.085200 -0.273400
H181 H -0.102100 -0.083900 -0.227200
H182 H -0.215300 0.373500 -0.232800
H183 H -0.258000 0.382000 -0.170700
H184 H -0.323900 0.794200 -0.147300
H185 H -0.430700 1.080400 -0.204700
H186 H -0.451900 1.168900 -0.325500
H187 H -0.377900 0.938000 -0.387700
H188 H -0.274600 0.627300 -0.330900
O189 O -0.083600 0.575000 0.027700
C190 C -0.053800 0.423000 0.076500
N191 N -0.113600 0.248000 0.082600
N192 N -0.064900 0.102000 0.141200
C193 C 0.025400 0.187000 0.170000
C194 C 0.040400 0.391000 0.133400
C195 C 0.122100 0.536000 0.143600
O196 O 0.116000 0.719000 0.109600
C197 C 0.224400 0.469000 0.196300
C198 C 0.289100 0.670000 0.231900
C199 C 0.336200 0.820000 0.197200
C200 C 0.397200 0.992000 0.230000
C201 C 0.411200 1.041000 0.301900
C202 C 0.367000 0.905000 0.338300
C203 C 0.305400 0.720000 0.304700
H204 H 0.274600 0.627300 0.330900
H205 H 0.377900 0.938000 0.387700
H206 H 0.451900 1.168900 0.325500
H207 H 0.430700 1.080400 0.204700
H208 H 0.323900 0.794200 0.147300
H209 H 0.215300 0.373500 0.232800
H210 H 0.258000 0.382000 0.170700
C211 C 0.093100 0.075000 0.236800
H212 H 0.156300 0.152000 0.252600
H213 H 0.064500 0.085200 0.273400
H214 H 0.102100 -0.083900 0.227200
C215 C -0.213000 0.192000 0.038300
C216 C -0.270000 0.352000 -0.011700
C217 C -0.369500 0.290000 -0.052900
C218 C -0.409100 0.082000 -0.043800
C219 C -0.350500 -0.075000 0.005100
C220 C -0.249800 -0.022000 0.048000
H221 H -0.209100 -0.130900 0.082100
H222 H -0.377900 -0.221600 0.010600
H223 H -0.477100 0.045700 -0.071200
H224 H -0.410000 0.396200 -0.087900
H225 H -0.242900 0.497600 -0.018200
Sn226 Sn 0.000000 0.835900 1.000000
O227 O 0.083600 0.575000 0.972300
O228 O -0.116000 0.719000 0.890400
N229 N 0.113600 0.248000 0.917400
N230 N 0.064900 0.102000 0.858800
C231 C -0.025400 0.187000 0.830000
C232 C -0.040400 0.391000 0.866600
C233 C 0.053800 0.423000 0.923500
C234 C -0.122100 0.536000 0.856400
C235 C 0.213000 0.192000 0.961700
C236 C 0.270000 0.352000 1.011700
C237 C 0.369500 0.290000 1.052900
C238 C 0.409100 0.082000 1.043800
C239 C 0.350500 -0.075000 0.994900
C240 C 0.249800 -0.022000 0.952000
C241 C -0.093100 0.075000 0.763200
C242 C -0.224400 0.469000 0.803700
C243 C -0.289100 0.670000 0.768100
C244 C -0.336200 0.820000 0.802800
C245 C -0.397200 0.992000 0.770000
C246 C -0.411200 1.041000 0.698100
C247 C -0.367000 0.905000 0.661700
C248 C -0.305400 0.720000 0.695300
H249 H 0.242900 0.497600 1.018200
H250 H 0.410000 0.396200 1.087900
H251 H 0.477100 0.045700 1.071200
H252 H 0.377900 -0.221600 0.989400
H253 H 0.209100 -0.130900 0.917900
H254 H -0.156300 0.152000 0.747400
H255 H -0.064500 0.085200 0.726600
H256 H -0.102100 -0.083900 0.772800
H257 H -0.215300 0.373500 0.767200
H258 H -0.258000 0.382000 0.829300
H259 H -0.323900 0.794200 0.852700
H260 H -0.430700 1.080400 0.795300
H261 H -0.451900 1.168900 0.674500
H262 H -0.377900 0.938000 0.612300
H263 H -0.274600 0.627300 0.669100
O264 O -0.083600 0.575000 1.027700
C265 C -0.053800 0.423000 1.076500
N266 N -0.113600 0.248000 1.082600
N267 N -0.064900 0.102000 1.141200
C268 C 0.025400 0.187000 1.170000
C269 C 0.040400 0.391000 1.133400
C270 C 0.122100 0.536000 1.143600
O271 O 0.116000 0.719000 1.109600
C272 C 0.224400 0.469000 1.196300
C273 C 0.289100 0.670000 1.231900
C274 C 0.336200 0.820000 1.197200
C275 C 0.397200 0.992000 1.230000
C276 C 0.411200 1.041000 1.301900
C277 C 0.367000 0.905000 1.338300
C278 C 0.305400 0.720000 1.304700
H279 H 0.274600 0.627300 1.330900
H280 H 0.377900 0.938000 1.387700
H281 H 0.451900 1.168900 1.325500
H282 H 0.430700 1.080400 1.204700
H283 H 0.323900 0.794200 1.147300
H284 H 0.215300 0.373500 1.232800
H285 H 0.258000 0.382000 1.170700
C286 C 0.093100 0.075000 1.236800
H287 H 0.156300 0.152000 1.252600
H288 H 0.064500 0.085200 1.273400
H289 H 0.102100 -0.083900 1.227200
C290 C -0.213000 0.192000 1.038300
C291 C -0.270000 0.352000 0.988300
C292 C -0.369500 0.290000 0.947100
C293 C -0.409100 0.082000 0.956200
C294 C -0.350500 -0.075000 1.005100
C295 C -0.249800 -0.022000 1.048000
H296 H -0.209100 -0.130900 1.082100
H297 H -0.377900 -0.221600 1.010600
H298 H -0.477100 0.045700 0.928800
H299 H -0.410000 0.396200 0.912100
H300 H -0.242900 0.497600 0.981800
Sn301 Sn 1.000000 0.835900 0.000000
O302 O 1.083600 0.575000 -0.027700
O303 O 0.884000 0.719000 -0.109600
N304 N 1.113600 0.248000 -0.082600
N305 N 1.064900 0.102000 -0.141200
C306 C 0.974600 0.187000 -0.170000
C307 C 0.959600 0.391000 -0.133400
C308 C 1.053800 0.423000 -0.076500
C309 C 0.877900 0.536000 -0.143600
C310 C 1.213000 0.192000 -0.038300
C311 C 1.270000 0.352000 0.011700
C312 C 1.369500 0.290000 0.052900
C313 C 1.409100 0.082000 0.043800
C314 C 1.350500 -0.075000 -0.005100
C315 C 1.249800 -0.022000 -0.048000
C316 C 0.906900 0.075000 -0.236800
C317 C 0.775600 0.469000 -0.196300
C318 C 0.710900 0.670000 -0.231900
C319 C 0.663800 0.820000 -0.197200
C320 C 0.602800 0.992000 -0.230000
C321 C 0.588800 1.041000 -0.301900
C322 C 0.633000 0.905000 -0.338300
C323 C 0.694600 0.720000 -0.304700
H324 H 1.242900 0.497600 0.018200
H325 H 1.410000 0.396200 0.087900
H326 H 1.477100 0.045700 0.071200
H327 H 1.377900 -0.221600 -0.010600
H328 H 1.209100 -0.130900 -0.082100
H329 H 0.843700 0.152000 -0.252600
H330 H 0.935500 0.085200 -0.273400
H331 H 0.897900 -0.083900 -0.227200
H332 H 0.784700 0.373500 -0.232800
H333 H 0.742000 0.382000 -0.170700
H334 H 0.676100 0.794200 -0.147300
H335 H 0.569300 1.080400 -0.204700
H336 H 0.548100 1.168900 -0.325500
H337 H 0.622100 0.938000 -0.387700
H338 H 0.725400 0.627300 -0.330900
O339 O 0.916400 0.575000 0.027700
C340 C 0.946200 0.423000 0.076500
N341 N 0.886400 0.248000 0.082600
N342 N 0.935100 0.102000 0.141200
C343 C 1.025400 0.187000 0.170000
C344 C 1.040400 0.391000 0.133400
C345 C 1.122100 0.536000 0.143600
O346 O 1.116000 0.719000 0.109600
C347 C 1.224400 0.469000 0.196300
C348 C 1.289100 0.670000 0.231900
C349 C 1.336200 0.820000 0.197200
C350 C 1.397200 0.992000 0.230000
C351 C 1.411200 1.041000 0.301900
C352 C 1.367000 0.905000 0.338300
C353 C 1.305400 0.720000 0.304700
H354 H 1.274600 0.627300 0.330900
H355 H 1.377900 0.938000 0.387700
H356 H 1.451900 1.168900 0.325500
H357 H 1.430700 1.080400 0.204700
H358 H 1.323900 0.794200 0.147300
H359 H 1.215300 0.373500 0.232800
H360 H 1.258000 0.382000 0.170700
C361 C 1.093100 0.075000 0.236800
H362 H 1.156300 0.152000 0.252600
H363 H 1.064500 0.085200 0.273400
H364 H 1.102100 -0.083900 0.227200
C365 C 0.787000 0.192000 0.038300
C366 C 0.730000 0.352000 -0.011700
C367 C 0.630500 0.290000 -0.052900
C368 C 0.590900 0.082000 -0.043800
C369 C 0.649500 -0.075000 0.005100
C370 C 0.750200 -0.022000 0.048000
H371 H 0.790900 -0.130900 0.082100
H372 H 0.622100 -0.221600 0.010600
H373 H 0.522900 0.045700 -0.071200
H374 H 0.590000 0.396200 -0.087900
H375 H 0.757100 0.497600 -0.018200
Sn376 Sn 1.000000 0.835900 1.000000
O377 O 1.083600 0.575000 0.972300
O378 O 0.884000 0.719000 0.890400
N379 N 1.113600 0.248000 0.917400
N380 N 1.064900 0.102000 0.858800
C381 C 0.974600 0.187000 0.830000
C382 C 0.959600 0.391000 0.866600
C383 C 1.053800 0.423000 0.923500
C384 C 0.877900 0.536000 0.856400
C385 C 1.213000 0.192000 0.961700
C386 C 1.270000 0.352000 1.011700
C387 C 1.369500 0.290000 1.052900
C388 C 1.409100 0.082000 1.043800
C389 C 1.350500 -0.075000 0.994900
C390 C 1.249800 -0.022000 0.952000
C391 C 0.906900 0.075000 0.763200
C392 C 0.775600 0.469000 0.803700
C393 C 0.710900 0.670000 0.768100
C394 C 0.663800 0.820000 0.802800
C395 C 0.602800 0.992000 0.770000
C396 C 0.588800 1.041000 0.698100
C397 C 0.633000 0.905000 0.661700
C398 C 0.694600 0.720000 0.695300
H399 H 1.242900 0.497600 1.018200
H400 H 1.410000 0.396200 1.087900
H401 H 1.477100 0.045700 1.071200
H402 H 1.377900 -0.221600 0.989400
H403 H 1.209100 -0.130900 0.917900
H404 H 0.843700 0.152000 0.747400
H405 H 0.935500 0.085200 0.726600
H406 H 0.897900 -0.083900 0.772800
H407 H 0.784700 0.373500 0.767200
H408 H 0.742000 0.382000 0.829300
H409 H 0.676100 0.794200 0.852700
H410 H 0.569300 1.080400 0.795300
H411 H 0.548100 1.168900 0.674500
H412 H 0.622100 0.938000 0.612300
H413 H 0.725400 0.627300 0.669100
O414 O 0.916400 0.575000 1.027700
C415 C 0.946200 0.423000 1.076500
N416 N 0.886400 0.248000 1.082600
N417 N 0.935100 0.102000 1.141200
C418 C 1.025400 0.187000 1.170000
C419 C 1.040400 0.391000 1.133400
C420 C 1.122100 0.536000 1.143600
O421 O 1.116000 0.719000 1.109600
C422 C 1.224400 0.469000 1.196300
C423 C 1.289100 0.670000 1.231900
C424 C 1.336200 0.820000 1.197200
C425 C 1.397200 0.992000 1.230000
C426 C 1.411200 1.041000 1.301900
C427 C 1.367000 0.905000 1.338300
C428 C 1.305400 0.720000 1.304700
H429 H 1.274600 0.627300 1.330900
H430 H 1.377900 0.938000 1.387700
H431 H 1.451900 1.168900 1.325500
H432 H 1.430700 1.080400 1.204700
H433 H 1.323900 0.794200 1.147300
H434 H 1.215300 0.373500 1.232800
H435 H 1.258000 0.382000 1.170700
C436 C 1.093100 0.075000 1.236800
H437 H 1.156300 0.152000 1.252600
H438 H 1.064500 0.085200 1.273400
H439 H 1.102100 -0.083900 1.227200
C440 C 0.787000 0.192000 1.038300
C441 C 0.730000 0.352000 0.988300
C442 C 0.630500 0.290000 0.947100
C443 C 0.590900 0.082000 0.956200
C444 C 0.649500 -0.075000 1.005100
C445 C 0.750200 -0.022000 1.048000
H446 H 0.790900 -0.130900 1.082100
H447 H 0.622100 -0.221600 1.010600
H448 H 0.522900 0.045700 0.928800
H449 H 0.590000 0.396200 0.912100
H450 H 0.757100 0.497600 0.981800

#END
