./ABIDAS_from_xyz.cif_generated_by_CrystalShift
_symmetry_cell_setting triclinic
_symmetry_space_group_name_H-M 'P 1'
loop_
_symmetry_equiv_pos_site_id
_symmetry_equiv_pos_as_xyz
1 x,y,z
_cell_length_a 6.995000
_cell_length_b 11.749400
_cell_length_c 12.535500
_cell_angle_alpha 90.000000
_cell_angle_beta 90.000000
_cell_angle_gamma 90.000000
_cell_volume 1030.255803
loop_
_atom_site_label
_atom_site_type_symbol
_atom_site_fract_x
_atom_site_fract_y
_atom_site_fract_z
C1 C 1.003760 0.843360 0.672540
H2 H 1.027700 0.919400 0.639300
C3 C 0.842120 0.785160 0.611070
C4 C 0.667220 0.802780 0.670610
H5 H 0.542300 0.785300 0.645800
C6 C 0.708860 0.847780 0.766650
C7 C 0.921740 0.862500 0.784680
H8 H 0.968100 0.800600 0.832900
C9 C 0.966700 0.977860 0.835550
H10 H 0.944600 1.038900 0.782500
H11 H 1.103300 0.980000 0.856100
C12 C 0.842300 1.000790 0.935130
H13 H 0.868600 1.081400 0.956200
C14 C 0.631640 0.997150 0.902110
H15 H 0.607100 1.059000 0.850200
H16 H 0.551300 1.011600 0.965700
C17 C 0.571800 0.882720 0.851810
H18 H 0.567400 0.823300 0.907800
H19 H 0.442100 0.890000 0.820900
C20 C 0.896600 0.928160 1.031260
C21 C 0.770900 0.872380 1.091750
H22 H 0.812700 0.833500 1.153900
H23 H 0.639500 0.871600 1.072700
C24 C 1.105200 0.929930 1.060840
H25 H 1.121300 0.898800 1.132800
H26 H 1.152300 1.008500 1.059100
H27 H 1.177700 0.883700 1.009900
O28 O 1.176520 0.781850 0.672200
O29 O 0.865580 0.736250 0.525640
H30 H 1.214000 0.780100 0.607300
C31 C 0.503760 0.656640 0.327460
H32 H 0.527700 0.580600 0.360700
C33 C 0.342120 0.714840 0.388930
C34 C 0.167220 0.697220 0.329390
H35 H 0.042300 0.714700 0.354200
C36 C 0.208860 0.652220 0.233350
C37 C 0.421740 0.637500 0.215320
H38 H 0.468100 0.699400 0.167100
C39 C 0.466700 0.522140 0.164450
H40 H 0.444600 0.461100 0.217500
H41 H 0.603300 0.520000 0.143900
C42 C 0.342300 0.499210 0.064870
H43 H 0.368600 0.418600 0.043800
C44 C 0.131640 0.502850 0.097890
H45 H 0.107100 0.441000 0.149800
H46 H 0.051300 0.488400 0.034300
C47 C 0.071800 0.617280 0.148190
H48 H 0.067400 0.676700 0.092200
H49 H -0.057900 0.610000 0.179100
C50 C 0.396600 0.571840 -0.031260
C51 C 0.270900 0.627620 -0.091750
H52 H 0.312700 0.666500 -0.153900
H53 H 0.139500 0.628400 -0.072700
C54 C 0.605200 0.570070 -0.060840
H55 H 0.621300 0.601200 -0.132800
H56 H 0.652300 0.491500 -0.059100
H57 H 0.677700 0.616300 -0.009900
O58 O 0.676520 0.718150 0.327800
O59 O 0.365580 0.763750 0.474360
H60 H 0.714000 0.719900 0.392700
C61 C -0.003760 0.343360 0.827460
H62 H -0.027700 0.419400 0.860700
C63 C 0.157880 0.285160 0.888930
C64 C 0.332780 0.302780 0.829390
H65 H 0.457700 0.285300 0.854200
C66 C 0.291140 0.347780 0.733350
C67 C 0.078260 0.362500 0.715320
H68 H 0.031900 0.300600 0.667100
C69 C 0.033300 0.477860 0.664450
H70 H 0.055400 0.538900 0.717500
H71 H -0.103300 0.480000 0.643900
C72 C 0.157700 0.500790 0.564870
H73 H 0.131400 0.581400 0.543800
C74 C 0.368360 0.497150 0.597890
H75 H 0.392900 0.559000 0.649800
H76 H 0.448700 0.511600 0.534300
C77 C 0.428200 0.382720 0.648190
H78 H 0.432600 0.323300 0.592200
H79 H 0.557900 0.390000 0.679100
C80 C 0.103400 0.428160 0.468740
C81 C 0.229100 0.372380 0.408250
H82 H 0.187300 0.333500 0.346100
H83 H 0.360500 0.371600 0.427300
C84 C -0.105200 0.429930 0.439160
H85 H -0.121300 0.398800 0.367200
H86 H -0.152300 0.508500 0.440900
H87 H -0.177700 0.383700 0.490100
O88 O -0.176520 0.281850 0.827800
O89 O 0.134420 0.236250 0.974360
H90 H -0.214000 0.280100 0.892700
C91 C 0.496240 0.156640 0.172540
H92 H 0.472300 0.080600 0.139300
C93 C 0.657880 0.214840 0.111070
C94 C 0.832780 0.197220 0.170610
H95 H 0.957700 0.214700 0.145800
C96 C 0.791140 0.152220 0.266650
C97 C 0.578260 0.137500 0.284680
H98 H 0.531900 0.199400 0.332900
C99 C 0.533300 0.022140 0.335550
H100 H 0.555400 -0.038900 0.282500
H101 H 0.396700 0.020000 0.356100
C102 C 0.657700 -0.000790 0.435130
H103 H 0.631400 -0.081400 0.456200
C104 C 0.868360 0.002850 0.402110
H105 H 0.892900 -0.059000 0.350200
H106 H 0.948700 -0.011600 0.465700
C107 C 0.928200 0.117280 0.351810
H108 H 0.932600 0.176700 0.407800
H109 H 1.057900 0.110000 0.320900
C110 C 0.603400 0.071840 0.531260
C111 C 0.729100 0.127620 0.591750
H112 H 0.687300 0.166500 0.653900
H113 H 0.860500 0.128400 0.572700
C114 C 0.394800 0.070070 0.560840
H115 H 0.378700 0.101200 0.632800
H116 H 0.347700 -0.008500 0.559100
H117 H 0.322300 0.116300 0.509900
O118 O 0.323480 0.218150 0.172200
O119 O 0.634420 0.263750 0.025640
H120 H 0.286000 0.219900 0.107300

#END
