./ABIHOL_from_xyz.cif_generated_by_CrystalShift
_symmetry_cell_setting triclinic
_symmetry_space_group_name_H-M 'P 1'
loop_
_symmetry_equiv_pos_site_id
_symmetry_equiv_pos_as_xyz
1 x,y,z
_cell_length_a 7.409800
_cell_length_b 16.824000
_cell_length_c 8.266700
_cell_angle_alpha 90.000000
_cell_angle_beta 98.120000
_cell_angle_gamma 90.000000
_cell_volume 1020.215382
loop_
_atom_site_label
_atom_site_type_symbol
_atom_site_fract_x
_atom_site_fract_y
_atom_site_fract_z
F1 F -0.405100 0.281270 0.616060
F2 F -0.303000 0.325390 0.402850
F3 F -0.225810 0.381790 0.633300
O4 O 0.068160 0.334550 0.807420
O5 O 0.351020 0.236790 0.834350
H6 H 0.436500 0.204700 0.828000
O7 O 0.360570 0.106320 0.641950
O8 O -0.268820 0.097580 0.305860
C9 C 0.059900 0.270670 0.703810
C10 C 0.209200 0.218960 0.719800
C11 C 0.205300 0.150830 0.619910
C12 C 0.049600 0.133190 0.513490
H13 H 0.045400 0.086400 0.448800
C14 C -0.095700 0.254070 0.591720
C15 C -0.255000 0.310860 0.563380
C16 C 0.176700 0.399180 0.761300
H17 H 0.300400 0.380300 0.754400
H18 H 0.181400 0.441500 0.843200
H19 H 0.122200 0.419900 0.654700
C20 C 0.355100 0.033290 0.550300
H21 H 0.258200 -0.000900 0.580500
H22 H 0.472600 0.006000 0.574800
H23 H 0.330900 0.045200 0.433200
C24 C -0.102100 0.183510 0.499810
C25 C -0.266400 0.156600 0.390310
H26 H -0.374900 0.187000 0.386100
F27 F 1.405100 0.781270 0.383940
F28 F 1.303000 0.825390 0.597150
F29 F 1.225810 0.881790 0.366700
O30 O 0.931840 0.834550 0.192580
O31 O 0.648980 0.736790 0.165650
H32 H 0.563500 0.704700 0.172000
O33 O 0.639430 0.606320 0.358050
O34 O 1.268820 0.597580 0.694140
C35 C 0.940100 0.770670 0.296190
C36 C 0.790800 0.718960 0.280200
C37 C 0.794700 0.650830 0.380090
C38 C 0.950400 0.633190 0.486510
H39 H 0.954600 0.586400 0.551200
C40 C 1.095700 0.754070 0.408280
C41 C 1.255000 0.810860 0.436620
C42 C 0.823300 0.899180 0.238700
H43 H 0.699600 0.880300 0.245600
H44 H 0.818600 0.941500 0.156800
H45 H 0.877800 0.919900 0.345300
C46 C 0.644900 0.533290 0.449700
H47 H 0.741800 0.499100 0.419500
H48 H 0.527400 0.506000 0.425200
H49 H 0.669100 0.545200 0.566800
C50 C 1.102100 0.683510 0.500190
C51 C 1.266400 0.656600 0.609690
H52 H 1.374900 0.687000 0.613900
F53 F 1.028060 0.388580 0.272500
F54 F 1.171790 0.490790 0.376650
F55 F 1.259600 0.431630 0.171150
O56 O 0.529960 0.527330 -0.094070
H57 H 0.481700 0.562100 -0.159200
O58 O 0.719290 0.432270 0.124770
O59 O 0.670910 0.663460 -0.196910
O60 O 1.322720 0.668580 0.088400
C61 C 1.070800 0.580720 0.067720
C62 C 0.992500 0.510110 0.119070
C63 C 0.808400 0.493970 0.064170
C64 C 0.705700 0.546320 -0.045260
C65 C 0.785400 0.616160 -0.094850
C66 C 0.965400 0.633060 -0.037660
H67 H 1.018200 0.680800 -0.070300
C68 C 1.109300 0.454740 0.233670
C69 C 0.734700 0.742880 -0.220600
H70 H 0.771400 0.768000 -0.114100
H71 H 0.636700 0.773900 -0.283000
H72 H 0.839400 0.740700 -0.280800
C73 C 0.684400 0.365420 0.017800
H74 H 0.611400 0.382400 -0.084500
H75 H 0.617600 0.324800 0.070200
H76 H 0.800300 0.343300 -0.005600
C77 C 1.261400 0.604680 0.123390
H78 H 1.339200 0.568800 0.189100
F79 F -0.028060 -0.111420 0.727500
F80 F -0.171790 -0.009210 0.623350
F81 F -0.259600 -0.068370 0.828850
O82 O 0.470040 0.027330 1.094070
H83 H 0.518300 0.062100 1.159200
O84 O 0.280710 -0.067730 0.875230
O85 O 0.329090 0.163460 1.196910
O86 O -0.322720 0.168580 0.911600
C87 C -0.070800 0.080720 0.932280
C88 C 0.007500 0.010110 0.880930
C89 C 0.191600 -0.006030 0.935830
C90 C 0.294300 0.046320 1.045260
C91 C 0.214600 0.116160 1.094850
C92 C 0.034600 0.133060 1.037660
H93 H -0.018200 0.180800 1.070300
C94 C -0.109300 -0.045260 0.766330
C95 C 0.265300 0.242880 1.220600
H96 H 0.228600 0.268000 1.114100
H97 H 0.363300 0.273900 1.283000
H98 H 0.160600 0.240700 1.280800
C99 C 0.315600 -0.134580 0.982200
H100 H 0.388600 -0.117600 1.084500
H101 H 0.382400 -0.175200 0.929800
H102 H 0.199700 -0.156700 1.005600
C103 C -0.261400 0.104680 0.876610
H104 H -0.339200 0.068800 0.810900

#END
