
#######################################################################
#
#                 Cambridge Crystallographic Data Centre
#                                CCDC 
#
#######################################################################
#
# If this CIF has been generated from an entry in the Cambridge 
# Structural Database, then it will include bibliographic, chemical, 
# crystal, experimental, refinement or atomic coordinate data resulting 
# from the CCDC's data processing and validation procedures.
#
#######################################################################

data_ABIKII
_symmetry_cell_setting           triclinic
_symmetry_space_group_name_H-M   'P -1'
_symmetry_Int_Tables_number      2
_space_group_name_Hall           '-P 1'
loop_
_symmetry_equiv_pos_site_id
_symmetry_equiv_pos_as_xyz
1 x,y,z
2 -x,-y,-z
_cell_length_a                   7.729(15)
_cell_length_b                   7.756(14)
_cell_length_c                   12.50(3)
_cell_angle_alpha                88.70(7)
_cell_angle_beta                 77.13(8)
_cell_angle_gamma                87.28(7)
_cell_volume                     729.622
loop_
_atom_site_label
_atom_site_type_symbol
_atom_site_fract_x
_atom_site_fract_y
_atom_site_fract_z
C1 C 0.4474(13) 0.2176(8) 0.0640(8)
C2 C 0.3001(10) 0.1843(8) 0.1584(7)
C3 C 0.2319(10) 0.3582(9) 0.2132(8)
C4 C 0.1257(11) 0.4724(9) 0.1553(7)
H1 H 0.2002 0.5100 0.0844
H2 H 0.0834 0.5765 0.1997
C5 C -0.0317(11) 0.3798(9) 0.1353(7)
H3 H -0.1034 0.4585 0.0971
H4 H -0.1078 0.3445 0.2062
C6 C 0.0331(10) 0.2205(8) 0.0653(7)
H5 H -0.0708 0.1597 0.0537
H6 H 0.1021 0.2576 -0.0074
C7 C 0.1467(10) 0.0985(8) 0.1176(7)
H7 H 0.2036 0.0119 0.0610
C8 C 0.0586(10) -0.0003(8) 0.2181(7)
H8 H -0.0346 0.0726 0.2659
H9 H 0.0042 -0.1043 0.1979
C9 C 0.2053(10) -0.0489(8) 0.2741(7)
H10 H 0.2004 -0.1388 0.3275
C10 C 0.3449(10) 0.0501(7) 0.2399(6)
C11 C 0.5143(10) 0.0400(8) 0.2718(7)
C12 C 0.5769(9) -0.1208(7) 0.3247(7)
C13 C 0.6723(10) -0.1062(8) 0.4048(7)
H11 H 0.6904 0.0046 0.4301
C14 C 0.7425(9) -0.2533(8) 0.4486(7)
H12 H 0.8107 -0.2456 0.5027
C15 C 0.7078(10) -0.4139(8) 0.4092(7)
C16 C 0.7853(10) -0.5721(10) 0.4533(7)
C17 C 0.6112(10) -0.4280(8) 0.3325(7)
H13 H 0.5893 -0.5388 0.3087
C18 C 0.5441(9) -0.2802(8) 0.2884(7)
H14 H 0.4766 -0.2887 0.2340
N1 N 0.5557(10) 0.2518(9) -0.0100(7)
N2 N 0.8430(9) -0.6969(8) 0.4814(6)
O1 O 0.2566(8) 0.3850(6) 0.3011(6)
O2 O 0.6120(7) 0.1640(6) 0.2554(5)
C1 C 0.5526(13) 0.7824(8) 0.9360(8)
C2 C 0.6999(10) 0.8157(8) 0.8416(7)
C3 C 0.7681(10) 0.6418(9) 0.7868(8)
C4 C 0.8743(11) 0.5276(9) 0.8447(7)
H1 H 0.7998 0.4900 0.9156
H2 H 0.9166 0.4235 0.8003
C5 C 1.0317(11) 0.6202(9) 0.8647(7)
H3 H 1.1034 0.5415 0.9029
H4 H 1.1078 0.6555 0.7938
C6 C 0.9669(10) 0.7795(8) 0.9347(7)
H5 H 1.0708 0.8403 0.9463
H6 H 0.8979 0.7424 1.0074
C7 C 0.8533(10) 0.9015(8) 0.8824(7)
H7 H 0.7964 0.9881 0.9390
C8 C 0.9414(10) 1.0003(8) 0.7819(7)
H8 H 1.0346 0.9274 0.7341
H9 H 0.9958 1.1043 0.8021
C9 C 0.7947(10) 1.0489(8) 0.7259(7)
H10 H 0.7996 1.1388 0.6725
C10 C 0.6551(10) 0.9499(7) 0.7601(6)
C11 C 0.4857(10) 0.9600(8) 0.7282(7)
C12 C 0.4231(9) 1.1208(7) 0.6753(7)
C13 C 0.3277(10) 1.1062(8) 0.5952(7)
H11 H 0.3096 0.9954 0.5699
C14 C 0.2575(9) 1.2533(8) 0.5514(7)
H12 H 0.1893 1.2456 0.4973
C15 C 0.2922(10) 1.4139(8) 0.5908(7)
C16 C 0.2147(10) 1.5721(10) 0.5467(7)
C17 C 0.3888(10) 1.4280(8) 0.6675(7)
H13 H 0.4107 1.5388 0.6913
C18 C 0.4559(9) 1.2802(8) 0.7116(7)
H14 H 0.5234 1.2887 0.7660
N1 N 0.4443(10) 0.7482(9) 1.0100(7)
N2 N 0.1570(9) 1.6969(8) 0.5186(6)
O1 O 0.7434(8) 0.6150(6) 0.6989(6)
O2 O 0.3880(7) 0.8360(6) 0.7446(5)

#END
