./ABIMIH_from_xyz.cif_generated_by_CrystalShift
_symmetry_cell_setting triclinic
_symmetry_space_group_name_H-M 'P 1'
loop_
_symmetry_equiv_pos_site_id
_symmetry_equiv_pos_as_xyz
1 x,y,z
_cell_length_a 23.503000
_cell_length_b 6.710600
_cell_length_c 17.435000
_cell_angle_alpha 90.000000
_cell_angle_beta 117.677000
_cell_angle_gamma 90.000000
_cell_volume 2435.199134
loop_
_atom_site_label
_atom_site_type_symbol
_atom_site_fract_x
_atom_site_fract_y
_atom_site_fract_z
O1 O 0.933750 0.846800 0.651790
O2 O 0.930100 0.794300 0.908460
N3 N 0.736770 0.846200 0.642510
N4 N 0.835520 0.835600 0.644030
N5 N 0.931230 0.815700 0.779320
H6 H 0.973500 0.809500 0.805600
N7 N 0.797350 0.821900 0.823230
C8 C 0.731570 0.829100 0.776600
C9 C 0.697160 0.834100 0.824000
H10 H 0.719300 0.838200 0.885500
C11 C 0.631720 0.832900 0.781500
H12 H 0.608400 0.841000 0.813700
C13 C 0.598200 0.819900 0.690900
C14 C 0.630300 0.812000 0.640600
C15 C 0.698800 0.828400 0.684510
C16 C 0.802180 0.830000 0.687500
C17 C 0.900680 0.833300 0.689300
C18 C 0.901320 0.807400 0.829900
C19 C 0.830080 0.815700 0.779620
C20 C 0.525700 0.815400 0.647900
H21 H 0.511200 0.824700 0.692100
H22 H 0.510300 0.690400 0.615700
H23 H 0.508600 0.928200 0.607900
C24 C 0.591330 0.774800 0.545100
H25 H 0.619900 0.769700 0.518300
H26 H 0.560100 0.882800 0.518800
H27 H 0.568500 0.647700 0.535700
C28 C 0.710980 0.912600 0.551200
H29 H 0.745600 0.912600 0.534700
H30 H 0.693500 1.047600 0.545300
H31 H 0.676800 0.821600 0.513400
O32 O 0.933750 0.153200 0.151790
O33 O 0.930100 0.205700 0.408460
N34 N 0.736770 0.153800 0.142510
N35 N 0.835520 0.164400 0.144030
N36 N 0.931230 0.184300 0.279320
H37 H 0.973500 0.190500 0.305600
N38 N 0.797350 0.178100 0.323230
C39 C 0.731570 0.170900 0.276600
C40 C 0.697160 0.165900 0.324000
H41 H 0.719300 0.161800 0.385500
C42 C 0.631720 0.167100 0.281500
H43 H 0.608400 0.159000 0.313700
C44 C 0.598200 0.180100 0.190900
C45 C 0.630300 0.188000 0.140600
C46 C 0.698800 0.171600 0.184510
C47 C 0.802180 0.170000 0.187500
C48 C 0.900680 0.166700 0.189300
C49 C 0.901320 0.192600 0.329900
C50 C 0.830080 0.184300 0.279620
C51 C 0.525700 0.184600 0.147900
H52 H 0.511200 0.175300 0.192100
H53 H 0.510300 0.309600 0.115700
H54 H 0.508600 0.071800 0.107900
C55 C 0.591330 0.225200 0.045100
H56 H 0.619900 0.230300 0.018300
H57 H 0.560100 0.117200 0.018800
H58 H 0.568500 0.352300 0.035700
C59 C 0.710980 0.087400 0.051200
H60 H 0.745600 0.087400 0.034700
H61 H 0.693500 -0.047600 0.045300
H62 H 0.676800 0.178400 0.013400
O63 O 0.433750 0.346800 0.651790
O64 O 0.430100 0.294300 0.908460
N65 N 0.236770 0.346200 0.642510
N66 N 0.335520 0.335600 0.644030
N67 N 0.431230 0.315700 0.779320
H68 H 0.473500 0.309500 0.805600
N69 N 0.297350 0.321900 0.823230
C70 C 0.231570 0.329100 0.776600
C71 C 0.197160 0.334100 0.824000
H72 H 0.219300 0.338200 0.885500
C73 C 0.131720 0.332900 0.781500
H74 H 0.108400 0.341000 0.813700
C75 C 0.098200 0.319900 0.690900
C76 C 0.130300 0.312000 0.640600
C77 C 0.198800 0.328400 0.684510
C78 C 0.302180 0.330000 0.687500
C79 C 0.400680 0.333300 0.689300
C80 C 0.401320 0.307400 0.829900
C81 C 0.330080 0.315700 0.779620
C82 C 0.025700 0.315400 0.647900
H83 H 0.011200 0.324700 0.692100
H84 H 0.010300 0.190400 0.615700
H85 H 0.008600 0.428200 0.607900
C86 C 0.091330 0.274800 0.545100
H87 H 0.119900 0.269700 0.518300
H88 H 0.060100 0.382800 0.518800
H89 H 0.068500 0.147700 0.535700
C90 C 0.210980 0.412600 0.551200
H91 H 0.245600 0.412600 0.534700
H92 H 0.193500 0.547600 0.545300
H93 H 0.176800 0.321600 0.513400
O94 O 0.433750 0.653200 0.151790
O95 O 0.430100 0.705700 0.408460
N96 N 0.236770 0.653800 0.142510
N97 N 0.335520 0.664400 0.144030
N98 N 0.431230 0.684300 0.279320
H99 H 0.473500 0.690500 0.305600
N100 N 0.297350 0.678100 0.323230
C101 C 0.231570 0.670900 0.276600
C102 C 0.197160 0.665900 0.324000
H103 H 0.219300 0.661800 0.385500
C104 C 0.131720 0.667100 0.281500
H105 H 0.108400 0.659000 0.313700
C106 C 0.098200 0.680100 0.190900
C107 C 0.130300 0.688000 0.140600
C108 C 0.198800 0.671600 0.184510
C109 C 0.302180 0.670000 0.187500
C110 C 0.400680 0.666700 0.189300
C111 C 0.401320 0.692600 0.329900
C112 C 0.330080 0.684300 0.279620
C113 C 0.025700 0.684600 0.147900
H114 H 0.011200 0.675300 0.192100
H115 H 0.010300 0.809600 0.115700
H116 H 0.008600 0.571800 0.107900
C117 C 0.091330 0.725200 0.045100
H118 H 0.119900 0.730300 0.018300
H119 H 0.060100 0.617200 0.018800
H120 H 0.068500 0.852300 0.035700
C121 C 0.210980 0.587400 0.051200
H122 H 0.245600 0.587400 0.034700
H123 H 0.193500 0.452400 0.045300
H124 H 0.176800 0.678400 0.013400
O125 O 0.066250 0.153200 0.348210
O126 O 0.069900 0.205700 0.091540
N127 N 0.263230 0.153800 0.357490
N128 N 0.164480 0.164400 0.355970
N129 N 0.068770 0.184300 0.220680
H130 H 0.026500 0.190500 0.194400
N131 N 0.202650 0.178100 0.176770
C132 C 0.268430 0.170900 0.223400
C133 C 0.302840 0.165900 0.176000
H134 H 0.280700 0.161800 0.114500
C135 C 0.368280 0.167100 0.218500
H136 H 0.391600 0.159000 0.186300
C137 C 0.401800 0.180100 0.309100
C138 C 0.369700 0.188000 0.359400
C139 C 0.301200 0.171600 0.315490
C140 C 0.197820 0.170000 0.312500
C141 C 0.099320 0.166700 0.310700
C142 C 0.098680 0.192600 0.170100
C143 C 0.169920 0.184300 0.220380
C144 C 0.474300 0.184600 0.352100
H145 H 0.488800 0.175300 0.307900
H146 H 0.489700 0.309600 0.384300
H147 H 0.491400 0.071800 0.392100
C148 C 0.408670 0.225200 0.454900
H149 H 0.380100 0.230300 0.481700
H150 H 0.439900 0.117200 0.481200
H151 H 0.431500 0.352300 0.464300
C152 C 0.289020 0.087400 0.448800
H153 H 0.254400 0.087400 0.465300
H154 H 0.306500 -0.047600 0.454700
H155 H 0.323200 0.178400 0.486600
O156 O 0.066250 0.846800 0.848210
O157 O 0.069900 0.794300 0.591540
N158 N 0.263230 0.846200 0.857490
N159 N 0.164480 0.835600 0.855970
N160 N 0.068770 0.815700 0.720680
H161 H 0.026500 0.809500 0.694400
N162 N 0.202650 0.821900 0.676770
C163 C 0.268430 0.829100 0.723400
C164 C 0.302840 0.834100 0.676000
H165 H 0.280700 0.838200 0.614500
C166 C 0.368280 0.832900 0.718500
H167 H 0.391600 0.841000 0.686300
C168 C 0.401800 0.819900 0.809100
C169 C 0.369700 0.812000 0.859400
C170 C 0.301200 0.828400 0.815490
C171 C 0.197820 0.830000 0.812500
C172 C 0.099320 0.833300 0.810700
C173 C 0.098680 0.807400 0.670100
C174 C 0.169920 0.815700 0.720380
C175 C 0.474300 0.815400 0.852100
H176 H 0.488800 0.824700 0.807900
H177 H 0.489700 0.690400 0.884300
H178 H 0.491400 0.928200 0.892100
C179 C 0.408670 0.774800 0.954900
H180 H 0.380100 0.769700 0.981700
H181 H 0.439900 0.882800 0.981200
H182 H 0.431500 0.647700 0.964300
C183 C 0.289020 0.912600 0.948800
H184 H 0.254400 0.912600 0.965300
H185 H 0.306500 1.047600 0.954700
H186 H 0.323200 0.821600 0.986600
O187 O 0.566250 0.653200 0.348210
O188 O 0.569900 0.705700 0.091540
N189 N 0.763230 0.653800 0.357490
N190 N 0.664480 0.664400 0.355970
N191 N 0.568770 0.684300 0.220680
H192 H 0.526500 0.690500 0.194400
N193 N 0.702650 0.678100 0.176770
C194 C 0.768430 0.670900 0.223400
C195 C 0.802840 0.665900 0.176000
H196 H 0.780700 0.661800 0.114500
C197 C 0.868280 0.667100 0.218500
H198 H 0.891600 0.659000 0.186300
C199 C 0.901800 0.680100 0.309100
C200 C 0.869700 0.688000 0.359400
C201 C 0.801200 0.671600 0.315490
C202 C 0.697820 0.670000 0.312500
C203 C 0.599320 0.666700 0.310700
C204 C 0.598680 0.692600 0.170100
C205 C 0.669920 0.684300 0.220380
C206 C 0.974300 0.684600 0.352100
H207 H 0.988800 0.675300 0.307900
H208 H 0.989700 0.809600 0.384300
H209 H 0.991400 0.571800 0.392100
C210 C 0.908670 0.725200 0.454900
H211 H 0.880100 0.730300 0.481700
H212 H 0.939900 0.617200 0.481200
H213 H 0.931500 0.852300 0.464300
C214 C 0.789020 0.587400 0.448800
H215 H 0.754400 0.587400 0.465300
H216 H 0.806500 0.452400 0.454700
H217 H 0.823200 0.678400 0.486600
O218 O 0.566250 0.346800 0.848210
O219 O 0.569900 0.294300 0.591540
N220 N 0.763230 0.346200 0.857490
N221 N 0.664480 0.335600 0.855970
N222 N 0.568770 0.315700 0.720680
H223 H 0.526500 0.309500 0.694400
N224 N 0.702650 0.321900 0.676770
C225 C 0.768430 0.329100 0.723400
C226 C 0.802840 0.334100 0.676000
H227 H 0.780700 0.338200 0.614500
C228 C 0.868280 0.332900 0.718500
H229 H 0.891600 0.341000 0.686300
C230 C 0.901800 0.319900 0.809100
C231 C 0.869700 0.312000 0.859400
C232 C 0.801200 0.328400 0.815490
C233 C 0.697820 0.330000 0.812500
C234 C 0.599320 0.333300 0.810700
C235 C 0.598680 0.307400 0.670100
C236 C 0.669920 0.315700 0.720380
C237 C 0.974300 0.315400 0.852100
H238 H 0.988800 0.324700 0.807900
H239 H 0.989700 0.190400 0.884300
H240 H 0.991400 0.428200 0.892100
C241 C 0.908670 0.274800 0.954900
H242 H 0.880100 0.269700 0.981700
H243 H 0.939900 0.382800 0.981200
H244 H 0.931500 0.147700 0.964300
C245 C 0.789020 0.412600 0.948800
H246 H 0.754400 0.412600 0.965300
H247 H 0.806500 0.547600 0.954700
H248 H 0.823200 0.321600 0.986600
O249 O 0.856810 0.170500 0.525400
H250 H 0.878600 0.180800 0.472800
H251 H 0.889900 0.053100 0.568600
O252 O 0.856810 0.829500 0.025400
H253 H 0.878600 0.819200 -0.027200
H254 H 0.889900 0.946900 0.068600
O255 O 0.356810 0.670500 0.525400
H256 H 0.378600 0.680800 0.472800
H257 H 0.389900 0.553100 0.568600
O258 O 0.356810 0.329500 0.025400
H259 H 0.378600 0.319200 -0.027200
H260 H 0.389900 0.446900 0.068600
O261 O 0.143190 0.829500 0.474600
H262 H 0.121400 0.819200 0.527200
H263 H 0.110100 0.946900 0.431400
O264 O 0.143190 0.170500 0.974600
H265 H 0.121400 0.180800 1.027200
H266 H 0.110100 0.053100 0.931400
O267 O 0.643190 0.329500 0.474600
H268 H 0.621400 0.319200 0.527200
H269 H 0.610100 0.446900 0.431400
O270 O 0.643190 0.670500 0.974600
H271 H 0.621400 0.680800 1.027200
H272 H 0.610100 0.553100 0.931400

#END
