./ABINUU_from_xyz.cif_generated_by_CrystalShift
_symmetry_cell_setting triclinic
_symmetry_space_group_name_H-M 'P 1'
loop_
_symmetry_equiv_pos_site_id
_symmetry_equiv_pos_as_xyz
1 x,y,z
_cell_length_a 7.852000
_cell_length_b 9.285000
_cell_length_c 35.284000
_cell_angle_alpha 90.000000
_cell_angle_beta 90.000000
_cell_angle_gamma 90.000000
_cell_volume 2572.408953
loop_
_atom_site_label
_atom_site_type_symbol
_atom_site_fract_x
_atom_site_fract_y
_atom_site_fract_z
C1 C 0.209200 -0.353600 0.870350
C2 C 0.354800 -0.309500 0.845910
H3 H 0.377800 -0.382400 0.826920
H4 H 0.456500 -0.295300 0.861040
C5 C 0.299800 -0.165900 0.826800
C6 C 0.259800 -0.197700 0.783980
C7 C 0.442900 -0.051800 0.831560
H8 H 0.528900 -0.097000 0.847800
C9 C 0.534500 -0.016500 0.794390
H10 H 0.467300 0.052100 0.779990
H11 H 0.643800 0.027500 0.799910
C12 C 0.560900 -0.148500 0.771540
C13 C 0.367800 0.074700 0.855310
C14 C 0.233900 -0.002800 0.880910
H15 H 0.146800 0.067400 0.888350
C16 C 0.150200 -0.116200 0.853500
C17 C 0.304700 -0.074700 0.916990
H18 H 0.224100 -0.147400 0.925220
H19 H 0.409600 -0.123900 0.910420
C20 C 0.340800 0.025200 0.950370
H21 H 0.345400 -0.033500 0.973090
H22 H 0.244000 0.089300 0.953060
C23 C 0.502800 0.118700 0.949440
C24 C 0.498700 0.222100 0.914660
C25 C 0.515400 0.153300 0.874830
C26 C 0.651200 0.327100 0.917280
C27 C 0.653200 0.014400 0.945090
C28 C 0.508200 0.209800 0.985600
H29 H 0.464300 0.154600 1.006440
H30 H 0.439900 0.294600 0.982200
H31 H 0.623700 0.237300 0.990800
C32 C -0.017600 -0.061000 0.837450
H33 H 0.002700 0.025100 0.823100
H34 H -0.094600 -0.040200 0.857870
H35 H -0.066600 -0.133000 0.821300
C36 C 0.754100 -0.039000 0.977490
C37 C 0.735500 -0.029500 1.015910
H38 H 0.649000 0.021000 1.028060
C39 C 0.900100 -0.126100 0.972100
H40 H 0.945900 -0.154100 0.948930
C41 C 0.959800 -0.160600 1.005990
H42 H 1.056500 -0.216200 1.010210
C43 C 0.182300 -0.079000 0.760030
H44 H 0.234400 0.011400 0.766400
H45 H 0.062100 -0.073700 0.764800
H46 H 0.201300 -0.099400 0.733690
C47 C 0.151200 -0.332400 0.777680
H48 H 0.042900 -0.320500 0.789900
H49 H 0.208400 -0.414700 0.788200
H50 H 0.134100 -0.346700 0.751000
C51 C 0.284300 0.194600 0.831430
H52 H 0.223900 0.259400 0.847830
H53 H 0.206200 0.152400 0.813700
H54 H 0.370800 0.246600 0.817900
C55 C 0.757900 0.554200 0.902100
H56 H 0.740300 0.629400 0.920300
H57 H 0.767000 0.595600 0.877200
H58 H 0.860800 0.503100 0.908000
O59 O 0.186600 -0.467800 0.885760
O60 O 0.426200 -0.237600 0.767530
O61 O 0.694500 -0.184100 0.757340
O62 O 0.097200 -0.246200 0.874070
O63 O 0.338200 0.291900 0.916830
H64 H 0.342700 0.368900 0.905500
O65 O 0.642300 0.180600 0.856490
O66 O 0.787300 0.293300 0.930380
O67 O 0.613700 0.454400 0.903060
O68 O 0.682500 -0.037500 0.913940
O69 O 0.860100 -0.103600 1.033860
C70 C 0.290800 1.353600 0.370350
C71 C 0.145200 1.309500 0.345910
H72 H 0.122200 1.382400 0.326920
H73 H 0.043500 1.295300 0.361040
C74 C 0.200200 1.165900 0.326800
C75 C 0.240200 1.197700 0.283980
C76 C 0.057100 1.051800 0.331560
H77 H -0.028900 1.097000 0.347800
C78 C -0.034500 1.016500 0.294390
H79 H 0.032700 0.947900 0.279990
H80 H -0.143800 0.972500 0.299910
C81 C -0.060900 1.148500 0.271540
C82 C 0.132200 0.925300 0.355310
C83 C 0.266100 1.002800 0.380910
H84 H 0.353200 0.932600 0.388350
C85 C 0.349800 1.116200 0.353500
C86 C 0.195300 1.074700 0.416990
H87 H 0.275900 1.147400 0.425220
H88 H 0.090400 1.123900 0.410420
C89 C 0.159200 0.974800 0.450370
H90 H 0.154600 1.033500 0.473090
H91 H 0.256000 0.910700 0.453060
C92 C -0.002800 0.881300 0.449440
C93 C 0.001300 0.777900 0.414660
C94 C -0.015400 0.846700 0.374830
C95 C -0.151200 0.672900 0.417280
C96 C -0.153200 0.985600 0.445090
C97 C -0.008200 0.790200 0.485600
H98 H 0.035700 0.845400 0.506440
H99 H 0.060100 0.705400 0.482200
H100 H -0.123700 0.762700 0.490800
C101 C 0.517600 1.061000 0.337450
H102 H 0.497300 0.974900 0.323100
H103 H 0.594600 1.040200 0.357870
H104 H 0.566600 1.133000 0.321300
C105 C -0.254100 1.039000 0.477490
C106 C -0.235500 1.029500 0.515910
H107 H -0.149000 0.979000 0.528060
C108 C -0.400100 1.126100 0.472100
H109 H -0.445900 1.154100 0.448930
C110 C -0.459800 1.160600 0.505990
H111 H -0.556500 1.216200 0.510210
C112 C 0.317700 1.079000 0.260030
H113 H 0.265600 0.988600 0.266400
H114 H 0.437900 1.073700 0.264800
H115 H 0.298700 1.099400 0.233690
C116 C 0.348800 1.332400 0.277680
H117 H 0.457100 1.320500 0.289900
H118 H 0.291600 1.414700 0.288200
H119 H 0.365900 1.346700 0.251000
C120 C 0.215700 0.805400 0.331430
H121 H 0.276100 0.740600 0.347830
H122 H 0.293800 0.847600 0.313700
H123 H 0.129200 0.753400 0.317900
C124 C -0.257900 0.445800 0.402100
H125 H -0.240300 0.370600 0.420300
H126 H -0.267000 0.404400 0.377200
H127 H -0.360800 0.496900 0.408000
O128 O 0.313400 1.467800 0.385760
O129 O 0.073800 1.237600 0.267530
O130 O -0.194500 1.184100 0.257340
O131 O 0.402800 1.246200 0.374070
O132 O 0.161800 0.708100 0.416830
H133 H 0.157300 0.631100 0.405500
O134 O -0.142300 0.819400 0.356490
O135 O -0.287300 0.706700 0.430380
O136 O -0.113700 0.545600 0.403060
O137 O -0.182500 1.037500 0.413940
O138 O -0.360100 1.103600 0.533860
C139 C 0.709200 0.853600 0.129650
C140 C 0.854800 0.809500 0.154090
H141 H 0.877800 0.882400 0.173080
H142 H 0.956500 0.795300 0.138960
C143 C 0.799800 0.665900 0.173200
C144 C 0.759800 0.697700 0.216020
C145 C 0.942900 0.551800 0.168440
H146 H 1.028900 0.597000 0.152200
C147 C 1.034500 0.516500 0.205610
H148 H 0.967300 0.447900 0.220010
H149 H 1.143800 0.472500 0.200090
C150 C 1.060900 0.648500 0.228460
C151 C 0.867800 0.425300 0.144690
C152 C 0.733900 0.502800 0.119090
H153 H 0.646800 0.432600 0.111650
C154 C 0.650200 0.616200 0.146500
C155 C 0.804700 0.574700 0.083010
H156 H 0.724100 0.647400 0.074780
H157 H 0.909600 0.623900 0.089580
C158 C 0.840800 0.474800 0.049630
H159 H 0.845400 0.533500 0.026910
H160 H 0.744000 0.410700 0.046940
C161 C 1.002800 0.381300 0.050560
C162 C 0.998700 0.277900 0.085340
C163 C 1.015400 0.346700 0.125170
C164 C 1.151200 0.172900 0.082720
C165 C 1.153200 0.485600 0.054910
C166 C 1.008200 0.290200 0.014400
H167 H 0.964300 0.345400 -0.006440
H168 H 0.939900 0.205400 0.017800
H169 H 1.123700 0.262700 0.009200
C170 C 0.482400 0.561000 0.162550
H171 H 0.502700 0.474900 0.176900
H172 H 0.405400 0.540200 0.142130
H173 H 0.433400 0.633000 0.178700
C174 C 1.254100 0.539000 0.022510
C175 C 1.235500 0.529500 -0.015910
H176 H 1.149000 0.479000 -0.028060
C177 C 1.400100 0.626100 0.027900
H178 H 1.445900 0.654100 0.051070
C179 C 1.459800 0.660600 -0.005990
H180 H 1.556500 0.716200 -0.010210
C181 C 0.682300 0.579000 0.239970
H182 H 0.734400 0.488600 0.233600
H183 H 0.562100 0.573700 0.235200
H184 H 0.701300 0.599400 0.266310
C185 C 0.651200 0.832400 0.222320
H186 H 0.542900 0.820500 0.210100
H187 H 0.708400 0.914700 0.211800
H188 H 0.634100 0.846700 0.249000
C189 C 0.784300 0.305400 0.168570
H190 H 0.723900 0.240600 0.152170
H191 H 0.706200 0.347600 0.186300
H192 H 0.870800 0.253400 0.182100
C193 C 1.257900 -0.054200 0.097900
H194 H 1.240300 -0.129400 0.079700
H195 H 1.267000 -0.095600 0.122800
H196 H 1.360800 -0.003100 0.092000
O197 O 0.686600 0.967800 0.114240
O198 O 0.926200 0.737600 0.232470
O199 O 1.194500 0.684100 0.242660
O200 O 0.597200 0.746200 0.125930
O201 O 0.838200 0.208100 0.083170
H202 H 0.842700 0.131100 0.094500
O203 O 1.142300 0.319400 0.143510
O204 O 1.287300 0.206700 0.069620
O205 O 1.113700 0.045600 0.096940
O206 O 1.182500 0.537500 0.086060
O207 O 1.360100 0.603600 -0.033860
C208 C 0.790800 0.146400 0.629650
C209 C 0.645200 0.190500 0.654090
H210 H 0.622200 0.117600 0.673080
H211 H 0.543500 0.204700 0.638960
C212 C 0.700200 0.334100 0.673200
C213 C 0.740200 0.302300 0.716020
C214 C 0.557100 0.448200 0.668440
H215 H 0.471100 0.403000 0.652200
C216 C 0.465500 0.483500 0.705610
H217 H 0.532700 0.552100 0.720010
H218 H 0.356200 0.527500 0.700090
C219 C 0.439100 0.351500 0.728460
C220 C 0.632200 0.574700 0.644690
C221 C 0.766100 0.497200 0.619090
H222 H 0.853200 0.567400 0.611650
C223 C 0.849800 0.383800 0.646500
C224 C 0.695300 0.425300 0.583010
H225 H 0.775900 0.352600 0.574780
H226 H 0.590400 0.376100 0.589580
C227 C 0.659200 0.525200 0.549630
H228 H 0.654600 0.466500 0.526910
H229 H 0.756000 0.589300 0.546940
C230 C 0.497200 0.618700 0.550560
C231 C 0.501300 0.722100 0.585340
C232 C 0.484600 0.653300 0.625170
C233 C 0.348800 0.827100 0.582720
C234 C 0.346800 0.514400 0.554910
C235 C 0.491800 0.709800 0.514400
H236 H 0.535700 0.654600 0.493560
H237 H 0.560100 0.794600 0.517800
H238 H 0.376300 0.737300 0.509200
C239 C 1.017600 0.439000 0.662550
H240 H 0.997300 0.525100 0.676900
H241 H 1.094600 0.459800 0.642130
H242 H 1.066600 0.367000 0.678700
C243 C 0.245900 0.461000 0.522510
C244 C 0.264500 0.470500 0.484090
H245 H 0.351000 0.521000 0.471940
C246 C 0.099900 0.373900 0.527900
H247 H 0.054100 0.345900 0.551070
C248 C 0.040200 0.339400 0.494010
H249 H -0.056500 0.283800 0.489790
C250 C 0.817700 0.421000 0.739970
H251 H 0.765600 0.511400 0.733600
H252 H 0.937900 0.426300 0.735200
H253 H 0.798700 0.400600 0.766310
C254 C 0.848800 0.167600 0.722320
H255 H 0.957100 0.179500 0.710100
H256 H 0.791600 0.085300 0.711800
H257 H 0.865900 0.153300 0.749000
C258 C 0.715700 0.694600 0.668570
H259 H 0.776100 0.759400 0.652170
H260 H 0.793800 0.652400 0.686300
H261 H 0.629200 0.746600 0.682100
C262 C 0.242100 1.054200 0.597900
H263 H 0.259700 1.129400 0.579700
H264 H 0.233000 1.095600 0.622800
H265 H 0.139200 1.003100 0.592000
O266 O 0.813400 0.032200 0.614240
O267 O 0.573800 0.262400 0.732470
O268 O 0.305500 0.315900 0.742660
O269 O 0.902800 0.253800 0.625930
O270 O 0.661800 0.791900 0.583170
H271 H 0.657300 0.868900 0.594500
O272 O 0.357700 0.680600 0.643510
O273 O 0.212700 0.793300 0.569620
O274 O 0.386300 0.954400 0.596940
O275 O 0.317500 0.462500 0.586060
O276 O 0.139900 0.396400 0.466140

#END
