./ABIPIK_from_xyz.cif_generated_by_CrystalShift
_symmetry_cell_setting triclinic
_symmetry_space_group_name_H-M 'P 1'
loop_
_symmetry_equiv_pos_site_id
_symmetry_equiv_pos_as_xyz
1 x,y,z
_cell_length_a 14.947100
_cell_length_b 18.533700
_cell_length_c 15.019700
_cell_angle_alpha 90.000000
_cell_angle_beta 112.840000
_cell_angle_gamma 90.000000
_cell_volume 3834.592339
loop_
_atom_site_label
_atom_site_type_symbol
_atom_site_fract_x
_atom_site_fract_y
_atom_site_fract_z
Ni1 Ni 0.014740 0.426713 0.310540
N2 N -0.086640 0.385900 0.201660
N3 N -0.004380 0.353980 0.389910
N4 N 0.111510 0.469130 0.419490
N5 N 0.028000 0.503480 0.233070
C6 C -0.152150 0.425200 0.124650
C7 C -0.228050 0.378360 0.066530
C8 C -0.206250 0.310000 0.106930
C9 C -0.118000 0.317460 0.190780
C10 C -0.062810 0.261240 0.262590
H11 H -0.103400 0.216600 0.250800
C12 C -0.043080 0.288170 0.362730
C13 C -0.056620 0.251380 0.439570
C14 C -0.027420 0.299360 0.516850
C15 C 0.007420 0.362270 0.486460
C16 C 0.062190 0.417630 0.543510
H17 H 0.063000 0.422600 0.606800
C18 C 0.116210 0.466600 0.514630
C19 C 0.191400 0.512690 0.573840
C20 C 0.235400 0.541430 0.515810
C21 C 0.183010 0.514280 0.421260
C22 C 0.200490 0.528900 0.331080
H23 H 0.242800 0.572600 0.342600
C24 C 0.106540 0.545050 0.249090
C25 C 0.086330 0.600900 0.178890
C26 C -0.010820 0.593790 0.118740
C27 C -0.046230 0.531560 0.151570
C28 C -0.132560 0.494800 0.103400
H29 H -0.181900 0.519200 0.052000
C30 C -0.314830 0.399700 -0.022040
H31 H -0.350000 0.355500 -0.053700
H32 H -0.291800 0.423800 -0.068000
C33 C -0.385600 0.450050 -0.001300
H34 H -0.407600 0.427200 0.045400
H35 H -0.441600 0.459600 -0.061400
H36 H -0.352900 0.495600 0.025300
C37 C -0.261570 0.241400 0.068910
H38 H -0.331800 0.251300 0.048500
H39 H -0.243100 0.205500 0.121900
C40 C -0.243800 0.208610 -0.016500
H41 H -0.266200 0.242300 -0.071100
H42 H -0.279600 0.163100 -0.035600
H43 H -0.174300 0.199500 0.002500
C44 C 0.035230 0.241990 0.254810
H45 H 0.071400 0.287300 0.257700
H46 H 0.074200 0.212500 0.311700
C47 C 0.026400 0.200980 0.163560
H48 H 0.091800 0.195900 0.162100
H49 H -0.013900 0.229600 0.106300
C50 C -0.018500 0.126280 0.156790
H51 H 0.015100 0.100600 0.218600
H52 H -0.087500 0.131700 0.147300
C53 C -0.012500 0.080790 0.074800
H54 H -0.039800 0.107900 0.014100
H55 H -0.049300 0.036000 0.069000
H56 H 0.055600 0.069200 0.088600
C57 C -0.093380 0.175340 0.436230
H58 H -0.061500 0.153400 0.501100
H59 H -0.074100 0.146900 0.390800
C60 C -0.202600 0.169730 0.405500
H61 H -0.221700 0.193200 0.453900
H62 H -0.221600 0.118800 0.400000
H63 H -0.235000 0.193500 0.342900
C64 C -0.028310 0.287480 0.615960
H65 H -0.079100 0.251600 0.610900
H66 H -0.046000 0.333300 0.638800
C67 C 0.068400 0.261300 0.690770
H68 H 0.086000 0.215300 0.669500
H69 H 0.062600 0.254500 0.753000
H70 H 0.118900 0.297200 0.697900
C71 C 0.221490 0.522730 0.680650
H72 H 0.165200 0.513000 0.698100
H73 H 0.241500 0.573500 0.697600
C74 C 0.305200 0.472890 0.739080
H75 H 0.284100 0.422500 0.726400
H76 H 0.325100 0.483200 0.808100
H77 H 0.360300 0.481000 0.720200
C78 C 0.321040 0.591530 0.546190
H79 H 0.361100 0.583700 0.615500
H80 H 0.361400 0.579700 0.509200
C81 C 0.292200 0.669930 0.530500
H82 H 0.256300 0.678800 0.461300
H83 H 0.350600 0.700100 0.554200
H84 H 0.250900 0.681800 0.565600
C85 C 0.254480 0.464630 0.307010
H86 H 0.314600 0.454100 0.364000
H87 H 0.212700 0.421200 0.293400
C88 C 0.280800 0.480430 0.219700
H89 H 0.325500 0.522200 0.235600
H90 H 0.220900 0.494600 0.164600
C91 C 0.328100 0.417870 0.187500
H92 H 0.291300 0.373000 0.185300
H93 H 0.324600 0.427600 0.121400
C94 C 0.431500 0.406780 0.253100
H95 H 0.468700 0.450500 0.254200
H96 H 0.458300 0.366100 0.229800
H97 H 0.435400 0.396400 0.318500
C98 C 0.157510 0.655490 0.170200
H99 H 0.141900 0.664600 0.100800
H100 H 0.223500 0.634500 0.198100
C101 C 0.158400 0.727010 0.219600
H102 H 0.093300 0.748300 0.192900
H103 H 0.204600 0.759800 0.208700
H104 H 0.177800 0.719100 0.289100
C105 C -0.067310 0.637510 0.030880
H106 H -0.048300 0.688800 0.043800
H107 H -0.137300 0.633800 0.018000
C108 C -0.050800 0.612780 -0.059120
H109 H 0.017300 0.620600 -0.049100
H110 H -0.092700 0.640600 -0.115300
H111 H -0.066400 0.561400 -0.070400
Ni112 Ni 0.514740 0.073287 0.810540
N113 N 0.413360 0.114100 0.701660
N114 N 0.495620 0.146020 0.889910
N115 N 0.611510 0.030870 0.919490
N116 N 0.528000 -0.003480 0.733070
C117 C 0.347850 0.074800 0.624650
C118 C 0.271950 0.121640 0.566530
C119 C 0.293750 0.190000 0.606930
C120 C 0.382000 0.182540 0.690780
C121 C 0.437190 0.238760 0.762590
H122 H 0.396600 0.283400 0.750800
C123 C 0.456920 0.211830 0.862730
C124 C 0.443380 0.248620 0.939570
C125 C 0.472580 0.200640 1.016850
C126 C 0.507420 0.137730 0.986460
C127 C 0.562190 0.082370 1.043510
H128 H 0.563000 0.077400 1.106800
C129 C 0.616210 0.033400 1.014630
C130 C 0.691400 -0.012690 1.073840
C131 C 0.735400 -0.041430 1.015810
C132 C 0.683010 -0.014280 0.921260
C133 C 0.700490 -0.028900 0.831080
H134 H 0.742800 -0.072600 0.842600
C135 C 0.606540 -0.045050 0.749090
C136 C 0.586330 -0.100900 0.678890
C137 C 0.489180 -0.093790 0.618740
C138 C 0.453770 -0.031560 0.651570
C139 C 0.367440 0.005200 0.603400
H140 H 0.318100 -0.019200 0.552000
C141 C 0.185170 0.100300 0.477960
H142 H 0.150000 0.144500 0.446300
H143 H 0.208200 0.076200 0.432000
C144 C 0.114400 0.049950 0.498700
H145 H 0.092400 0.072800 0.545400
H146 H 0.058400 0.040400 0.438600
H147 H 0.147100 0.004400 0.525300
C148 C 0.238430 0.258600 0.568910
H149 H 0.168200 0.248700 0.548500
H150 H 0.256900 0.294500 0.621900
C151 C 0.256200 0.291390 0.483500
H152 H 0.233800 0.257700 0.428900
H153 H 0.220400 0.336900 0.464400
H154 H 0.325700 0.300500 0.502500
C155 C 0.535230 0.258010 0.754810
H156 H 0.571400 0.212700 0.757700
H157 H 0.574200 0.287500 0.811700
C158 C 0.526400 0.299020 0.663560
H159 H 0.591800 0.304100 0.662100
H160 H 0.486100 0.270400 0.606300
C161 C 0.481500 0.373720 0.656790
H162 H 0.515100 0.399400 0.718600
H163 H 0.412500 0.368300 0.647300
C164 C 0.487500 0.419210 0.574800
H165 H 0.460200 0.392100 0.514100
H166 H 0.450700 0.464000 0.569000
H167 H 0.555600 0.430800 0.588600
C168 C 0.406620 0.324660 0.936230
H169 H 0.438500 0.346600 1.001100
H170 H 0.425900 0.353100 0.890800
C171 C 0.297400 0.330270 0.905500
H172 H 0.278300 0.306800 0.953900
H173 H 0.278400 0.381200 0.900000
H174 H 0.265000 0.306500 0.842900
C175 C 0.471690 0.212520 1.115960
H176 H 0.420900 0.248400 1.110900
H177 H 0.454000 0.166700 1.138800
C178 C 0.568400 0.238700 1.190770
H179 H 0.586000 0.284700 1.169500
H180 H 0.562600 0.245500 1.253000
H181 H 0.618900 0.202800 1.197900
C182 C 0.721490 -0.022730 1.180650
H183 H 0.665200 -0.013000 1.198100
H184 H 0.741500 -0.073500 1.197600
C185 C 0.805200 0.027110 1.239080
H186 H 0.784100 0.077500 1.226400
H187 H 0.825100 0.016800 1.308100
H188 H 0.860300 0.019000 1.220200
C189 C 0.821040 -0.091530 1.046190
H190 H 0.861100 -0.083700 1.115500
H191 H 0.861400 -0.079700 1.009200
C192 C 0.792200 -0.169930 1.030500
H193 H 0.756300 -0.178800 0.961300
H194 H 0.850600 -0.200100 1.054200
H195 H 0.750900 -0.181800 1.065600
C196 C 0.754480 0.035370 0.807010
H197 H 0.814600 0.045900 0.864000
H198 H 0.712700 0.078800 0.793400
C199 C 0.780800 0.019570 0.719700
H200 H 0.825500 -0.022200 0.735600
H201 H 0.720900 0.005400 0.664600
C202 C 0.828100 0.082130 0.687500
H203 H 0.791300 0.127000 0.685300
H204 H 0.824600 0.072400 0.621400
C205 C 0.931500 0.093220 0.753100
H206 H 0.968700 0.049500 0.754200
H207 H 0.958300 0.133900 0.729800
H208 H 0.935400 0.103600 0.818500
C209 C 0.657510 -0.155490 0.670200
H210 H 0.641900 -0.164600 0.600800
H211 H 0.723500 -0.134500 0.698100
C212 C 0.658400 -0.227010 0.719600
H213 H 0.593300 -0.248300 0.692900
H214 H 0.704600 -0.259800 0.708700
H215 H 0.677800 -0.219100 0.789100
C216 C 0.432690 -0.137510 0.530880
H217 H 0.451700 -0.188800 0.543800
H218 H 0.362700 -0.133800 0.518000
C219 C 0.449200 -0.112780 0.440880
H220 H 0.517300 -0.120600 0.450900
H221 H 0.407300 -0.140600 0.384700
H222 H 0.433600 -0.061400 0.429600
Ni223 Ni 0.985260 0.573287 0.689460
N224 N 1.086640 0.614100 0.798340
N225 N 1.004380 0.646020 0.610090
N226 N 0.888490 0.530870 0.580510
N227 N 0.972000 0.496520 0.766930
C228 C 1.152150 0.574800 0.875350
C229 C 1.228050 0.621640 0.933470
C230 C 1.206250 0.690000 0.893070
C231 C 1.118000 0.682540 0.809220
C232 C 1.062810 0.738760 0.737410
H233 H 1.103400 0.783400 0.749200
C234 C 1.043080 0.711830 0.637270
C235 C 1.056620 0.748620 0.560430
C236 C 1.027420 0.700640 0.483150
C237 C 0.992580 0.637730 0.513540
C238 C 0.937810 0.582370 0.456490
H239 H 0.937000 0.577400 0.393200
C240 C 0.883790 0.533400 0.485370
C241 C 0.808600 0.487310 0.426160
C242 C 0.764600 0.458570 0.484190
C243 C 0.816990 0.485720 0.578740
C244 C 0.799510 0.471100 0.668920
H245 H 0.757200 0.427400 0.657400
C246 C 0.893460 0.454950 0.750910
C247 C 0.913670 0.399100 0.821110
C248 C 1.010820 0.406210 0.881260
C249 C 1.046230 0.468440 0.848430
C250 C 1.132560 0.505200 0.896600
H251 H 1.181900 0.480800 0.948000
C252 C 1.314830 0.600300 1.022040
H253 H 1.350000 0.644500 1.053700
H254 H 1.291800 0.576200 1.068000
C255 C 1.385600 0.549950 1.001300
H256 H 1.407600 0.572800 0.954600
H257 H 1.441600 0.540400 1.061400
H258 H 1.352900 0.504400 0.974700
C259 C 1.261570 0.758600 0.931090
H260 H 1.331800 0.748700 0.951500
H261 H 1.243100 0.794500 0.878100
C262 C 1.243800 0.791390 1.016500
H263 H 1.266200 0.757700 1.071100
H264 H 1.279600 0.836900 1.035600
H265 H 1.174300 0.800500 0.997500
C266 C 0.964770 0.758010 0.745190
H267 H 0.928600 0.712700 0.742300
H268 H 0.925800 0.787500 0.688300
C269 C 0.973600 0.799020 0.836440
H270 H 0.908200 0.804100 0.837900
H271 H 1.013900 0.770400 0.893700
C272 C 1.018500 0.873720 0.843210
H273 H 0.984900 0.899400 0.781400
H274 H 1.087500 0.868300 0.852700
C275 C 1.012500 0.919210 0.925200
H276 H 1.039800 0.892100 0.985900
H277 H 1.049300 0.964000 0.931000
H278 H 0.944400 0.930800 0.911400
C279 C 1.093380 0.824660 0.563770
H280 H 1.061500 0.846600 0.498900
H281 H 1.074100 0.853100 0.609200
C282 C 1.202600 0.830270 0.594500
H283 H 1.221700 0.806800 0.546100
H284 H 1.221600 0.881200 0.600000
H285 H 1.235000 0.806500 0.657100
C286 C 1.028310 0.712520 0.384040
H287 H 1.079100 0.748400 0.389100
H288 H 1.046000 0.666700 0.361200
C289 C 0.931600 0.738700 0.309230
H290 H 0.914000 0.784700 0.330500
H291 H 0.937400 0.745500 0.247000
H292 H 0.881100 0.702800 0.302100
C293 C 0.778510 0.477270 0.319350
H294 H 0.834800 0.487000 0.301900
H295 H 0.758500 0.426500 0.302400
C296 C 0.694800 0.527110 0.260920
H297 H 0.715900 0.577500 0.273600
H298 H 0.674900 0.516800 0.191900
H299 H 0.639700 0.519000 0.279800
C300 C 0.678960 0.408470 0.453810
H301 H 0.638900 0.416300 0.384500
H302 H 0.638600 0.420300 0.490800
C303 C 0.707800 0.330070 0.469500
H304 H 0.743700 0.321200 0.538700
H305 H 0.649400 0.299900 0.445800
H306 H 0.749100 0.318200 0.434400
C307 C 0.745520 0.535370 0.692990
H308 H 0.685400 0.545900 0.636000
H309 H 0.787300 0.578800 0.706600
C310 C 0.719200 0.519570 0.780300
H311 H 0.674500 0.477800 0.764400
H312 H 0.779100 0.505400 0.835400
C313 C 0.671900 0.582130 0.812500
H314 H 0.708700 0.627000 0.814700
H315 H 0.675400 0.572400 0.878600
C316 C 0.568500 0.593220 0.746900
H317 H 0.531300 0.549500 0.745800
H318 H 0.541700 0.633900 0.770200
H319 H 0.564600 0.603600 0.681500
C320 C 0.842490 0.344510 0.829800
H321 H 0.858100 0.335400 0.899200
H322 H 0.776500 0.365500 0.801900
C323 C 0.841600 0.272990 0.780400
H324 H 0.906700 0.251700 0.807100
H325 H 0.795400 0.240200 0.791300
H326 H 0.822200 0.280900 0.710900
C327 C 1.067310 0.362490 0.969120
H328 H 1.048300 0.311200 0.956200
H329 H 1.137300 0.366200 0.982000
C330 C 1.050800 0.387220 1.059120
H331 H 0.982700 0.379400 1.049100
H332 H 1.092700 0.359400 1.115300
H333 H 1.066400 0.438600 1.070400
Ni334 Ni 0.485260 0.926713 0.189460
N335 N 0.586640 0.885900 0.298340
N336 N 0.504380 0.853980 0.110090
N337 N 0.388490 0.969130 0.080510
N338 N 0.472000 1.003480 0.266930
C339 C 0.652150 0.925200 0.375350
C340 C 0.728050 0.878360 0.433470
C341 C 0.706250 0.810000 0.393070
C342 C 0.618000 0.817460 0.309220
C343 C 0.562810 0.761240 0.237410
H344 H 0.603400 0.716600 0.249200
C345 C 0.543080 0.788170 0.137270
C346 C 0.556620 0.751380 0.060430
C347 C 0.527420 0.799360 -0.016850
C348 C 0.492580 0.862270 0.013540
C349 C 0.437810 0.917630 -0.043510
H350 H 0.437000 0.922600 -0.106800
C351 C 0.383790 0.966600 -0.014630
C352 C 0.308600 1.012690 -0.073840
C353 C 0.264600 1.041430 -0.015810
C354 C 0.316990 1.014280 0.078740
C355 C 0.299510 1.028900 0.168920
H356 H 0.257200 1.072600 0.157400
C357 C 0.393460 1.045050 0.250910
C358 C 0.413670 1.100900 0.321110
C359 C 0.510820 1.093790 0.381260
C360 C 0.546230 1.031560 0.348430
C361 C 0.632560 0.994800 0.396600
H362 H 0.681900 1.019200 0.448000
C363 C 0.814830 0.899700 0.522040
H364 H 0.850000 0.855500 0.553700
H365 H 0.791800 0.923800 0.568000
C366 C 0.885600 0.950050 0.501300
H367 H 0.907600 0.927200 0.454600
H368 H 0.941600 0.959600 0.561400
H369 H 0.852900 0.995600 0.474700
C370 C 0.761570 0.741400 0.431090
H371 H 0.831800 0.751300 0.451500
H372 H 0.743100 0.705500 0.378100
C373 C 0.743800 0.708610 0.516500
H374 H 0.766200 0.742300 0.571100
H375 H 0.779600 0.663100 0.535600
H376 H 0.674300 0.699500 0.497500
C377 C 0.464770 0.741990 0.245190
H378 H 0.428600 0.787300 0.242300
H379 H 0.425800 0.712500 0.188300
C380 C 0.473600 0.700980 0.336440
H381 H 0.408200 0.695900 0.337900
H382 H 0.513900 0.729600 0.393700
C383 C 0.518500 0.626280 0.343210
H384 H 0.484900 0.600600 0.281400
H385 H 0.587500 0.631700 0.352700
C386 C 0.512500 0.580790 0.425200
H387 H 0.539800 0.607900 0.485900
H388 H 0.549300 0.536000 0.431000
H389 H 0.444400 0.569200 0.411400
C390 C 0.593380 0.675340 0.063770
H391 H 0.561500 0.653400 -0.001100
H392 H 0.574100 0.646900 0.109200
C393 C 0.702600 0.669730 0.094500
H394 H 0.721700 0.693200 0.046100
H395 H 0.721600 0.618800 0.100000
H396 H 0.735000 0.693500 0.157100
C397 C 0.528310 0.787480 -0.115960
H398 H 0.579100 0.751600 -0.110900
H399 H 0.546000 0.833300 -0.138800
C400 C 0.431600 0.761300 -0.190770
H401 H 0.414000 0.715300 -0.169500
H402 H 0.437400 0.754500 -0.253000
H403 H 0.381100 0.797200 -0.197900
C404 C 0.278510 1.022730 -0.180650
H405 H 0.334800 1.013000 -0.198100
H406 H 0.258500 1.073500 -0.197600
C407 C 0.194800 0.972890 -0.239080
H408 H 0.215900 0.922500 -0.226400
H409 H 0.174900 0.983200 -0.308100
H410 H 0.139700 0.981000 -0.220200
C411 C 0.178960 1.091530 -0.046190
H412 H 0.138900 1.083700 -0.115500
H413 H 0.138600 1.079700 -0.009200
C414 C 0.207800 1.169930 -0.030500
H415 H 0.243700 1.178800 0.038700
H416 H 0.149400 1.200100 -0.054200
H417 H 0.249100 1.181800 -0.065600
C418 C 0.245520 0.964630 0.192990
H419 H 0.185400 0.954100 0.136000
H420 H 0.287300 0.921200 0.206600
C421 C 0.219200 0.980430 0.280300
H422 H 0.174500 1.022200 0.264400
H423 H 0.279100 0.994600 0.335400
C424 C 0.171900 0.917870 0.312500
H425 H 0.208700 0.873000 0.314700
H426 H 0.175400 0.927600 0.378600
C427 C 0.068500 0.906780 0.246900
H428 H 0.031300 0.950500 0.245800
H429 H 0.041700 0.866100 0.270200
H430 H 0.064600 0.896400 0.181500
C431 C 0.342490 1.155490 0.329800
H432 H 0.358100 1.164600 0.399200
H433 H 0.276500 1.134500 0.301900
C434 C 0.341600 1.227010 0.280400
H435 H 0.406700 1.248300 0.307100
H436 H 0.295400 1.259800 0.291300
H437 H 0.322200 1.219100 0.210900
C438 C 0.567310 1.137510 0.469120
H439 H 0.548300 1.188800 0.456200
H440 H 0.637300 1.133800 0.482000
C441 C 0.550800 1.112780 0.559120
H442 H 0.482700 1.120600 0.549100
H443 H 0.592700 1.140600 0.615300
H444 H 0.566400 1.061400 0.570400

#END
