./ABIPOQ_from_xyz.cif_generated_by_CrystalShift
_symmetry_cell_setting triclinic
_symmetry_space_group_name_H-M 'P 1'
loop_
_symmetry_equiv_pos_site_id
_symmetry_equiv_pos_as_xyz
1 x,y,z
_cell_length_a 8.114000
_cell_length_b 10.473000
_cell_length_c 26.740000
_cell_angle_alpha 90.000000
_cell_angle_beta 90.000000
_cell_angle_gamma 90.000000
_cell_volume 2272.309634
loop_
_atom_site_label
_atom_site_type_symbol
_atom_site_fract_x
_atom_site_fract_y
_atom_site_fract_z
O1 O 0.300200 0.920400 0.800010
C2 C 0.432600 0.981700 0.781590
O3 O 0.420700 1.093900 0.770190
C4 C 0.588800 0.908200 0.776680
H5 H 0.586300 0.859700 0.745800
H6 H 0.680600 0.967300 0.774900
N7 N 0.614600 0.820200 0.818920
C8 C 0.771600 0.780300 0.828760
O9 O 0.889400 0.821500 0.803800
C10 C 0.797100 0.690600 0.870700
H11 H 0.741500 0.722000 0.899900
H12 H 0.912900 0.683200 0.877500
H13 H 0.753600 0.608400 0.861900
C14 C 0.469600 0.764700 0.843870
H15 H 0.486800 0.672500 0.847300
C16 C 0.323600 0.786700 0.809380
H17 H 0.342100 0.742700 0.778000
H18 H 0.224900 0.751600 0.824500
C19 C 0.439500 0.820700 0.895650
C20 C 0.337600 0.751700 0.927940
H21 H 0.292500 0.674500 0.917600
C22 C 0.303500 0.798300 0.975420
H23 H 0.236900 0.751400 0.997000
C24 C 0.367100 0.912700 0.990720
H25 H 0.342800 0.943200 1.022500
C26 C 0.466900 0.983000 0.959460
H27 H 0.509500 1.061100 0.969700
C28 C 0.503100 0.934300 0.911680
H29 H 0.571800 0.980600 0.890500
O30 O 0.699800 0.420400 0.699990
C31 C 0.567400 0.481700 0.718410
O32 O 0.579300 0.593900 0.729810
C33 C 0.411200 0.408200 0.723320
H34 H 0.413700 0.359700 0.754200
H35 H 0.319400 0.467300 0.725100
N36 N 0.385400 0.320200 0.681080
C37 C 0.228400 0.280300 0.671240
O38 O 0.110600 0.321500 0.696200
C39 C 0.202900 0.190600 0.629300
H40 H 0.258500 0.222000 0.600100
H41 H 0.087100 0.183200 0.622500
H42 H 0.246400 0.108400 0.638100
C43 C 0.530400 0.264700 0.656130
H44 H 0.513200 0.172500 0.652700
C45 C 0.676400 0.286700 0.690620
H46 H 0.657900 0.242700 0.722000
H47 H 0.775100 0.251600 0.675500
C48 C 0.560500 0.320700 0.604350
C49 C 0.662400 0.251700 0.572060
H50 H 0.707500 0.174500 0.582400
C51 C 0.696500 0.298300 0.524580
H52 H 0.763100 0.251400 0.503000
C53 C 0.632900 0.412700 0.509280
H54 H 0.657200 0.443200 0.477500
C55 C 0.533100 0.483000 0.540540
H56 H 0.490500 0.561100 0.530300
C57 C 0.496900 0.434300 0.588320
H58 H 0.428200 0.480600 0.609500
O59 O -0.199800 0.579600 0.199990
C60 C -0.067400 0.518300 0.218410
O61 O -0.079300 0.406100 0.229810
C62 C 0.088800 0.591800 0.223320
H63 H 0.086300 0.640300 0.254200
H64 H 0.180600 0.532700 0.225100
N65 N 0.114600 0.679800 0.181080
C66 C 0.271600 0.719700 0.171240
O67 O 0.389400 0.678500 0.196200
C68 C 0.297100 0.809400 0.129300
H69 H 0.241500 0.778000 0.100100
H70 H 0.412900 0.816800 0.122500
H71 H 0.253600 0.891600 0.138100
C72 C -0.030400 0.735300 0.156130
H73 H -0.013200 0.827500 0.152700
C74 C -0.176400 0.713300 0.190620
H75 H -0.157900 0.757300 0.222000
H76 H -0.275100 0.748400 0.175500
C77 C -0.060500 0.679300 0.104350
C78 C -0.162400 0.748300 0.072060
H79 H -0.207500 0.825500 0.082400
C80 C -0.196500 0.701700 0.024580
H81 H -0.263100 0.748600 0.003000
C82 C -0.132900 0.587300 0.009280
H83 H -0.157200 0.556800 -0.022500
C84 C -0.033100 0.517000 0.040540
H85 H 0.009500 0.438900 0.030300
C86 C 0.003100 0.565700 0.088320
H87 H 0.071800 0.519400 0.109500
O88 O 1.199800 0.079600 0.300010
C89 C 1.067400 0.018300 0.281590
O90 O 1.079300 -0.093900 0.270190
C91 C 0.911200 0.091800 0.276680
H92 H 0.913700 0.140300 0.245800
H93 H 0.819400 0.032700 0.274900
N94 N 0.885400 0.179800 0.318920
C95 C 0.728400 0.219700 0.328760
O96 O 0.610600 0.178500 0.303800
C97 C 0.702900 0.309400 0.370700
H98 H 0.758500 0.278000 0.399900
H99 H 0.587100 0.316800 0.377500
H100 H 0.746400 0.391600 0.361900
C101 C 1.030400 0.235300 0.343870
H102 H 1.013200 0.327500 0.347300
C103 C 1.176400 0.213300 0.309380
H104 H 1.157900 0.257300 0.278000
H105 H 1.275100 0.248400 0.324500
C106 C 1.060500 0.179300 0.395650
C107 C 1.162400 0.248300 0.427940
H108 H 1.207500 0.325500 0.417600
C109 C 1.196500 0.201700 0.475420
H110 H 1.263100 0.248600 0.497000
C111 C 1.132900 0.087300 0.490720
H112 H 1.157200 0.056800 0.522500
C113 C 1.033100 0.017000 0.459460
H114 H 0.990500 -0.061100 0.469700
C115 C 0.996900 0.065700 0.411680
H116 H 0.928200 0.019400 0.390500
C117 C 0.000400 0.138900 0.803050
H118 H 0.054200 0.158600 0.771600
H119 H -0.013300 0.047100 0.805100
C120 C -0.157900 0.325500 0.810920
C121 C 0.006900 0.393200 0.812970
H122 H 0.044200 0.409700 0.779100
H123 H -0.007300 0.475000 0.829500
N124 N 0.133700 0.320100 0.839450
C125 C 0.106200 0.185000 0.846100
H126 H 0.212900 0.141400 0.844200
O127 O -0.158200 0.199900 0.804750
O128 O -0.284900 0.385900 0.813100
C129 C 0.025100 0.150200 0.895900
C130 C -0.052900 0.241000 0.925730
H131 H -0.054000 0.326400 0.916300
C132 C -0.129500 0.202300 0.970010
H133 H -0.183400 0.262400 0.989700
C134 C -0.126100 0.077600 0.984780
H135 H -0.177200 0.052800 1.014400
C136 C -0.046900 -0.010700 0.955600
H137 H -0.043700 -0.095600 0.965700
C138 C 0.028300 0.024900 0.911620
H139 H 0.081700 -0.036200 0.892300
O140 O 0.279900 0.499200 0.850520
C141 C 0.398200 0.307200 0.882610
H142 H 0.348400 0.253700 0.907500
H143 H 0.475500 0.363900 0.898200
H144 H 0.454500 0.255000 0.858500
C145 C 0.267900 0.383200 0.856960
C146 C 0.999600 0.638900 0.696950
H147 H 0.945800 0.658600 0.728400
H148 H 1.013300 0.547100 0.694900
C149 C 1.157900 0.825500 0.689080
C150 C 0.993100 0.893200 0.687030
H151 H 0.955800 0.909700 0.720900
H152 H 1.007300 0.975000 0.670500
N153 N 0.866300 0.820100 0.660550
C154 C 0.893800 0.685000 0.653900
H155 H 0.787100 0.641400 0.655800
O156 O 1.158200 0.699900 0.695250
O157 O 1.284900 0.885900 0.686900
C158 C 0.974900 0.650200 0.604100
C159 C 1.052900 0.741000 0.574270
H160 H 1.054000 0.826400 0.583700
C161 C 1.129500 0.702300 0.529990
H162 H 1.183400 0.762400 0.510300
C163 C 1.126100 0.577600 0.515220
H164 H 1.177200 0.552800 0.485600
C165 C 1.046900 0.489300 0.544400
H166 H 1.043700 0.404400 0.534300
C167 C 0.971700 0.524900 0.588380
H168 H 0.918300 0.463800 0.607700
O169 O 0.720100 0.999200 0.649480
C170 C 0.601800 0.807200 0.617390
H171 H 0.651600 0.753700 0.592500
H172 H 0.524500 0.863900 0.601800
H173 H 0.545500 0.755000 0.641500
C174 C 0.732100 0.883200 0.643040
C175 C 0.500400 0.361100 0.196950
H176 H 0.554200 0.341400 0.228400
H177 H 0.486700 0.452900 0.194900
C178 C 0.342100 0.174500 0.189080
C179 C 0.506900 0.106800 0.187030
H180 H 0.544200 0.090300 0.220900
H181 H 0.492700 0.025000 0.170500
N182 N 0.633700 0.179900 0.160550
C183 C 0.606200 0.315000 0.153900
H184 H 0.712900 0.358600 0.155800
O185 O 0.341800 0.300100 0.195250
O186 O 0.215100 0.114100 0.186900
C187 C 0.525100 0.349800 0.104100
C188 C 0.447100 0.259000 0.074270
H189 H 0.446000 0.173600 0.083700
C190 C 0.370500 0.297700 0.029990
H191 H 0.316600 0.237600 0.010300
C192 C 0.373900 0.422400 0.015220
H193 H 0.322800 0.447200 -0.014400
C194 C 0.453100 0.510700 0.044400
H195 H 0.456300 0.595600 0.034300
C196 C 0.528300 0.475100 0.088380
H197 H 0.581700 0.536200 0.107700
O198 O 0.779900 0.000800 0.149480
C199 C 0.898200 0.192800 0.117390
H200 H 0.848400 0.246300 0.092500
H201 H 0.975500 0.136100 0.101800
H202 H 0.954500 0.245000 0.141500
C203 C 0.767900 0.116800 0.143040
C204 C 0.499600 0.861100 0.303050
H205 H 0.445800 0.841400 0.271600
H206 H 0.513300 0.952900 0.305100
C207 C 0.657900 0.674500 0.310920
C208 C 0.493100 0.606800 0.312970
H209 H 0.455800 0.590300 0.279100
H210 H 0.507300 0.525000 0.329500
N211 N 0.366300 0.679900 0.339450
C212 C 0.393800 0.815000 0.346100
H213 H 0.287100 0.858600 0.344200
O214 O 0.658200 0.800100 0.304750
O215 O 0.784900 0.614100 0.313100
C216 C 0.474900 0.849800 0.395900
C217 C 0.552900 0.759000 0.425730
H218 H 0.554000 0.673600 0.416300
C219 C 0.629500 0.797700 0.470010
H220 H 0.683400 0.737600 0.489700
C221 C 0.626100 0.922400 0.484780
H222 H 0.677200 0.947200 0.514400
C223 C 0.546900 1.010700 0.455600
H224 H 0.543700 1.095600 0.465700
C225 C 0.471700 0.975100 0.411620
H226 H 0.418300 1.036200 0.392300
O227 O 0.220100 0.500800 0.350520
C228 C 0.101800 0.692800 0.382610
H229 H 0.151600 0.746300 0.407500
H230 H 0.024500 0.636100 0.398200
H231 H 0.045500 0.745000 0.358500
C232 C 0.232100 0.616800 0.356960

#END
