
#######################################################################
#
#                 Cambridge Crystallographic Data Centre
#                                CCDC 
#
#######################################################################
#
# If this CIF has been generated from an entry in the Cambridge 
# Structural Database, then it will include bibliographic, chemical, 
# crystal, experimental, refinement or atomic coordinate data resulting 
# from the CCDC's data processing and validation procedures.
#
#######################################################################

data_ABIPIN
_symmetry_cell_setting           monoclinic
_symmetry_space_group_name_H-M   'P 21'
_symmetry_Int_Tables_number      4
_space_group_name_Hall           'P 2yb'
loop_
_symmetry_equiv_pos_site_id
_symmetry_equiv_pos_as_xyz
1 x,y,z
2 -x,1/2+y,-z
_cell_length_a                   5.6324(3)
_cell_length_b                   26.1594(16)
_cell_length_c                   9.3139(5)
_cell_angle_alpha                90
_cell_angle_beta                 105.6796(19)
_cell_angle_gamma                90
_cell_volume                     1321.25
loop_
_atom_site_label
_atom_site_type_symbol
_atom_site_fract_x
_atom_site_fract_y
_atom_site_fract_z
C1 C 0.1962(5) 0.32545(11) 0.4458(3)
H1 H 0.0699 0.3485 0.4533
C2 C 0.2341(6) 0.28076(11) 0.5304(3)
H2 H 0.1318 0.2732 0.5937
C3 C 0.4197(6) 0.24738(11) 0.5224(3)
H3 H 0.4478 0.2174 0.5822
C4 C 0.5659(6) 0.25756(11) 0.4270(3)
H4 H 0.6922 0.2343 0.4204
C5 C 0.5265(5) 0.30190(11) 0.3412(3)
H5 H 0.6259 0.3087 0.2756
C6 C 0.3421(5) 0.33654(10) 0.3505(3)
C7 C 0.3024(5) 0.38639(10) 0.2638(3)
H6 H 0.1846 0.4078 0.301
C8 C 0.2045(5) 0.38164(10) 0.0958(3)
C9 C -0.0277(5) 0.40176(11) 0.0255(3)
H7 H -0.1209 0.418 0.0836
C10 C -0.1234(6) 0.39833(12) -0.1272(3)
H8 H -0.2822 0.4119 -0.1732
C11 C 0.0111(5) 0.37518(11) -0.2135(3)
H9 H -0.055 0.3726 -0.3185
C12 C 0.2429(6) 0.35576(12) -0.1454(3)
H10 H 0.3368 0.3403 -0.2045
C13 C 0.3402(5) 0.35861(11) 0.0089(3)
H11 H 0.4987 0.3449 0.0545
C14 C 0.5052(5) 0.48040(10) 0.2280(3)
H12 H 0.3887 0.476 0.1281
H13 H 0.4225 0.5002 0.2911
C15 C 0.7381(5) 0.50761(10) 0.2161(3)
N1 N 0.7132(5) 0.53908(11) 0.1028(3)
H14 H 0.8426 0.5553 0.0897
H15 H 0.5671 0.5439 0.0401
O1 O 0.6770(3) 0.42638(8) 0.47771(19)
O2 O 0.9379(4) 0.49936(10) 0.3074(3)
S1 S 0.60469(11) 0.41878(2) 0.31185(6)
C1 C 0.8038(5) 0.82545(11) 0.5542(3)
H1 H 0.9301 0.8485 0.5467
C2 C 0.7659(6) 0.78076(11) 0.4696(3)
H2 H 0.8682 0.7732 0.4063
C3 C 0.5803(6) 0.74738(11) 0.4776(3)
H3 H 0.5522 0.7174 0.4178
C4 C 0.4341(6) 0.75756(11) 0.5730(3)
H4 H 0.3078 0.7343 0.5796
C5 C 0.4735(5) 0.80190(11) 0.6588(3)
H5 H 0.3741 0.8087 0.7244
C6 C 0.6579(5) 0.83654(10) 0.6495(3)
C7 C 0.6976(5) 0.88639(10) 0.7362(3)
H6 H 0.8154 0.9078 0.699
C8 C 0.7955(5) 0.88164(10) 0.9042(3)
C9 C 1.0277(5) 0.90176(11) 0.9745(3)
H7 H 1.1209 0.918 0.9164
C10 C 1.1234(6) 0.89833(12) 1.1272(3)
H8 H 1.2822 0.9119 1.1732
C11 C 0.9889(5) 0.87518(11) 1.2135(3)
H9 H 1.055 0.8726 1.3185
C12 C 0.7571(6) 0.85576(12) 1.1454(3)
H10 H 0.6632 0.8403 1.2045
C13 C 0.6598(5) 0.85861(11) 0.9911(3)
H11 H 0.5013 0.8449 0.9455
C14 C 0.4948(5) 0.98040(10) 0.7720(3)
H12 H 0.6113 0.976 0.8719
H13 H 0.5775 1.0002 0.7089
C15 C 0.2619(5) 1.00761(10) 0.7839(3)
N1 N 0.2868(5) 1.03908(11) 0.8972(3)
H14 H 0.1574 1.0553 0.9103
H15 H 0.4329 1.0439 0.9599
O1 O 0.3230(3) 0.92638(8) 0.52229(19)
O2 O 0.0621(4) 0.99936(10) 0.6926(3)
S1 S 0.39531(11) 0.91878(2) 0.68815(6)
C16 C -0.0008(5) 0.64311(11) 0.5076(3)
H16 H -0.1268 0.6548 0.5498
C17 C -0.0304(6) 0.64787(12) 0.3546(3)
H17 H -0.1766 0.6628 0.2933
C18 C 0.1517(6) 0.63101(11) 0.2912(3)
H18 H 0.1324 0.635 0.1873
C19 C 0.3627(6) 0.60826(12) 0.3812(3)
H19 H 0.4872 0.596 0.3386
C20 C 0.3917(5) 0.60342(11) 0.5341(3)
H20 H 0.536 0.5877 0.5949
C21 C 0.2126(5) 0.62135(10) 0.5985(3)
C22 C 0.2573(5) 0.61602(10) 0.7676(3)
H21 H 0.4219 0.5994 0.8076
C23 C 0.2574(5) 0.66495(10) 0.8552(3)
C24 C 0.4735(5) 0.67976(11) 0.9591(3)
H22 H 0.6188 0.6598 0.972
C25 C 0.4782(6) 0.72371(11) 1.0446(3)
H23 H 0.6271 0.7336 1.115
C26 C 0.2689(6) 0.75300(11) 1.0281(3)
H24 H 0.2735 0.7829 1.0868
C27 C 0.0513(6) 0.73854(11) 0.9250(3)
H25 H -0.0937 0.7585 0.9131
C28 C 0.0458(6) 0.69482(11) 0.8392(3)
H26 H -0.1035 0.6851 0.7689
C29 C 0.0319(5) 0.51872(10) 0.7019(3)
H27 H -0.0634 0.4914 0.7344
H28 H -0.0561 0.5273 0.5975
C30 C 0.2829(5) 0.49681(10) 0.7024(3)
N2 N 0.2783(5) 0.46863(10) 0.5839(3)
H29 H 0.4148 0.4544 0.5744
H30 H 0.1389 0.4641 0.5144
O3 O 0.1337(4) 0.56015(8) 0.9751(2)
O4 O 0.4705(4) 0.50464(9) 0.8033(2)
S2 S 0.02535(12) 0.57426(2) 0.81467(7)
C16 C 1.0008(5) 0.14311(11) 0.4924(3)
H16 H 1.1268 0.1548 0.4502
C17 C 1.0304(6) 0.14787(12) 0.6454(3)
H17 H 1.1766 0.1628 0.7067
C18 C 0.8483(6) 0.13101(11) 0.7088(3)
H18 H 0.8676 0.135 0.8127
C19 C 0.6373(6) 0.10826(12) 0.6188(3)
H19 H 0.5128 0.096 0.6614
C20 C 0.6083(5) 0.10342(11) 0.4659(3)
H20 H 0.464 0.0877 0.4051
C21 C 0.7874(5) 0.12135(10) 0.4015(3)
C22 C 0.7427(5) 0.11602(10) 0.2324(3)
H21 H 0.5781 0.0994 0.1924
C23 C 0.7426(5) 0.16495(10) 0.1448(3)
C24 C 0.5265(5) 0.17976(11) 0.0409(3)
H22 H 0.3812 0.1598 0.028
C25 C 0.5218(6) 0.22371(11) -0.0446(3)
H23 H 0.3729 0.2336 -0.115
C26 C 0.7311(6) 0.25300(11) -0.0281(3)
H24 H 0.7265 0.2829 -0.0868
C27 C 0.9487(6) 0.23854(11) 0.0750(3)
H25 H 1.0937 0.2585 0.0869
C28 C 0.9542(6) 0.19482(11) 0.1608(3)
H26 H 1.1035 0.1851 0.2311
C29 C 0.9681(5) 0.01872(10) 0.2981(3)
H27 H 1.0634 -0.0086 0.2656
H28 H 1.0561 0.0273 0.4025
C30 C 0.7171(5) -0.00319(10) 0.2976(3)
N2 N 0.7217(5) -0.03137(10) 0.4161(3)
H29 H 0.5852 -0.0456 0.4256
H30 H 0.8611 -0.0359 0.4856
O3 O 0.8663(4) 0.06015(8) 0.0249(2)
O4 O 0.5295(4) 0.00464(9) 0.1967(2)
S2 S 0.97465(12) 0.07426(2) 0.18533(7)

#END
