./ABIPEG_from_xyz.cif_generated_by_CrystalShift
_symmetry_cell_setting triclinic
_symmetry_space_group_name_H-M 'P 1'
loop_
_symmetry_equiv_pos_site_id
_symmetry_equiv_pos_as_xyz
1 x,y,z
_cell_length_a 8.912000
_cell_length_b 8.905000
_cell_length_c 46.308000
_cell_angle_alpha 90.000000
_cell_angle_beta 90.000000
_cell_angle_gamma 90.000000
_cell_volume 3675.065859
loop_
_atom_site_label
_atom_site_type_symbol
_atom_site_fract_x
_atom_site_fract_y
_atom_site_fract_z
S1 S 1.048300 0.253000 0.389980
N2 N 1.005300 0.299400 0.359000
O3 O 1.279600 -0.084100 0.458900
O4 O 0.855100 0.287700 0.306400
O5 O 1.149300 -0.335100 0.437100
O6 O 0.662800 0.531100 0.290600
O7 O 1.037700 0.104200 0.443400
O8 O 0.909200 -0.215000 0.401300
O9 O 0.534200 0.160900 0.348200
O10 O 0.417000 0.397700 0.313200
O11 O 1.361500 -0.265400 0.489500
O12 O 0.483400 0.614600 0.260700
O13 O 0.815100 0.390900 0.232300
O14 O 1.139900 0.065500 0.517100
O15 O 0.266300 0.306200 0.279000
N16 N 0.842300 0.092600 0.375100
C17 C 1.143600 -0.466600 0.452000
O18 O 1.055400 -0.486400 0.470400
C19 C 0.540200 0.299400 0.304700
H20 H 0.499700 0.205500 0.297000
C21 C 0.621800 0.267800 0.333200
H22 H 0.631400 0.360100 0.344500
C23 C 0.775300 0.202000 0.326800
H24 H 0.763000 0.099600 0.319500
O25 O 1.222400 0.277800 0.536400
C26 C 0.874900 0.197700 0.354300
C27 C 0.777700 0.297200 0.278800
H28 H 0.757500 0.194900 0.272000
C29 C 0.939400 0.115400 0.396500
C30 C 0.634300 0.375400 0.282200
H31 H 0.580500 0.374200 0.263700
C32 C 1.022200 -0.132200 0.418000
H33 H 1.114900 -0.121400 0.406800
C34 C 1.125900 -0.118500 0.467300
H35 H 1.125500 -0.170100 0.486000
O36 O 1.025500 0.474600 0.213500
C37 C 1.052100 -0.214300 0.445200
H38 H 0.958000 -0.254700 0.453000
C39 C 0.949300 0.026800 0.423800
H40 H 0.848500 0.013400 0.431800
C41 C 0.577600 0.642100 0.278200
C42 C 1.043600 0.033200 0.470000
H43 H 0.940900 0.014700 0.476700
O44 O 0.502400 0.317000 0.384400
O45 O 1.054000 -0.238000 0.363500
C46 C 1.118600 0.143100 0.490500
H47 H 1.214300 0.175800 0.482700
H48 H 1.055600 0.230700 0.493400
C49 C 0.889800 0.368500 0.258700
H50 H 0.924300 0.463500 0.266500
H51 H 0.975700 0.303100 0.256100
C52 C 0.899100 0.445400 0.211100
C53 C 1.390800 -0.167100 0.472600
C54 C 0.803000 0.476400 0.184700
H55 H 0.702400 0.441500 0.188200
H56 H 0.843800 0.424900 0.168300
H57 H 0.801000 0.582400 0.181000
C58 C 1.203000 0.146000 0.538100
C59 C 0.187500 0.519500 0.306700
H60 H 0.230800 0.569500 0.323000
H61 H 0.091500 0.478900 0.311900
H62 H 0.175200 0.589900 0.291200
C63 C 0.811000 -0.330000 0.361400
H64 H 0.732300 -0.342900 0.375400
H65 H 0.837800 -0.426300 0.353600
H66 H 0.776300 -0.266000 0.346100
C67 C 1.268700 -0.563200 0.444600
H68 H 1.330400 -0.514300 0.430400
H69 H 1.231500 -0.656000 0.436900
H70 H 1.327100 -0.583200 0.461600
C71 C 1.227200 0.055000 0.565200
H72 H 1.199700 -0.047800 0.561600
H73 H 1.166500 0.094300 0.580500
H74 H 1.331000 0.059500 0.570600
C75 C 0.625000 0.789900 0.288300
H76 H 0.706900 0.778900 0.301500
H77 H 0.542500 0.838600 0.297800
H78 H 0.656400 0.849600 0.272100
C79 C 1.540800 -0.122000 0.461900
H80 H 1.529700 -0.042500 0.447900
H81 H 1.589200 -0.206100 0.453000
H82 H 1.600600 -0.086500 0.477700
C83 C 0.416000 0.062000 0.389300
H84 H 0.387600 0.093400 0.408400
H85 H 0.485700 -0.020200 0.390700
H86 H 0.328600 0.029800 0.378900
C87 C 0.489000 0.191000 0.373600
C88 C 0.289400 0.394300 0.297100
C89 C 0.948000 -0.259000 0.375900
S90 S 0.451700 0.747000 0.889980
N91 N 0.494700 0.700600 0.859000
O92 O 0.220400 1.084100 0.958900
O93 O 0.644900 0.712300 0.806400
O94 O 0.350700 1.335100 0.937100
O95 O 0.837200 0.468900 0.790600
O96 O 0.462300 0.895800 0.943400
O97 O 0.590800 1.215000 0.901300
O98 O 0.965800 0.839100 0.848200
O99 O 1.083000 0.602300 0.813200
O100 O 0.138500 1.265400 0.989500
O101 O 1.016600 0.385400 0.760700
O102 O 0.684900 0.609100 0.732300
O103 O 0.360100 0.934500 1.017100
O104 O 1.233700 0.693800 0.779000
N105 N 0.657700 0.907400 0.875100
C106 C 0.356400 1.466600 0.952000
O107 O 0.444600 1.486400 0.970400
C108 C 0.959800 0.700600 0.804700
H109 H 1.000300 0.794500 0.797000
C110 C 0.878200 0.732200 0.833200
H111 H 0.868600 0.639900 0.844500
C112 C 0.724700 0.798000 0.826800
H113 H 0.737000 0.900400 0.819500
O114 O 0.277600 0.722200 1.036400
C115 C 0.625100 0.802300 0.854300
C116 C 0.722300 0.702800 0.778800
H117 H 0.742500 0.805100 0.772000
C118 C 0.560600 0.884600 0.896500
C119 C 0.865700 0.624600 0.782200
H120 H 0.919500 0.625800 0.763700
C121 C 0.477800 1.132200 0.918000
H122 H 0.385100 1.121400 0.906800
C123 C 0.374100 1.118500 0.967300
H124 H 0.374500 1.170100 0.986000
O125 O 0.474500 0.525400 0.713500
C126 C 0.447900 1.214300 0.945200
H127 H 0.542000 1.254700 0.953000
C128 C 0.550700 0.973200 0.923800
H129 H 0.651500 0.986600 0.931800
C130 C 0.922400 0.357900 0.778200
C131 C 0.456400 0.966800 0.970000
H132 H 0.559100 0.985300 0.976700
O133 O 0.997600 0.683000 0.884400
O134 O 0.446000 1.238000 0.863500
C135 C 0.381400 0.856900 0.990500
H136 H 0.285700 0.824200 0.982700
H137 H 0.444400 0.769300 0.993400
C138 C 0.610200 0.631500 0.758700
H139 H 0.575700 0.536500 0.766500
H140 H 0.524300 0.696900 0.756100
C141 C 0.600900 0.554600 0.711100
C142 C 0.109200 1.167100 0.972600
C143 C 0.697000 0.523600 0.684700
H144 H 0.797600 0.558500 0.688200
H145 H 0.656200 0.575100 0.668300
H146 H 0.699000 0.417600 0.681000
C147 C 0.297000 0.854000 1.038100
C148 C 1.312500 0.480500 0.806700
H149 H 1.269200 0.430500 0.823000
H150 H 1.408500 0.521100 0.811900
H151 H 1.324800 0.410100 0.791200
C152 C 0.689000 1.330000 0.861400
H153 H 0.767700 1.342900 0.875400
H154 H 0.662200 1.426300 0.853600
H155 H 0.723700 1.266000 0.846100
C156 C 0.231300 1.563200 0.944600
H157 H 0.169600 1.514300 0.930400
H158 H 0.268500 1.656000 0.936900
H159 H 0.172900 1.583200 0.961600
C160 C 0.272800 0.945000 1.065200
H161 H 0.300300 1.047800 1.061600
H162 H 0.333500 0.905700 1.080500
H163 H 0.169000 0.940500 1.070600
C164 C 0.875000 0.210100 0.788300
H165 H 0.793100 0.221100 0.801500
H166 H 0.957500 0.161400 0.797800
H167 H 0.843600 0.150400 0.772100
C168 C -0.040800 1.122000 0.961900
H169 H -0.029700 1.042500 0.947900
H170 H -0.089200 1.206100 0.953000
H171 H -0.100600 1.086500 0.977700
C172 C 1.084000 0.938000 0.889300
H173 H 1.112400 0.906600 0.908400
H174 H 1.014300 1.020200 0.890700
H175 H 1.171400 0.970200 0.878900
C176 C 1.011000 0.809000 0.873600
C177 C 1.210600 0.605700 0.797100
C178 C 0.552000 1.259000 0.875900
S179 S 0.548300 0.247000 0.610020
N180 N 0.505300 0.200600 0.641000
O181 O 0.779600 0.584100 0.541100
O182 O 0.355100 0.212300 0.693600
O183 O 0.649300 0.835100 0.562900
O184 O 0.162800 -0.031100 0.709400
O185 O 0.537700 0.395800 0.556600
O186 O 0.409200 0.715000 0.598700
O187 O 0.034200 0.339100 0.651800
O188 O -0.083000 0.102300 0.686800
O189 O 0.861500 0.765400 0.510500
O190 O -0.016600 -0.114600 0.739300
O191 O 0.315100 0.109100 0.767700
O192 O 0.639900 0.434500 0.482900
O193 O -0.233700 0.193800 0.721000
N194 N 0.342300 0.407400 0.624900
C195 C 0.643600 0.966600 0.548000
O196 O 0.555400 0.986400 0.529600
C197 C 0.040200 0.200600 0.695300
H198 H -0.000300 0.294500 0.703000
C199 C 0.121800 0.232200 0.666800
H200 H 0.131400 0.139900 0.655500
C201 C 0.275300 0.298000 0.673200
H202 H 0.263000 0.400400 0.680500
O203 O 0.722400 0.222200 0.463600
C204 C 0.374900 0.302300 0.645700
C205 C 0.277700 0.202800 0.721200
H206 H 0.257500 0.305100 0.728000
C207 C 0.439400 0.384600 0.603500
C208 C 0.134300 0.124600 0.717800
H209 H 0.080500 0.125800 0.736300
C210 C 0.522200 0.632200 0.582000
H211 H 0.614900 0.621400 0.593200
C212 C 0.625900 0.618500 0.532700
H213 H 0.625500 0.670100 0.514000
O214 O 0.525500 0.025400 0.786500
C215 C 0.552100 0.714300 0.554800
H216 H 0.458000 0.754700 0.547000
C217 C 0.449300 0.473200 0.576200
H218 H 0.348500 0.486600 0.568200
C219 C 0.077600 -0.142100 0.721800
C220 C 0.543600 0.466800 0.530000
H221 H 0.440900 0.485300 0.523300
O222 O 0.002400 0.183000 0.615600
O223 O 0.554000 0.738000 0.636500
C224 C 0.618600 0.356900 0.509500
H225 H 0.714300 0.324200 0.517300
H226 H 0.555600 0.269300 0.506600
C227 C 0.389800 0.131500 0.741300
H228 H 0.424300 0.036500 0.733500
H229 H 0.475700 0.196900 0.743900
C230 C 0.399100 0.054600 0.788900
C231 C 0.890800 0.667100 0.527400
C232 C 0.303000 0.023600 0.815300
H233 H 0.202400 0.058500 0.811800
H234 H 0.343800 0.075100 0.831700
H235 H 0.301000 -0.082400 0.819000
C236 C 0.703000 0.354000 0.461900
C237 C -0.312500 -0.019500 0.693300
H238 H -0.269200 -0.069500 0.677000
H239 H -0.408500 0.021100 0.688100
H240 H -0.324800 -0.089900 0.708800
C241 C 0.311000 0.830000 0.638600
H242 H 0.232300 0.842900 0.624600
H243 H 0.337800 0.926300 0.646400
H244 H 0.276300 0.766000 0.653900
C245 C 0.768700 1.063200 0.555400
H246 H 0.830400 1.014300 0.569600
H247 H 0.731500 1.156000 0.563100
H248 H 0.827100 1.083200 0.538400
C249 C 0.727200 0.445000 0.434800
H250 H 0.699700 0.547800 0.438400
H251 H 0.666500 0.405700 0.419500
H252 H 0.831000 0.440500 0.429400
C253 C 0.125000 -0.289900 0.711700
H254 H 0.206900 -0.278900 0.698500
H255 H 0.042500 -0.338600 0.702200
H256 H 0.156400 -0.349600 0.727900
C257 C 1.040800 0.622000 0.538100
H258 H 1.029700 0.542500 0.552100
H259 H 1.089200 0.706100 0.547000
H260 H 1.100600 0.586500 0.522300
C261 C -0.084000 0.438000 0.610700
H262 H -0.112400 0.406600 0.591600
H263 H -0.014300 0.520200 0.609300
H264 H -0.171400 0.470200 0.621100
C265 C -0.011000 0.309000 0.626400
C266 C -0.210600 0.105700 0.702900
C267 C 0.448000 0.759000 0.624100
S268 S -0.048300 0.753000 0.110020
N269 N -0.005300 0.799400 0.141000
O270 O -0.279600 0.415900 0.041100
O271 O 0.144900 0.787700 0.193600
O272 O -0.149300 0.164900 0.062900
O273 O 0.337200 1.031100 0.209400
O274 O -0.037700 0.604200 0.056600
O275 O 0.090800 0.285000 0.098700
O276 O 0.465800 0.660900 0.151800
O277 O 0.583000 0.897700 0.186800
O278 O -0.361500 0.234600 0.010500
O279 O 0.516600 1.114600 0.239300
O280 O 0.184900 0.890900 0.267700
O281 O -0.139900 0.565500 -0.017100
O282 O 0.733700 0.806200 0.221000
N283 N 0.157700 0.592600 0.124900
C284 C -0.143600 0.033400 0.048000
O285 O -0.055400 0.013600 0.029600
C286 C 0.459800 0.799400 0.195300
H287 H 0.500300 0.705500 0.203000
C288 C 0.378200 0.767800 0.166800
H289 H 0.368600 0.860100 0.155500
C290 C 0.224700 0.702000 0.173200
H291 H 0.237000 0.599600 0.180500
O292 O -0.222400 0.777800 -0.036400
C293 C 0.125100 0.697700 0.145700
C294 C 0.222300 0.797200 0.221200
H295 H 0.242500 0.694900 0.228000
C296 C 0.060600 0.615400 0.103500
C297 C 0.365700 0.875400 0.217800
H298 H 0.419500 0.874200 0.236300
C299 C -0.022200 0.367800 0.082000
H300 H -0.114900 0.378600 0.093200
C301 C -0.125900 0.381500 0.032700
H302 H -0.125500 0.329900 0.014000
O303 O -0.025500 0.974600 0.286500
C304 C -0.052100 0.285700 0.054800
H305 H 0.042000 0.245300 0.047000
C306 C 0.050700 0.526800 0.076200
H307 H 0.151500 0.513400 0.068200
C308 C 0.422400 1.142100 0.221800
C309 C -0.043600 0.533200 0.030000
H310 H 0.059100 0.514700 0.023300
O311 O 0.497600 0.817000 0.115600
O312 O -0.054000 0.262000 0.136500
C313 C -0.118600 0.643100 0.009500
H314 H -0.214300 0.675800 0.017300
H315 H -0.055600 0.730700 0.006600
C316 C 0.110200 0.868500 0.241300
H317 H 0.075700 0.963500 0.233500
H318 H 0.024300 0.803100 0.243900
C319 C 0.100900 0.945400 0.288900
C320 C -0.390800 0.332900 0.027400
C321 C 0.197000 0.976400 0.315300
H322 H 0.297600 0.941500 0.311800
H323 H 0.156200 0.924900 0.331700
H324 H 0.199000 1.082400 0.319000
C325 C -0.203000 0.646000 -0.038100
C326 C 0.812500 1.019500 0.193300
H327 H 0.769200 1.069500 0.177000
H328 H 0.908500 0.978900 0.188100
H329 H 0.824800 1.089900 0.208800
C330 C 0.189000 0.170000 0.138600
H331 H 0.267700 0.157100 0.124600
H332 H 0.162200 0.073700 0.146400
H333 H 0.223700 0.234000 0.153900
C334 C -0.268700 -0.063200 0.055400
H335 H -0.330400 -0.014300 0.069600
H336 H -0.231500 -0.156000 0.063100
H337 H -0.327100 -0.083200 0.038400
C338 C -0.227200 0.555000 -0.065200
H339 H -0.199700 0.452200 -0.061600
H340 H -0.166500 0.594300 -0.080500
H341 H -0.331000 0.559500 -0.070600
C342 C 0.375000 1.289900 0.211700
H343 H 0.293100 1.278900 0.198500
H344 H 0.457500 1.338600 0.202200
H345 H 0.343600 1.349600 0.227900
C346 C -0.540800 0.378000 0.038100
H347 H -0.529700 0.457500 0.052100
H348 H -0.589200 0.293900 0.047000
H349 H -0.600600 0.413500 0.022300
C350 C 0.584000 0.562000 0.110700
H351 H 0.612400 0.593400 0.091600
H352 H 0.514300 0.479800 0.109300
H353 H 0.671400 0.529800 0.121100
C354 C 0.511000 0.691000 0.126400
C355 C 0.710600 0.894300 0.202900
C356 C 0.052000 0.241000 0.124100

#END
