./ABIVIR_from_xyz.cif_generated_by_CrystalShift
_symmetry_cell_setting triclinic
_symmetry_space_group_name_H-M 'P 1'
loop_
_symmetry_equiv_pos_site_id
_symmetry_equiv_pos_as_xyz
1 x,y,z
_cell_length_a 11.270100
_cell_length_b 13.493300
_cell_length_c 9.103500
_cell_angle_alpha 90.000000
_cell_angle_beta 95.296000
_cell_angle_gamma 90.000000
_cell_volume 1378.467118
loop_
_atom_site_label
_atom_site_type_symbol
_atom_site_fract_x
_atom_site_fract_y
_atom_site_fract_z
C1 C -0.024700 0.958500 0.289800
C2 C 0.081700 0.826000 0.188700
C3 C 0.100400 0.724200 0.182400
C4 C 0.187500 0.686900 0.101200
C5 C 0.258300 0.749800 0.024900
C6 C 0.239200 0.850900 0.032500
C7 C 0.151100 0.890000 0.113600
C8 C 0.354300 0.707400 -0.058800
C9 C 0.540300 0.631100 0.001300
C10 C 0.664700 0.620900 0.245700
C11 C 0.775800 0.658800 0.293900
C12 C 0.804600 0.671900 0.444000
C13 C 0.723000 0.647500 0.543100
C14 C 0.611200 0.611600 0.493000
C15 C 0.581200 0.597400 0.342900
N16 N 0.552000 0.600600 -0.133900
N17 N 0.659800 0.553600 -0.124700
N18 N 0.711700 0.555600 0.007600
N19 N 0.636500 0.605000 0.091300
O20 O -0.007400 0.854700 0.271700
O21 O 0.452100 0.680800 0.052300
H22 H 0.049300 0.988500 0.334100
H23 H -0.088400 0.969500 0.354300
H24 H -0.047000 0.988900 0.193300
H25 H 0.053000 0.680400 0.234000
H26 H 0.199500 0.617300 0.097200
H27 H 0.287100 0.894700 -0.018600
H28 H 0.138700 0.959500 0.117300
H29 H 0.325000 0.648000 -0.114900
H30 H 0.381400 0.756800 -0.128800
H31 H 0.831200 0.675500 0.225300
H32 H 0.880500 0.697600 0.479000
H33 H 0.743700 0.655500 0.645900
H34 H 0.555000 0.596600 0.561400
H35 H 0.505100 0.572100 0.307700
C36 C 1.024700 0.458500 0.210200
C37 C 0.918300 0.326000 0.311300
C38 C 0.899600 0.224200 0.317600
C39 C 0.812500 0.186900 0.398800
C40 C 0.741700 0.249800 0.475100
C41 C 0.760800 0.350900 0.467500
C42 C 0.848900 0.390000 0.386400
C43 C 0.645700 0.207400 0.558800
C44 C 0.459700 0.131100 0.498700
C45 C 0.335300 0.120900 0.254300
C46 C 0.224200 0.158800 0.206100
C47 C 0.195400 0.171900 0.056000
C48 C 0.277000 0.147500 -0.043100
C49 C 0.388800 0.111600 0.007000
C50 C 0.418800 0.097400 0.157100
N51 N 0.448000 0.100600 0.633900
N52 N 0.340200 0.053600 0.624700
N53 N 0.288300 0.055600 0.492400
N54 N 0.363500 0.105000 0.408700
O55 O 1.007400 0.354700 0.228300
O56 O 0.547900 0.180800 0.447700
H57 H 0.950700 0.488500 0.165900
H58 H 1.088400 0.469500 0.145700
H59 H 1.047000 0.488900 0.306700
H60 H 0.947000 0.180400 0.266000
H61 H 0.800500 0.117300 0.402800
H62 H 0.712900 0.394700 0.518600
H63 H 0.861300 0.459500 0.382700
H64 H 0.675000 0.148000 0.614900
H65 H 0.618600 0.256800 0.628800
H66 H 0.168800 0.175500 0.274700
H67 H 0.119500 0.197600 0.021000
H68 H 0.256300 0.155500 -0.145900
H69 H 0.445000 0.096600 -0.061400
H70 H 0.494900 0.072100 0.192300
C71 C 1.024700 0.041500 0.710200
C72 C 0.918300 0.174000 0.811300
C73 C 0.899600 0.275800 0.817600
C74 C 0.812500 0.313100 0.898800
C75 C 0.741700 0.250200 0.975100
C76 C 0.760800 0.149100 0.967500
C77 C 0.848900 0.110000 0.886400
C78 C 0.645700 0.292600 1.058800
C79 C 0.459700 0.368900 0.998700
C80 C 0.335300 0.379100 0.754300
C81 C 0.224200 0.341200 0.706100
C82 C 0.195400 0.328100 0.556000
C83 C 0.277000 0.352500 0.456900
C84 C 0.388800 0.388400 0.507000
C85 C 0.418800 0.402600 0.657100
N86 N 0.448000 0.399400 1.133900
N87 N 0.340200 0.446400 1.124700
N88 N 0.288300 0.444400 0.992400
N89 N 0.363500 0.395000 0.908700
O90 O 1.007400 0.145300 0.728300
O91 O 0.547900 0.319200 0.947700
H92 H 0.950700 0.011500 0.665900
H93 H 1.088400 0.030500 0.645700
H94 H 1.047000 0.011100 0.806700
H95 H 0.947000 0.319600 0.766000
H96 H 0.800500 0.382700 0.902800
H97 H 0.712900 0.105300 1.018600
H98 H 0.861300 0.040500 0.882700
H99 H 0.675000 0.352000 1.114900
H100 H 0.618600 0.243200 1.128800
H101 H 0.168800 0.324500 0.774700
H102 H 0.119500 0.302400 0.521000
H103 H 0.256300 0.344500 0.354100
H104 H 0.445000 0.403400 0.438600
H105 H 0.494900 0.427900 0.692300
C106 C -0.024700 0.541500 0.789800
C107 C 0.081700 0.674000 0.688700
C108 C 0.100400 0.775800 0.682400
C109 C 0.187500 0.813100 0.601200
C110 C 0.258300 0.750200 0.524900
C111 C 0.239200 0.649100 0.532500
C112 C 0.151100 0.610000 0.613600
C113 C 0.354300 0.792600 0.441200
C114 C 0.540300 0.868900 0.501300
C115 C 0.664700 0.879100 0.745700
C116 C 0.775800 0.841200 0.793900
C117 C 0.804600 0.828100 0.944000
C118 C 0.723000 0.852500 1.043100
C119 C 0.611200 0.888400 0.993000
C120 C 0.581200 0.902600 0.842900
N121 N 0.552000 0.899400 0.366100
N122 N 0.659800 0.946400 0.375300
N123 N 0.711700 0.944400 0.507600
N124 N 0.636500 0.895000 0.591300
O125 O -0.007400 0.645300 0.771700
O126 O 0.452100 0.819200 0.552300
H127 H 0.049300 0.511500 0.834100
H128 H -0.088400 0.530500 0.854300
H129 H -0.047000 0.511100 0.693300
H130 H 0.053000 0.819600 0.734000
H131 H 0.199500 0.882700 0.597200
H132 H 0.287100 0.605300 0.481400
H133 H 0.138700 0.540500 0.617300
H134 H 0.325000 0.852000 0.385100
H135 H 0.381400 0.743200 0.371200
H136 H 0.831200 0.824500 0.725300
H137 H 0.880500 0.802400 0.979000
H138 H 0.743700 0.844500 1.145900
H139 H 0.555000 0.903400 1.061400
H140 H 0.505100 0.927900 0.807700

#END
