
#######################################################################
#
#                 Cambridge Crystallographic Data Centre
#                                CCDC 
#
#######################################################################
#
# If this CIF has been generated from an entry in the Cambridge 
# Structural Database, then it will include bibliographic, chemical, 
# crystal, experimental, refinement or atomic coordinate data resulting 
# from the CCDC's data processing and validation procedures.
#
#######################################################################

data_ABIXUH
_symmetry_cell_setting           monoclinic
_symmetry_space_group_name_H-M   'P 21'
_symmetry_Int_Tables_number      4
_space_group_name_Hall           'P 2yb'
loop_
_symmetry_equiv_pos_site_id
_symmetry_equiv_pos_as_xyz
1 x,y,z
2 -x,1/2+y,-z
_cell_length_a                   6.4095(17)
_cell_length_b                   13.267(3)
_cell_length_c                   7.6203(19)
_cell_angle_alpha                90
_cell_angle_beta                 110.130(12)
_cell_angle_gamma                90
_cell_volume                     608.408
loop_
_atom_site_label
_atom_site_type_symbol
_atom_site_fract_x
_atom_site_fract_y
_atom_site_fract_z
C1 C 0.2887(4) 0.5825(2) 0.8867(3)
C2 C 0.4426(4) 0.6227(2) 1.0747(3)
C3 C 0.8139(5) 0.6509(3) 1.2649(4)
C4 C 0.3331(4) 0.4679(2) 0.8685(4)
C5 C 0.3972(5) 0.4083(2) 1.0492(4)
C6 C 0.5034(5) 0.4645(2) 0.7662(4)
C7 C 0.4624(4) 0.5621(2) 0.6596(4)
C8 C 0.3467(4) 0.6263(2) 0.7246(3)
C9 C 0.2522(4) 0.7237(2) 0.6582(4)
C10 C 0.3077(5) 0.7934(2) 0.5270(4)
C11 C 0.0369(5) 0.8636(2) 0.6231(4)
C12 C 0.0948(4) 0.7656(2) 0.7139(4)
C13 C -0.0047(5) 0.7191(2) 0.8451(4)
C14 C 0.0462(4) 0.6052(2) 0.8644(4)
O1 O 0.6557(3) 0.62232(19) 1.0864(3)
O2 O 0.3829(3) 0.6491(2) 1.2011(3)
O3 O 0.1625(4) 0.87923(19) 0.5113(3)
O4 O -0.0971(4) 0.9248(2) 0.6322(3)
H1 H 0.9616 0.6461 1.2612
H2 H 0.7851 0.7202 1.2938
H3 H 0.7988 0.6060 1.3613
H4 H 0.1936 0.4387 0.7831
H5 H 0.4065 0.3370 1.0228
H6 H 0.5416 0.4322 1.1329
H7 H 0.2860 0.4196 1.1087
H8 H 0.6528 0.4635 0.8557
H9 H 0.4788 0.4059 0.6823
H10 H 0.5114 0.5761 0.5587
H11 H 0.4618 0.8159 0.5797
H12 H 0.2785 0.7604 0.4065
H13 H 0.0580 0.7521 0.9678
H14 H -0.1640 0.7289 0.7975
H15 H 0.0106 0.5772 0.9707
H16 H -0.0464 0.5718 0.7491
C1 C 0.7113(4) 0.0825(2) 0.1133(3)
C2 C 0.5574(4) 0.1227(2) -0.0747(3)
C3 C 0.1861(5) 0.1509(3) -0.2649(4)
C4 C 0.6669(4) -0.0321(2) 0.1315(4)
C5 C 0.6028(5) -0.0917(2) -0.0492(4)
C6 C 0.4966(5) -0.0355(2) 0.2338(4)
C7 C 0.5376(4) 0.0621(2) 0.3404(4)
C8 C 0.6533(4) 0.1263(2) 0.2754(3)
C9 C 0.7478(4) 0.2237(2) 0.3418(4)
C10 C 0.6923(5) 0.2934(2) 0.4730(4)
C11 C 0.9631(5) 0.3636(2) 0.3769(4)
C12 C 0.9052(4) 0.2656(2) 0.2861(4)
C13 C 1.0047(5) 0.2191(2) 0.1549(4)
C14 C 0.9538(4) 0.1052(2) 0.1356(4)
O1 O 0.3443(3) 0.12232(19) -0.0864(3)
O2 O 0.6171(3) 0.1491(2) -0.2011(3)
O3 O 0.8375(4) 0.37923(19) 0.4887(3)
O4 O 1.0971(4) 0.4248(2) 0.3678(3)
H1 H 0.0384 0.1461 -0.2612
H2 H 0.2149 0.2202 -0.2938
H3 H 0.2012 0.1060 -0.3613
H4 H 0.8064 -0.0613 0.2169
H5 H 0.5935 -0.1630 -0.0228
H6 H 0.4584 -0.0678 -0.1329
H7 H 0.7140 -0.0804 -0.1087
H8 H 0.3472 -0.0365 0.1443
H9 H 0.5212 -0.0941 0.3177
H10 H 0.4886 0.0761 0.4413
H11 H 0.5382 0.3159 0.4203
H12 H 0.7215 0.2604 0.5935
H13 H 0.9420 0.2521 0.0322
H14 H 1.1640 0.2289 0.2025
H15 H 0.9894 0.0772 0.0293
H16 H 1.0464 0.0718 0.2509

#END
