./ABIYOC_from_xyz.cif_generated_by_CrystalShift
_symmetry_cell_setting triclinic
_symmetry_space_group_name_H-M 'P 1'
loop_
_symmetry_equiv_pos_site_id
_symmetry_equiv_pos_as_xyz
1 x,y,z
_cell_length_a 10.871200
_cell_length_b 12.257700
_cell_length_c 15.545600
_cell_angle_alpha 90.000000
_cell_angle_beta 90.458800
_cell_angle_gamma 90.000000
_cell_volume 2071.476686
loop_
_atom_site_label
_atom_site_type_symbol
_atom_site_fract_x
_atom_site_fract_y
_atom_site_fract_z
I1 I 0.877680 0.747700 0.381245
I2 I 1.144230 0.634380 0.491108
N3 N 0.849000 0.602600 0.669020
C4 C 0.814200 0.531600 0.731600
C5 C 0.885500 0.459400 0.781100
H6 H 0.970000 0.453800 0.773600
C7 C 0.825200 0.397400 0.841200
H8 H 0.870200 0.349900 0.875800
C9 C 0.698200 0.404200 0.851200
H10 H 0.659800 0.360800 0.892100
C11 C 0.629900 0.473300 0.802100
H12 H 0.545200 0.477100 0.809500
C13 C 0.686400 0.538600 0.740800
C14 C 0.642800 0.618600 0.679900
C15 C 0.744700 0.654900 0.636400
C16 C 0.760100 0.739400 0.565600
C17 C 0.876700 0.708100 0.512900
C18 C 0.973100 0.661400 0.550100
C19 C 0.972500 0.622500 0.641000
H20 H 1.020100 0.555800 0.645700
H21 H 1.010600 0.676900 0.677800
C22 C 0.510400 0.657400 0.675800
H23 H 0.472300 0.631100 0.623900
H24 H 0.508500 0.735700 0.676200
H25 H 0.466600 0.630000 0.724600
C26 C 0.644600 0.736400 0.507200
C27 C 0.611200 0.637500 0.470300
H28 H 0.657000 0.575200 0.482500
C29 C 0.510400 0.630700 0.415500
H30 H 0.489500 0.564300 0.390500
C31 C 0.440800 0.722400 0.398100
H32 H 0.373000 0.718000 0.361500
C33 C 0.472300 0.820200 0.435100
H34 H 0.425400 0.882000 0.423700
C35 C 0.574100 0.827300 0.489600
H36 H 0.594800 0.894000 0.514300
C37 C 0.779200 0.854700 0.605200
C38 C 0.740500 0.877500 0.687700
H39 H 0.706700 0.822100 0.720900
C40 C 0.751300 0.982400 0.721900
H41 H 0.724100 0.996500 0.777400
C42 C 0.801600 1.064500 0.674500
H43 H 0.808900 1.134300 0.697400
C44 C 0.841400 1.043200 0.592400
H45 H 0.875200 1.098900 0.559400
C46 C 0.831200 0.939700 0.559100
H47 H 0.860200 0.926200 0.504000
I48 I 0.122320 0.247700 1.118755
I49 I -0.144230 0.134380 1.008892
N50 N 0.151000 0.102600 0.830980
C51 C 0.185800 0.031600 0.768400
C52 C 0.114500 -0.040600 0.718900
H53 H 0.030000 -0.046200 0.726400
C54 C 0.174800 -0.102600 0.658800
H55 H 0.129800 -0.150100 0.624200
C56 C 0.301800 -0.095800 0.648800
H57 H 0.340200 -0.139200 0.607900
C58 C 0.370100 -0.026700 0.697900
H59 H 0.454800 -0.022900 0.690500
C60 C 0.313600 0.038600 0.759200
C61 C 0.357200 0.118600 0.820100
C62 C 0.255300 0.154900 0.863600
C63 C 0.239900 0.239400 0.934400
C64 C 0.123300 0.208100 0.987100
C65 C 0.026900 0.161400 0.949900
C66 C 0.027500 0.122500 0.859000
H67 H -0.020100 0.055800 0.854300
H68 H -0.010600 0.176900 0.822200
C69 C 0.489600 0.157400 0.824200
H70 H 0.527700 0.131100 0.876100
H71 H 0.491500 0.235700 0.823800
H72 H 0.533400 0.130000 0.775400
C73 C 0.355400 0.236400 0.992800
C74 C 0.388800 0.137500 1.029700
H75 H 0.343000 0.075200 1.017500
C76 C 0.489600 0.130700 1.084500
H77 H 0.510500 0.064300 1.109500
C78 C 0.559200 0.222400 1.101900
H79 H 0.627000 0.218000 1.138500
C80 C 0.527700 0.320200 1.064900
H81 H 0.574600 0.382000 1.076300
C82 C 0.425900 0.327300 1.010400
H83 H 0.405200 0.394000 0.985700
C84 C 0.220800 0.354700 0.894800
C85 C 0.259500 0.377500 0.812300
H86 H 0.293300 0.322100 0.779100
C87 C 0.248700 0.482400 0.778100
H88 H 0.275900 0.496500 0.722600
C89 C 0.198400 0.564500 0.825500
H90 H 0.191100 0.634300 0.802600
C91 C 0.158600 0.543200 0.907600
H92 H 0.124800 0.598900 0.940600
C93 C 0.168800 0.439700 0.940900
H94 H 0.139800 0.426200 0.996000
I95 I 0.122320 0.252300 0.618755
I96 I -0.144230 0.365620 0.508892
N97 N 0.151000 0.397400 0.330980
C98 C 0.185800 0.468400 0.268400
C99 C 0.114500 0.540600 0.218900
H100 H 0.030000 0.546200 0.226400
C101 C 0.174800 0.602600 0.158800
H102 H 0.129800 0.650100 0.124200
C103 C 0.301800 0.595800 0.148800
H104 H 0.340200 0.639200 0.107900
C105 C 0.370100 0.526700 0.197900
H106 H 0.454800 0.522900 0.190500
C107 C 0.313600 0.461400 0.259200
C108 C 0.357200 0.381400 0.320100
C109 C 0.255300 0.345100 0.363600
C110 C 0.239900 0.260600 0.434400
C111 C 0.123300 0.291900 0.487100
C112 C 0.026900 0.338600 0.449900
C113 C 0.027500 0.377500 0.359000
H114 H -0.020100 0.444200 0.354300
H115 H -0.010600 0.323100 0.322200
C116 C 0.489600 0.342600 0.324200
H117 H 0.527700 0.368900 0.376100
H118 H 0.491500 0.264300 0.323800
H119 H 0.533400 0.370000 0.275400
C120 C 0.355400 0.263600 0.492800
C121 C 0.388800 0.362500 0.529700
H122 H 0.343000 0.424800 0.517500
C123 C 0.489600 0.369300 0.584500
H124 H 0.510500 0.435700 0.609500
C125 C 0.559200 0.277600 0.601900
H126 H 0.627000 0.282000 0.638500
C127 C 0.527700 0.179800 0.564900
H128 H 0.574600 0.118000 0.576300
C129 C 0.425900 0.172700 0.510400
H130 H 0.405200 0.106000 0.485700
C131 C 0.220800 0.145300 0.394800
C132 C 0.259500 0.122500 0.312300
H133 H 0.293300 0.177900 0.279100
C134 C 0.248700 0.017600 0.278100
H135 H 0.275900 0.003500 0.222600
C136 C 0.198400 -0.064500 0.325500
H137 H 0.191100 -0.134300 0.302600
C138 C 0.158600 -0.043200 0.407600
H139 H 0.124800 -0.098900 0.440600
C140 C 0.168800 0.060300 0.440900
H141 H 0.139800 0.073800 0.496000
I142 I 0.877680 0.752300 -0.118755
I143 I 1.144230 0.865620 -0.008892
N144 N 0.849000 0.897400 0.169020
C145 C 0.814200 0.968400 0.231600
C146 C 0.885500 1.040600 0.281100
H147 H 0.970000 1.046200 0.273600
C148 C 0.825200 1.102600 0.341200
H149 H 0.870200 1.150100 0.375800
C150 C 0.698200 1.095800 0.351200
H151 H 0.659800 1.139200 0.392100
C152 C 0.629900 1.026700 0.302100
H153 H 0.545200 1.022900 0.309500
C154 C 0.686400 0.961400 0.240800
C155 C 0.642800 0.881400 0.179900
C156 C 0.744700 0.845100 0.136400
C157 C 0.760100 0.760600 0.065600
C158 C 0.876700 0.791900 0.012900
C159 C 0.973100 0.838600 0.050100
C160 C 0.972500 0.877500 0.141000
H161 H 1.020100 0.944200 0.145700
H162 H 1.010600 0.823100 0.177800
C163 C 0.510400 0.842600 0.175800
H164 H 0.472300 0.868900 0.123900
H165 H 0.508500 0.764300 0.176200
H166 H 0.466600 0.870000 0.224600
C167 C 0.644600 0.763600 0.007200
C168 C 0.611200 0.862500 -0.029700
H169 H 0.657000 0.924800 -0.017500
C170 C 0.510400 0.869300 -0.084500
H171 H 0.489500 0.935700 -0.109500
C172 C 0.440800 0.777600 -0.101900
H173 H 0.373000 0.782000 -0.138500
C174 C 0.472300 0.679800 -0.064900
H175 H 0.425400 0.618000 -0.076300
C176 C 0.574100 0.672700 -0.010400
H177 H 0.594800 0.606000 0.014300
C178 C 0.779200 0.645300 0.105200
C179 C 0.740500 0.622500 0.187700
H180 H 0.706700 0.677900 0.220900
C181 C 0.751300 0.517600 0.221900
H182 H 0.724100 0.503500 0.277400
C183 C 0.801600 0.435500 0.174500
H184 H 0.808900 0.365700 0.197400
C185 C 0.841400 0.456800 0.092400
H186 H 0.875200 0.401100 0.059400
C187 C 0.831200 0.560300 0.059100
H188 H 0.860200 0.573800 0.004000

#END
