./ABIZAP_from_xyz.cif_generated_by_CrystalShift
_symmetry_cell_setting triclinic
_symmetry_space_group_name_H-M 'P 1'
loop_
_symmetry_equiv_pos_site_id
_symmetry_equiv_pos_as_xyz
1 x,y,z
_cell_length_a 7.331000
_cell_length_b 10.106800
_cell_length_c 14.572000
_cell_angle_alpha 84.948000
_cell_angle_beta 83.200000
_cell_angle_gamma 79.942000
_cell_volume 1053.101144
loop_
_atom_site_label
_atom_site_type_symbol
_atom_site_fract_x
_atom_site_fract_y
_atom_site_fract_z
C1 C 0.904800 0.398400 0.829820
C2 C 0.910500 0.251800 0.876490
C3 C 0.832900 0.270300 0.972550
C4 C 0.798700 0.182300 1.048760
H5 H 0.828900 0.089500 1.044900
C6 C 0.717900 0.237000 1.130940
H7 H 0.692600 0.179700 1.182700
C8 C 0.674100 0.374800 1.137700
H9 H 0.619700 0.408200 1.193800
C10 C 0.710000 0.464900 1.062340
C11 C 0.788600 0.407580 0.980900
C12 C 0.677600 0.610800 1.057050
C13 C 0.721400 0.688000 0.977790
C14 C 0.680500 0.828100 0.990990
H15 H 0.702600 0.894500 0.944600
C16 C 0.606600 0.854700 1.077730
H17 H 0.571500 0.941200 1.097900
C18 C 0.802800 0.630000 0.887640
H19 H 0.719600 0.662400 0.840500
H20 H 0.921100 0.659700 0.867900
N21 N 0.830800 0.482680 0.897530
O22 O 0.957000 0.429810 0.750370
O23 O 0.968500 0.151090 0.836150
S24 S 0.584330 0.711040 1.146860
C25 C 0.095200 0.601600 0.170180
C26 C 0.089500 0.748200 0.123510
C27 C 0.167100 0.729700 0.027450
C28 C 0.201300 0.817700 -0.048760
H29 H 0.171100 0.910500 -0.044900
C30 C 0.282100 0.763000 -0.130940
H31 H 0.307400 0.820300 -0.182700
C32 C 0.325900 0.625200 -0.137700
H33 H 0.380300 0.591800 -0.193800
C34 C 0.290000 0.535100 -0.062340
C35 C 0.211400 0.592420 0.019100
C36 C 0.322400 0.389200 -0.057050
C37 C 0.278600 0.312000 0.022210
C38 C 0.319500 0.171900 0.009010
H39 H 0.297400 0.105500 0.055400
C40 C 0.393400 0.145300 -0.077730
H41 H 0.428500 0.058800 -0.097900
C42 C 0.197200 0.370000 0.112360
H43 H 0.280400 0.337600 0.159500
H44 H 0.078900 0.340300 0.132100
N45 N 0.169200 0.517320 0.102470
O46 O 0.043000 0.570190 0.249630
O47 O 0.031500 0.848910 0.163850
S48 S 0.415670 0.288960 -0.146860
C49 C 0.653900 -0.061100 0.681720
C50 C 0.640700 -0.190100 0.633930
C51 C 0.693300 -0.158980 0.534770
C52 C 0.710400 -0.229800 0.456600
H53 H 0.684100 -0.317000 0.460600
C54 C 0.767600 -0.167800 0.372010
H55 H 0.781500 -0.214600 0.318800
C56 C 0.804700 -0.036600 0.365500
H57 H 0.842600 0.002700 0.307900
C58 C 0.786200 0.036990 0.443650
C59 C 0.731600 -0.028660 0.527200
C60 C 0.815200 0.174380 0.450060
C61 C 0.785300 0.236300 0.531920
C62 C 0.817300 0.371500 0.519180
H63 H 0.802400 0.428800 0.567000
C64 C 0.871700 0.407900 0.430400
H65 H 0.899000 0.492900 0.410300
C66 C 0.727300 0.168200 0.624050
H67 H 0.819300 0.169800 0.666400
H68 H 0.609000 0.216500 0.650200
N69 N 0.709300 0.028410 0.613090
O70 O 0.619800 -0.042600 0.763470
O71 O 0.594000 -0.290360 0.674350
S72 S 0.885160 0.280520 0.358730
C73 C 0.346100 1.061100 0.318280
C74 C 0.359300 1.190100 0.366070
C75 C 0.306700 1.158980 0.465230
C76 C 0.289600 1.229800 0.543400
H77 H 0.315900 1.317000 0.539400
C78 C 0.232400 1.167800 0.627990
H79 H 0.218500 1.214600 0.681200
C80 C 0.195300 1.036600 0.634500
H81 H 0.157400 0.997300 0.692100
C82 C 0.213800 0.963010 0.556350
C83 C 0.268400 1.028660 0.472800
C84 C 0.184800 0.825620 0.549940
C85 C 0.214700 0.763700 0.468080
C86 C 0.182700 0.628500 0.480820
H87 H 0.197600 0.571200 0.433000
C88 C 0.128300 0.592100 0.569600
H89 H 0.101000 0.507100 0.589700
C90 C 0.272700 0.831800 0.375950
H91 H 0.180700 0.830200 0.333600
H92 H 0.391000 0.783500 0.349800
N93 N 0.290700 0.971590 0.386910
O94 O 0.380200 1.042600 0.236530
O95 O 0.406000 1.290360 0.325650
S96 S 0.114840 0.719480 0.641270

#END
