./ABOCOM_from_xyz.cif_generated_by_CrystalShift
_symmetry_cell_setting triclinic
_symmetry_space_group_name_H-M 'P 1'
loop_
_symmetry_equiv_pos_site_id
_symmetry_equiv_pos_as_xyz
1 x,y,z
_cell_length_a 16.630000
_cell_length_b 6.464000
_cell_length_c 34.227000
_cell_angle_alpha 90.000000
_cell_angle_beta 94.570000
_cell_angle_gamma 90.000000
_cell_volume 3667.579118
loop_
_atom_site_label
_atom_site_type_symbol
_atom_site_fract_x
_atom_site_fract_y
_atom_site_fract_z
O1 O 0.194490 0.021880 0.621500
C2 C 0.234520 0.213620 0.634910
C3 C 0.324420 0.161800 0.642160
C4 C 0.352560 -0.010200 0.622380
H5 H 0.316400 -0.086300 0.606000
C6 C 0.433040 -0.070200 0.626570
H7 H 0.450000 -0.186100 0.613400
C8 C 0.487200 0.041800 0.650170
H9 H 0.541100 0.002100 0.653300
C10 C 0.461250 0.211800 0.668950
H11 H 0.498800 0.287200 0.684700
C12 C 0.381000 0.279000 0.665780
C13 C 0.365870 0.473800 0.688710
H14 H 0.369200 0.437200 0.716300
H15 H 0.409800 0.568800 0.685100
C16 C 0.287780 0.590300 0.679640
H17 H 0.289900 0.720600 0.693700
H18 H 0.281000 0.620500 0.651800
C19 C 0.217510 0.466200 0.691130
C20 C 0.177850 0.524500 0.723990
H21 H 0.192600 0.646800 0.737000
C22 C 0.117420 0.404900 0.737540
H23 H 0.091200 0.447400 0.759200
C24 C 0.096230 0.223200 0.718980
H25 H 0.055800 0.141500 0.728200
C26 C 0.134780 0.160300 0.686530
H27 H 0.120400 0.035500 0.674400
C28 C 0.194690 0.281300 0.671950
C29 C 0.213250 0.368700 0.599760
H30 H 0.201700 0.506500 0.609900
C31 C 0.279930 0.381800 0.571250
H32 H 0.330700 0.413100 0.586000
H33 H 0.285400 0.247700 0.559000
C34 C 0.264430 0.541500 0.539860
O35 O 0.224980 0.696540 0.544100
O36 O 0.300010 0.502770 0.508180
C37 C 0.137490 0.273100 0.580910
C38 C 0.078630 0.345500 0.552970
H39 H 0.081200 0.479400 0.543200
C40 C 0.016540 0.214800 0.539990
H41 H -0.022900 0.261300 0.521300
C42 C 0.012220 0.016800 0.554360
H43 H -0.030400 -0.068000 0.545200
C44 C 0.070040 -0.059700 0.582270
H45 H 0.067200 -0.193400 0.592100
C46 C 0.131890 0.073800 0.594550
H47 H 0.284700 0.613000 0.488600
O48 O 0.805510 0.021880 0.878500
C49 C 0.765480 0.213620 0.865090
C50 C 0.675580 0.161800 0.857840
C51 C 0.647440 -0.010200 0.877620
H52 H 0.683600 -0.086300 0.894000
C53 C 0.566960 -0.070200 0.873430
H54 H 0.550000 -0.186100 0.886600
C55 C 0.512800 0.041800 0.849830
H56 H 0.458900 0.002100 0.846700
C57 C 0.538750 0.211800 0.831050
H58 H 0.501200 0.287200 0.815300
C59 C 0.619000 0.279000 0.834220
C60 C 0.634130 0.473800 0.811290
H61 H 0.630800 0.437200 0.783700
H62 H 0.590200 0.568800 0.814900
C63 C 0.712220 0.590300 0.820360
H64 H 0.710100 0.720600 0.806300
H65 H 0.719000 0.620500 0.848200
C66 C 0.782490 0.466200 0.808870
C67 C 0.822150 0.524500 0.776010
H68 H 0.807400 0.646800 0.763000
C69 C 0.882580 0.404900 0.762460
H70 H 0.908800 0.447400 0.740800
C71 C 0.903770 0.223200 0.781020
H72 H 0.944200 0.141500 0.771800
C73 C 0.865220 0.160300 0.813470
H74 H 0.879600 0.035500 0.825600
C75 C 0.805310 0.281300 0.828050
C76 C 0.786750 0.368700 0.900240
H77 H 0.798300 0.506500 0.890100
C78 C 0.720070 0.381800 0.928750
H79 H 0.669300 0.413100 0.914000
H80 H 0.714600 0.247700 0.941000
C81 C 0.735570 0.541500 0.960140
O82 O 0.775020 0.696540 0.955900
O83 O 0.699990 0.502770 0.991820
C84 C 0.862510 0.273100 0.919090
C85 C 0.921370 0.345500 0.947030
H86 H 0.918800 0.479400 0.956800
C87 C 0.983460 0.214800 0.960010
H88 H 1.022900 0.261300 0.978700
C89 C 0.987780 0.016800 0.945640
H90 H 1.030400 -0.068000 0.954800
C91 C 0.929960 -0.059700 0.917730
H92 H 0.932800 -0.193400 0.907900
C93 C 0.868110 0.073800 0.905450
H94 H 0.715300 0.613000 1.011400
O95 O 0.694490 0.521880 0.621500
C96 C 0.734520 0.713620 0.634910
C97 C 0.824420 0.661800 0.642160
C98 C 0.852560 0.489800 0.622380
H99 H 0.816400 0.413700 0.606000
C100 C 0.933040 0.429800 0.626570
H101 H 0.950000 0.313900 0.613400
C102 C 0.987200 0.541800 0.650170
H103 H 1.041100 0.502100 0.653300
C104 C 0.961250 0.711800 0.668950
H105 H 0.998800 0.787200 0.684700
C106 C 0.881000 0.779000 0.665780
C107 C 0.865870 0.973800 0.688710
H108 H 0.869200 0.937200 0.716300
H109 H 0.909800 1.068800 0.685100
C110 C 0.787780 1.090300 0.679640
H111 H 0.789900 1.220600 0.693700
H112 H 0.781000 1.120500 0.651800
C113 C 0.717510 0.966200 0.691130
C114 C 0.677850 1.024500 0.723990
H115 H 0.692600 1.146800 0.737000
C116 C 0.617420 0.904900 0.737540
H117 H 0.591200 0.947400 0.759200
C118 C 0.596230 0.723200 0.718980
H119 H 0.555800 0.641500 0.728200
C120 C 0.634780 0.660300 0.686530
H121 H 0.620400 0.535500 0.674400
C122 C 0.694690 0.781300 0.671950
C123 C 0.713250 0.868700 0.599760
H124 H 0.701700 1.006500 0.609900
C125 C 0.779930 0.881800 0.571250
H126 H 0.830700 0.913100 0.586000
H127 H 0.785400 0.747700 0.559000
C128 C 0.764430 1.041500 0.539860
O129 O 0.724980 1.196540 0.544100
O130 O 0.800010 1.002770 0.508180
C131 C 0.637490 0.773100 0.580910
C132 C 0.578630 0.845500 0.552970
H133 H 0.581200 0.979400 0.543200
C134 C 0.516540 0.714800 0.539990
H135 H 0.477100 0.761300 0.521300
C136 C 0.512220 0.516800 0.554360
H137 H 0.469600 0.432000 0.545200
C138 C 0.570040 0.440300 0.582270
H139 H 0.567200 0.306600 0.592100
C140 C 0.631890 0.573800 0.594550
H141 H 0.784700 1.113000 0.488600
O142 O 0.305510 0.521880 0.878500
C143 C 0.265480 0.713620 0.865090
C144 C 0.175580 0.661800 0.857840
C145 C 0.147440 0.489800 0.877620
H146 H 0.183600 0.413700 0.894000
C147 C 0.066960 0.429800 0.873430
H148 H 0.050000 0.313900 0.886600
C149 C 0.012800 0.541800 0.849830
H150 H -0.041100 0.502100 0.846700
C151 C 0.038750 0.711800 0.831050
H152 H 0.001200 0.787200 0.815300
C153 C 0.119000 0.779000 0.834220
C154 C 0.134130 0.973800 0.811290
H155 H 0.130800 0.937200 0.783700
H156 H 0.090200 1.068800 0.814900
C157 C 0.212220 1.090300 0.820360
H158 H 0.210100 1.220600 0.806300
H159 H 0.219000 1.120500 0.848200
C160 C 0.282490 0.966200 0.808870
C161 C 0.322150 1.024500 0.776010
H162 H 0.307400 1.146800 0.763000
C163 C 0.382580 0.904900 0.762460
H164 H 0.408800 0.947400 0.740800
C165 C 0.403770 0.723200 0.781020
H166 H 0.444200 0.641500 0.771800
C167 C 0.365220 0.660300 0.813470
H168 H 0.379600 0.535500 0.825600
C169 C 0.305310 0.781300 0.828050
C170 C 0.286750 0.868700 0.900240
H171 H 0.298300 1.006500 0.890100
C172 C 0.220070 0.881800 0.928750
H173 H 0.169300 0.913100 0.914000
H174 H 0.214600 0.747700 0.941000
C175 C 0.235570 1.041500 0.960140
O176 O 0.275020 1.196540 0.955900
O177 O 0.199990 1.002770 0.991820
C178 C 0.362510 0.773100 0.919090
C179 C 0.421370 0.845500 0.947030
H180 H 0.418800 0.979400 0.956800
C181 C 0.483460 0.714800 0.960010
H182 H 0.522900 0.761300 0.978700
C183 C 0.487780 0.516800 0.945640
H184 H 0.530400 0.432000 0.954800
C185 C 0.429960 0.440300 0.917730
H186 H 0.432800 0.306600 0.907900
C187 C 0.368110 0.573800 0.905450
H188 H 0.215300 1.113000 1.011400
O189 O 0.805510 0.978120 0.378500
C190 C 0.765480 0.786380 0.365090
C191 C 0.675580 0.838200 0.357840
C192 C 0.647440 1.010200 0.377620
H193 H 0.683600 1.086300 0.394000
C194 C 0.566960 1.070200 0.373430
H195 H 0.550000 1.186100 0.386600
C196 C 0.512800 0.958200 0.349830
H197 H 0.458900 0.997900 0.346700
C198 C 0.538750 0.788200 0.331050
H199 H 0.501200 0.712800 0.315300
C200 C 0.619000 0.721000 0.334220
C201 C 0.634130 0.526200 0.311290
H202 H 0.630800 0.562800 0.283700
H203 H 0.590200 0.431200 0.314900
C204 C 0.712220 0.409700 0.320360
H205 H 0.710100 0.279400 0.306300
H206 H 0.719000 0.379500 0.348200
C207 C 0.782490 0.533800 0.308870
C208 C 0.822150 0.475500 0.276010
H209 H 0.807400 0.353200 0.263000
C210 C 0.882580 0.595100 0.262460
H211 H 0.908800 0.552600 0.240800
C212 C 0.903770 0.776800 0.281020
H213 H 0.944200 0.858500 0.271800
C214 C 0.865220 0.839700 0.313470
H215 H 0.879600 0.964500 0.325600
C216 C 0.805310 0.718700 0.328050
C217 C 0.786750 0.631300 0.400240
H218 H 0.798300 0.493500 0.390100
C219 C 0.720070 0.618200 0.428750
H220 H 0.669300 0.586900 0.414000
H221 H 0.714600 0.752300 0.441000
C222 C 0.735570 0.458500 0.460140
O223 O 0.775020 0.303460 0.455900
O224 O 0.699990 0.497230 0.491820
C225 C 0.862510 0.726900 0.419090
C226 C 0.921370 0.654500 0.447030
H227 H 0.918800 0.520600 0.456800
C228 C 0.983460 0.785200 0.460010
H229 H 1.022900 0.738700 0.478700
C230 C 0.987780 0.983200 0.445640
H231 H 1.030400 1.068000 0.454800
C232 C 0.929960 1.059700 0.417730
H233 H 0.932800 1.193400 0.407900
C234 C 0.868110 0.926200 0.405450
H235 H 0.715300 0.387000 0.511400
O236 O 0.194490 0.978120 0.121500
C237 C 0.234520 0.786380 0.134910
C238 C 0.324420 0.838200 0.142160
C239 C 0.352560 1.010200 0.122380
H240 H 0.316400 1.086300 0.106000
C241 C 0.433040 1.070200 0.126570
H242 H 0.450000 1.186100 0.113400
C243 C 0.487200 0.958200 0.150170
H244 H 0.541100 0.997900 0.153300
C245 C 0.461250 0.788200 0.168950
H246 H 0.498800 0.712800 0.184700
C247 C 0.381000 0.721000 0.165780
C248 C 0.365870 0.526200 0.188710
H249 H 0.369200 0.562800 0.216300
H250 H 0.409800 0.431200 0.185100
C251 C 0.287780 0.409700 0.179640
H252 H 0.289900 0.279400 0.193700
H253 H 0.281000 0.379500 0.151800
C254 C 0.217510 0.533800 0.191130
C255 C 0.177850 0.475500 0.223990
H256 H 0.192600 0.353200 0.237000
C257 C 0.117420 0.595100 0.237540
H258 H 0.091200 0.552600 0.259200
C259 C 0.096230 0.776800 0.218980
H260 H 0.055800 0.858500 0.228200
C261 C 0.134780 0.839700 0.186530
H262 H 0.120400 0.964500 0.174400
C263 C 0.194690 0.718700 0.171950
C264 C 0.213250 0.631300 0.099760
H265 H 0.201700 0.493500 0.109900
C266 C 0.279930 0.618200 0.071250
H267 H 0.330700 0.586900 0.086000
H268 H 0.285400 0.752300 0.059000
C269 C 0.264430 0.458500 0.039860
O270 O 0.224980 0.303460 0.044100
O271 O 0.300010 0.497230 0.008180
C272 C 0.137490 0.726900 0.080910
C273 C 0.078630 0.654500 0.052970
H274 H 0.081200 0.520600 0.043200
C275 C 0.016540 0.785200 0.039990
H276 H -0.022900 0.738700 0.021300
C277 C 0.012220 0.983200 0.054360
H278 H -0.030400 1.068000 0.045200
C279 C 0.070040 1.059700 0.082270
H280 H 0.067200 1.193400 0.092100
C281 C 0.131890 0.926200 0.094550
H282 H 0.284700 0.387000 -0.011400
O283 O 0.305510 0.478120 0.378500
C284 C 0.265480 0.286380 0.365090
C285 C 0.175580 0.338200 0.357840
C286 C 0.147440 0.510200 0.377620
H287 H 0.183600 0.586300 0.394000
C288 C 0.066960 0.570200 0.373430
H289 H 0.050000 0.686100 0.386600
C290 C 0.012800 0.458200 0.349830
H291 H -0.041100 0.497900 0.346700
C292 C 0.038750 0.288200 0.331050
H293 H 0.001200 0.212800 0.315300
C294 C 0.119000 0.221000 0.334220
C295 C 0.134130 0.026200 0.311290
H296 H 0.130800 0.062800 0.283700
H297 H 0.090200 -0.068800 0.314900
C298 C 0.212220 -0.090300 0.320360
H299 H 0.210100 -0.220600 0.306300
H300 H 0.219000 -0.120500 0.348200
C301 C 0.282490 0.033800 0.308870
C302 C 0.322150 -0.024500 0.276010
H303 H 0.307400 -0.146800 0.263000
C304 C 0.382580 0.095100 0.262460
H305 H 0.408800 0.052600 0.240800
C306 C 0.403770 0.276800 0.281020
H307 H 0.444200 0.358500 0.271800
C308 C 0.365220 0.339700 0.313470
H309 H 0.379600 0.464500 0.325600
C310 C 0.305310 0.218700 0.328050
C311 C 0.286750 0.131300 0.400240
H312 H 0.298300 -0.006500 0.390100
C313 C 0.220070 0.118200 0.428750
H314 H 0.169300 0.086900 0.414000
H315 H 0.214600 0.252300 0.441000
C316 C 0.235570 -0.041500 0.460140
O317 O 0.275020 -0.196540 0.455900
O318 O 0.199990 -0.002770 0.491820
C319 C 0.362510 0.226900 0.419090
C320 C 0.421370 0.154500 0.447030
H321 H 0.418800 0.020600 0.456800
C322 C 0.483460 0.285200 0.460010
H323 H 0.522900 0.238700 0.478700
C324 C 0.487780 0.483200 0.445640
H325 H 0.530400 0.568000 0.454800
C326 C 0.429960 0.559700 0.417730
H327 H 0.432800 0.693400 0.407900
C328 C 0.368110 0.426200 0.405450
H329 H 0.215300 -0.113000 0.511400
O330 O 0.694490 0.478120 0.121500
C331 C 0.734520 0.286380 0.134910
C332 C 0.824420 0.338200 0.142160
C333 C 0.852560 0.510200 0.122380
H334 H 0.816400 0.586300 0.106000
C335 C 0.933040 0.570200 0.126570
H336 H 0.950000 0.686100 0.113400
C337 C 0.987200 0.458200 0.150170
H338 H 1.041100 0.497900 0.153300
C339 C 0.961250 0.288200 0.168950
H340 H 0.998800 0.212800 0.184700
C341 C 0.881000 0.221000 0.165780
C342 C 0.865870 0.026200 0.188710
H343 H 0.869200 0.062800 0.216300
H344 H 0.909800 -0.068800 0.185100
C345 C 0.787780 -0.090300 0.179640
H346 H 0.789900 -0.220600 0.193700
H347 H 0.781000 -0.120500 0.151800
C348 C 0.717510 0.033800 0.191130
C349 C 0.677850 -0.024500 0.223990
H350 H 0.692600 -0.146800 0.237000
C351 C 0.617420 0.095100 0.237540
H352 H 0.591200 0.052600 0.259200
C353 C 0.596230 0.276800 0.218980
H354 H 0.555800 0.358500 0.228200
C355 C 0.634780 0.339700 0.186530
H356 H 0.620400 0.464500 0.174400
C357 C 0.694690 0.218700 0.171950
C358 C 0.713250 0.131300 0.099760
H359 H 0.701700 -0.006500 0.109900
C360 C 0.779930 0.118200 0.071250
H361 H 0.830700 0.086900 0.086000
H362 H 0.785400 0.252300 0.059000
C363 C 0.764430 -0.041500 0.039860
O364 O 0.724980 -0.196540 0.044100
O365 O 0.800010 -0.002770 0.008180
C366 C 0.637490 0.226900 0.080910
C367 C 0.578630 0.154500 0.052970
H368 H 0.581200 0.020600 0.043200
C369 C 0.516540 0.285200 0.039990
H370 H 0.477100 0.238700 0.021300
C371 C 0.512220 0.483200 0.054360
H372 H 0.469600 0.568000 0.045200
C373 C 0.570040 0.559700 0.082270
H374 H 0.567200 0.693400 0.092100
C375 C 0.631890 0.426200 0.094550
H376 H 0.784700 -0.113000 -0.011400

#END
