./ABOHEF_from_xyz.cif_generated_by_CrystalShift
_symmetry_cell_setting triclinic
_symmetry_space_group_name_H-M 'P 1'
loop_
_symmetry_equiv_pos_site_id
_symmetry_equiv_pos_as_xyz
1 x,y,z
_cell_length_a 14.526000
_cell_length_b 6.516700
_cell_length_c 23.570000
_cell_angle_alpha 90.000000
_cell_angle_beta 104.770000
_cell_angle_gamma 90.000000
_cell_volume 2157.448921
loop_
_atom_site_label
_atom_site_type_symbol
_atom_site_fract_x
_atom_site_fract_y
_atom_site_fract_z
C1 C 0.364790 0.490800 0.493670
C2 C 0.406300 0.670200 0.521950
H3 H 0.398200 0.796000 0.502700
C4 C 0.458770 0.653900 0.578560
C5 C 0.546400 0.716100 0.669370
H6 H 0.517600 0.773800 0.698700
H7 H 0.614400 0.741600 0.681400
C8 C 0.471750 0.471600 0.608320
C9 C 0.433660 0.294800 0.582860
H10 H 0.442800 0.170800 0.603000
C11 C 0.380330 0.307700 0.525150
H12 H 0.353600 0.188000 0.506500
C13 C 0.306640 0.478900 0.433130
H14 H 0.289400 0.345700 0.420700
C15 C 0.273230 0.621100 0.392040
C16 C 0.289700 0.847000 0.398120
H17 H 0.258100 0.913800 0.362100
H18 H 0.356800 0.874400 0.406700
H19 H 0.264900 0.898100 0.429400
C20 C 0.212310 0.554800 0.334890
C21 C 0.146800 0.273400 0.273100
H22 H 0.151100 0.126500 0.272600
H23 H 0.165400 0.329000 0.240000
H24 H 0.082400 0.313000 0.271100
O25 O 0.506610 0.807800 0.614030
O26 O 0.528480 0.500400 0.663930
O27 O 0.167750 0.670300 0.298280
O28 O 0.209350 0.351900 0.326830
C29 C 0.864790 -0.009200 0.493670
C30 C 0.906300 0.170200 0.521950
H31 H 0.898200 0.296000 0.502700
C32 C 0.958770 0.153900 0.578560
C33 C 1.046400 0.216100 0.669370
H34 H 1.017600 0.273800 0.698700
H35 H 1.114400 0.241600 0.681400
C36 C 0.971750 -0.028400 0.608320
C37 C 0.933660 -0.205200 0.582860
H38 H 0.942800 -0.329200 0.603000
C39 C 0.880330 -0.192300 0.525150
H40 H 0.853600 -0.312000 0.506500
C41 C 0.806640 -0.021100 0.433130
H42 H 0.789400 -0.154300 0.420700
C43 C 0.773230 0.121100 0.392040
C44 C 0.789700 0.347000 0.398120
H45 H 0.758100 0.413800 0.362100
H46 H 0.856800 0.374400 0.406700
H47 H 0.764900 0.398100 0.429400
C48 C 0.712310 0.054800 0.334890
C49 C 0.646800 -0.226600 0.273100
H50 H 0.651100 -0.373500 0.272600
H51 H 0.665400 -0.171000 0.240000
H52 H 0.582400 -0.187000 0.271100
O53 O 1.006610 0.307800 0.614030
O54 O 1.028480 0.000400 0.663930
O55 O 0.667750 0.170300 0.298280
O56 O 0.709350 -0.148100 0.326830
C57 C 0.364790 0.509200 0.993670
C58 C 0.406300 0.329800 1.021950
H59 H 0.398200 0.204000 1.002700
C60 C 0.458770 0.346100 1.078560
C61 C 0.546400 0.283900 1.169370
H62 H 0.517600 0.226200 1.198700
H63 H 0.614400 0.258400 1.181400
C64 C 0.471750 0.528400 1.108320
C65 C 0.433660 0.705200 1.082860
H66 H 0.442800 0.829200 1.103000
C67 C 0.380330 0.692300 1.025150
H68 H 0.353600 0.812000 1.006500
C69 C 0.306640 0.521100 0.933130
H70 H 0.289400 0.654300 0.920700
C71 C 0.273230 0.378900 0.892040
C72 C 0.289700 0.153000 0.898120
H73 H 0.258100 0.086200 0.862100
H74 H 0.356800 0.125600 0.906700
H75 H 0.264900 0.101900 0.929400
C76 C 0.212310 0.445200 0.834890
C77 C 0.146800 0.726600 0.773100
H78 H 0.151100 0.873500 0.772600
H79 H 0.165400 0.671000 0.740000
H80 H 0.082400 0.687000 0.771100
O81 O 0.506610 0.192200 1.114030
O82 O 0.528480 0.499600 1.163930
O83 O 0.167750 0.329700 0.798280
O84 O 0.209350 0.648100 0.826830
C85 C 0.864790 1.009200 0.993670
C86 C 0.906300 0.829800 1.021950
H87 H 0.898200 0.704000 1.002700
C88 C 0.958770 0.846100 1.078560
C89 C 1.046400 0.783900 1.169370
H90 H 1.017600 0.726200 1.198700
H91 H 1.114400 0.758400 1.181400
C92 C 0.971750 1.028400 1.108320
C93 C 0.933660 1.205200 1.082860
H94 H 0.942800 1.329200 1.103000
C95 C 0.880330 1.192300 1.025150
H96 H 0.853600 1.312000 1.006500
C97 C 0.806640 1.021100 0.933130
H98 H 0.789400 1.154300 0.920700
C99 C 0.773230 0.878900 0.892040
C100 C 0.789700 0.653000 0.898120
H101 H 0.758100 0.586200 0.862100
H102 H 0.856800 0.625600 0.906700
H103 H 0.764900 0.601900 0.929400
C104 C 0.712310 0.945200 0.834890
C105 C 0.646800 1.226600 0.773100
H106 H 0.651100 1.373500 0.772600
H107 H 0.665400 1.171000 0.740000
H108 H 0.582400 1.187000 0.771100
O109 O 1.006610 0.692200 1.114030
O110 O 1.028480 0.999600 1.163930
O111 O 0.667750 0.829700 0.798280
O112 O 0.709350 1.148100 0.826830
C113 C 0.635210 0.509200 0.506330
C114 C 0.593700 0.329800 0.478050
H115 H 0.601800 0.204000 0.497300
C116 C 0.541230 0.346100 0.421440
C117 C 0.453600 0.283900 0.330630
H118 H 0.482400 0.226200 0.301300
H119 H 0.385600 0.258400 0.318600
C120 C 0.528250 0.528400 0.391680
C121 C 0.566340 0.705200 0.417140
H122 H 0.557200 0.829200 0.397000
C123 C 0.619670 0.692300 0.474850
H124 H 0.646400 0.812000 0.493500
C125 C 0.693360 0.521100 0.566870
H126 H 0.710600 0.654300 0.579300
C127 C 0.726770 0.378900 0.607960
C128 C 0.710300 0.153000 0.601880
H129 H 0.741900 0.086200 0.637900
H130 H 0.643200 0.125600 0.593300
H131 H 0.735100 0.101900 0.570600
C132 C 0.787690 0.445200 0.665110
C133 C 0.853200 0.726600 0.726900
H134 H 0.848900 0.873500 0.727400
H135 H 0.834600 0.671000 0.760000
H136 H 0.917600 0.687000 0.728900
O137 O 0.493390 0.192200 0.385970
O138 O 0.471520 0.499600 0.336070
O139 O 0.832250 0.329700 0.701720
O140 O 0.790650 0.648100 0.673170
C141 C 0.135210 1.009200 0.506330
C142 C 0.093700 0.829800 0.478050
H143 H 0.101800 0.704000 0.497300
C144 C 0.041230 0.846100 0.421440
C145 C -0.046400 0.783900 0.330630
H146 H -0.017600 0.726200 0.301300
H147 H -0.114400 0.758400 0.318600
C148 C 0.028250 1.028400 0.391680
C149 C 0.066340 1.205200 0.417140
H150 H 0.057200 1.329200 0.397000
C151 C 0.119670 1.192300 0.474850
H152 H 0.146400 1.312000 0.493500
C153 C 0.193360 1.021100 0.566870
H154 H 0.210600 1.154300 0.579300
C155 C 0.226770 0.878900 0.607960
C156 C 0.210300 0.653000 0.601880
H157 H 0.241900 0.586200 0.637900
H158 H 0.143200 0.625600 0.593300
H159 H 0.235100 0.601900 0.570600
C160 C 0.287690 0.945200 0.665110
C161 C 0.353200 1.226600 0.726900
H162 H 0.348900 1.373500 0.727400
H163 H 0.334600 1.171000 0.760000
H164 H 0.417600 1.187000 0.728900
O165 O -0.006610 0.692200 0.385970
O166 O -0.028480 0.999600 0.336070
O167 O 0.332250 0.829700 0.701720
O168 O 0.290650 1.148100 0.673170
C169 C 0.635210 0.490800 0.006330
C170 C 0.593700 0.670200 -0.021950
H171 H 0.601800 0.796000 -0.002700
C172 C 0.541230 0.653900 -0.078560
C173 C 0.453600 0.716100 -0.169370
H174 H 0.482400 0.773800 -0.198700
H175 H 0.385600 0.741600 -0.181400
C176 C 0.528250 0.471600 -0.108320
C177 C 0.566340 0.294800 -0.082860
H178 H 0.557200 0.170800 -0.103000
C179 C 0.619670 0.307700 -0.025150
H180 H 0.646400 0.188000 -0.006500
C181 C 0.693360 0.478900 0.066870
H182 H 0.710600 0.345700 0.079300
C183 C 0.726770 0.621100 0.107960
C184 C 0.710300 0.847000 0.101880
H185 H 0.741900 0.913800 0.137900
H186 H 0.643200 0.874400 0.093300
H187 H 0.735100 0.898100 0.070600
C188 C 0.787690 0.554800 0.165110
C189 C 0.853200 0.273400 0.226900
H190 H 0.848900 0.126500 0.227400
H191 H 0.834600 0.329000 0.260000
H192 H 0.917600 0.313000 0.228900
O193 O 0.493390 0.807800 -0.114030
O194 O 0.471520 0.500400 -0.163930
O195 O 0.832250 0.670300 0.201720
O196 O 0.790650 0.351900 0.173170
C197 C 0.135210 -0.009200 0.006330
C198 C 0.093700 0.170200 -0.021950
H199 H 0.101800 0.296000 -0.002700
C200 C 0.041230 0.153900 -0.078560
C201 C -0.046400 0.216100 -0.169370
H202 H -0.017600 0.273800 -0.198700
H203 H -0.114400 0.241600 -0.181400
C204 C 0.028250 -0.028400 -0.108320
C205 C 0.066340 -0.205200 -0.082860
H206 H 0.057200 -0.329200 -0.103000
C207 C 0.119670 -0.192300 -0.025150
H208 H 0.146400 -0.312000 -0.006500
C209 C 0.193360 -0.021100 0.066870
H210 H 0.210600 -0.154300 0.079300
C211 C 0.226770 0.121100 0.107960
C212 C 0.210300 0.347000 0.101880
H213 H 0.241900 0.413800 0.137900
H214 H 0.143200 0.374400 0.093300
H215 H 0.235100 0.398100 0.070600
C216 C 0.287690 0.054800 0.165110
C217 C 0.353200 -0.226600 0.226900
H218 H 0.348900 -0.373500 0.227400
H219 H 0.334600 -0.171000 0.260000
H220 H 0.417600 -0.187000 0.228900
O221 O -0.006610 0.307800 -0.114030
O222 O -0.028480 0.000400 -0.163930
O223 O 0.332250 0.170300 0.201720
O224 O 0.290650 -0.148100 0.173170

#END
