./ABOMUB_from_xyz.cif_generated_by_CrystalShift
_symmetry_cell_setting triclinic
_symmetry_space_group_name_H-M 'P 1'
loop_
_symmetry_equiv_pos_site_id
_symmetry_equiv_pos_as_xyz
1 x,y,z
_cell_length_a 17.442000
_cell_length_b 23.297000
_cell_length_c 50.412000
_cell_angle_alpha 90.000000
_cell_angle_beta 110.230000
_cell_angle_gamma 90.000000
_cell_volume 19221.068252
loop_
_atom_site_label
_atom_site_type_symbol
_atom_site_fract_x
_atom_site_fract_y
_atom_site_fract_z
Mn1 Mn 0.737460 0.501620 0.747747
Pb2 Pb 0.760130 0.606330 0.793224
Pb3 Pb 0.605630 0.526580 0.779440
Pb4 Pb 0.718420 0.395920 0.702753
Pb5 Pb 0.871850 0.475290 0.716561
Pb6 Pb 0.779880 0.477250 0.811262
Pb7 Pb 0.625290 0.608770 0.733676
Pb8 Pb 0.850900 0.394940 0.762684
Pb9 Pb 0.697730 0.523980 0.684094
Pb10 Pb 0.905400 0.521510 0.782899
Pb11 Pb 0.807990 0.603870 0.733773
Pb12 Pb 0.666410 0.399100 0.761260
Pb13 Pb 0.570770 0.482920 0.712647
Mn14 Mn 0.262540 0.001620 0.752253
Pb15 Pb 0.239870 0.106330 0.706776
Pb16 Pb 0.394370 0.026580 0.720560
Pb17 Pb 0.281580 -0.104080 0.797247
Pb18 Pb 0.128150 -0.024710 0.783439
Pb19 Pb 0.220120 -0.022750 0.688738
Pb20 Pb 0.374710 0.108770 0.766324
Pb21 Pb 0.149100 -0.105060 0.737316
Pb22 Pb 0.302270 0.023980 0.815906
Pb23 Pb 0.094600 0.021510 0.717101
Pb24 Pb 0.192010 0.103870 0.766227
Pb25 Pb 0.333590 -0.100900 0.738740
Pb26 Pb 0.429230 -0.017080 0.787353
Mn27 Mn 0.262540 0.498380 0.252253
Pb28 Pb 0.239870 0.393670 0.206776
Pb29 Pb 0.394370 0.473420 0.220560
Pb30 Pb 0.281580 0.604080 0.297247
Pb31 Pb 0.128150 0.524710 0.283439
Pb32 Pb 0.220120 0.522750 0.188738
Pb33 Pb 0.374710 0.391230 0.266324
Pb34 Pb 0.149100 0.605060 0.237316
Pb35 Pb 0.302270 0.476020 0.315906
Pb36 Pb 0.094600 0.478490 0.217101
Pb37 Pb 0.192010 0.396130 0.266227
Pb38 Pb 0.333590 0.600900 0.238740
Pb39 Pb 0.429230 0.517080 0.287353
Mn40 Mn 0.737460 0.998380 0.247747
Pb41 Pb 0.760130 0.893670 0.293224
Pb42 Pb 0.605630 0.973420 0.279440
Pb43 Pb 0.718420 1.104080 0.202753
Pb44 Pb 0.871850 1.024710 0.216561
Pb45 Pb 0.779880 1.022750 0.311262
Pb46 Pb 0.625290 0.891230 0.233676
Pb47 Pb 0.850900 1.105060 0.262684
Pb48 Pb 0.697730 0.976020 0.184094
Pb49 Pb 0.905400 0.978490 0.282899
Pb50 Pb 0.807990 0.896130 0.233773
Pb51 Pb 0.666410 1.100900 0.261260
Pb52 Pb 0.570770 1.017080 0.212647
Mn53 Mn 0.000000 0.500000 0.500000
Pb54 Pb 0.043430 0.448510 0.447640
Pb55 Pb 0.081040 0.577130 0.462110
Pb56 Pb -0.103050 0.533290 0.441000
Pb57 Pb -0.117770 0.415600 0.469480
Pb58 Pb 0.062110 0.384330 0.507520
Pb59 Pb 0.184680 0.483080 0.502520
Pb60 Pb -0.043430 0.551490 0.552360
Pb61 Pb -0.081040 0.422870 0.537890
Pb62 Pb 0.103050 0.466710 0.559000
Pb63 Pb 0.117770 0.584400 0.530520
Pb64 Pb -0.062110 0.615670 0.492480
Pb65 Pb -0.184680 0.516920 0.497480
Mn66 Mn 1.000000 0.500000 0.500000
Pb67 Pb 1.043430 0.448510 0.447640
Pb68 Pb 1.081040 0.577130 0.462110
Pb69 Pb 0.896950 0.533290 0.441000
Pb70 Pb 0.882230 0.415600 0.469480
Pb71 Pb 1.062110 0.384330 0.507520
Pb72 Pb 1.184680 0.483080 0.502520
Pb73 Pb 0.956570 0.551490 0.552360
Pb74 Pb 0.918960 0.422870 0.537890
Pb75 Pb 1.103050 0.466710 0.559000
Pb76 Pb 1.117770 0.584400 0.530520
Pb77 Pb 0.937890 0.615670 0.492480
Pb78 Pb 0.815320 0.516920 0.497480
Mn79 Mn 0.000000 0.000000 0.000000
Pb80 Pb -0.043430 -0.051490 0.052360
Pb81 Pb -0.081040 0.077130 0.037890
Pb82 Pb 0.103050 0.033290 0.059000
Pb83 Pb 0.117770 -0.084400 0.030520
Pb84 Pb -0.062110 -0.115670 -0.007520
Pb85 Pb -0.184680 -0.016920 -0.002520
Pb86 Pb 0.043430 0.051490 -0.052360
Pb87 Pb 0.081040 -0.077130 -0.037890
Pb88 Pb -0.103050 -0.033290 -0.059000
Pb89 Pb -0.117770 0.084400 -0.030520
Pb90 Pb 0.062110 0.115670 0.007520
Pb91 Pb 0.184680 0.016920 0.002520
Mn92 Mn 0.000000 0.000000 1.000000
Pb93 Pb -0.043430 -0.051490 1.052360
Pb94 Pb -0.081040 0.077130 1.037890
Pb95 Pb 0.103050 0.033290 1.059000
Pb96 Pb 0.117770 -0.084400 1.030520
Pb97 Pb -0.062110 -0.115670 0.992480
Pb98 Pb -0.184680 -0.016920 0.997480
Pb99 Pb 0.043430 0.051490 0.947640
Pb100 Pb 0.081040 -0.077130 0.962110
Pb101 Pb -0.103050 -0.033290 0.941000
Pb102 Pb -0.117770 0.084400 0.969480
Pb103 Pb 0.062110 0.115670 1.007520
Pb104 Pb 0.184680 0.016920 1.002520
Mn105 Mn 0.000000 1.000000 0.000000
Pb106 Pb -0.043430 0.948510 0.052360
Pb107 Pb -0.081040 1.077130 0.037890
Pb108 Pb 0.103050 1.033290 0.059000
Pb109 Pb 0.117770 0.915600 0.030520
Pb110 Pb -0.062110 0.884330 -0.007520
Pb111 Pb -0.184680 0.983080 -0.002520
Pb112 Pb 0.043430 1.051490 -0.052360
Pb113 Pb 0.081040 0.922870 -0.037890
Pb114 Pb -0.103050 0.966710 -0.059000
Pb115 Pb -0.117770 1.084400 -0.030520
Pb116 Pb 0.062110 1.115670 0.007520
Pb117 Pb 0.184680 1.016920 0.002520
Mn118 Mn 0.000000 1.000000 1.000000
Pb119 Pb -0.043430 0.948510 1.052360
Pb120 Pb -0.081040 1.077130 1.037890
Pb121 Pb 0.103050 1.033290 1.059000
Pb122 Pb 0.117770 0.915600 1.030520
Pb123 Pb -0.062110 0.884330 0.992480
Pb124 Pb -0.184680 0.983080 0.997480
Pb125 Pb 0.043430 1.051490 0.947640
Pb126 Pb 0.081040 0.922870 0.962110
Pb127 Pb -0.103050 0.966710 0.941000
Pb128 Pb -0.117770 1.084400 0.969480
Pb129 Pb 0.062110 1.115670 1.007520
Pb130 Pb 0.184680 1.016920 1.002520
Mn131 Mn 1.000000 0.000000 0.000000
Pb132 Pb 0.956570 -0.051490 0.052360
Pb133 Pb 0.918960 0.077130 0.037890
Pb134 Pb 1.103050 0.033290 0.059000
Pb135 Pb 1.117770 -0.084400 0.030520
Pb136 Pb 0.937890 -0.115670 -0.007520
Pb137 Pb 0.815320 -0.016920 -0.002520
Pb138 Pb 1.043430 0.051490 -0.052360
Pb139 Pb 1.081040 -0.077130 -0.037890
Pb140 Pb 0.896950 -0.033290 -0.059000
Pb141 Pb 0.882230 0.084400 -0.030520
Pb142 Pb 1.062110 0.115670 0.007520
Pb143 Pb 1.184680 0.016920 0.002520
Mn144 Mn 1.000000 0.000000 1.000000
Pb145 Pb 0.956570 -0.051490 1.052360
Pb146 Pb 0.918960 0.077130 1.037890
Pb147 Pb 1.103050 0.033290 1.059000
Pb148 Pb 1.117770 -0.084400 1.030520
Pb149 Pb 0.937890 -0.115670 0.992480
Pb150 Pb 0.815320 -0.016920 0.997480
Pb151 Pb 1.043430 0.051490 0.947640
Pb152 Pb 1.081040 -0.077130 0.962110
Pb153 Pb 0.896950 -0.033290 0.941000
Pb154 Pb 0.882230 0.084400 0.969480
Pb155 Pb 1.062110 0.115670 1.007520
Pb156 Pb 1.184680 0.016920 1.002520
Mn157 Mn 1.000000 1.000000 0.000000
Pb158 Pb 0.956570 0.948510 0.052360
Pb159 Pb 0.918960 1.077130 0.037890
Pb160 Pb 1.103050 1.033290 0.059000
Pb161 Pb 1.117770 0.915600 0.030520
Pb162 Pb 0.937890 0.884330 -0.007520
Pb163 Pb 0.815320 0.983080 -0.002520
Pb164 Pb 1.043430 1.051490 -0.052360
Pb165 Pb 1.081040 0.922870 -0.037890
Pb166 Pb 0.896950 0.966710 -0.059000
Pb167 Pb 0.882230 1.084400 -0.030520
Pb168 Pb 1.062110 1.115670 0.007520
Pb169 Pb 1.184680 1.016920 0.002520
Mn170 Mn 1.000000 1.000000 1.000000
Pb171 Pb 0.956570 0.948510 1.052360
Pb172 Pb 0.918960 1.077130 1.037890
Pb173 Pb 1.103050 1.033290 1.059000
Pb174 Pb 1.117770 0.915600 1.030520
Pb175 Pb 0.937890 0.884330 0.992480
Pb176 Pb 0.815320 0.983080 0.997480
Pb177 Pb 1.043430 1.051490 0.947640
Pb178 Pb 1.081040 0.922870 0.962110
Pb179 Pb 0.896950 0.966710 0.941000
Pb180 Pb 0.882230 1.084400 0.969480
Pb181 Pb 1.062110 1.115670 1.007520
Pb182 Pb 1.184680 1.016920 1.002520
Mn183 Mn 0.500000 0.500000 0.000000
Pb184 Pb 0.312460 0.524870 -0.004462
Pb185 Pb 0.416830 0.432120 0.037852
Pb186 Pb 0.474350 0.560020 0.049022
Pb187 Pb 0.549710 0.381610 0.010000
Pb188 Pb 0.617720 0.469980 0.058164
Pb189 Pb 0.641310 0.585780 0.029440
Pb190 Pb 0.687540 0.475130 0.004462
Pb191 Pb 0.583170 0.567880 -0.037852
Pb192 Pb 0.525650 0.439980 -0.049022
Pb193 Pb 0.450290 0.618390 -0.010000
Pb194 Pb 0.382280 0.530020 -0.058164
Pb195 Pb 0.358690 0.414220 -0.029440
Mn196 Mn 0.500000 0.500000 1.000000
Pb197 Pb 0.312460 0.524870 0.995538
Pb198 Pb 0.416830 0.432120 1.037852
Pb199 Pb 0.474350 0.560020 1.049022
Pb200 Pb 0.549710 0.381610 1.010000
Pb201 Pb 0.617720 0.469980 1.058164
Pb202 Pb 0.641310 0.585780 1.029440
Pb203 Pb 0.687540 0.475130 1.004462
Pb204 Pb 0.583170 0.567880 0.962148
Pb205 Pb 0.525650 0.439980 0.950978
Pb206 Pb 0.450290 0.618390 0.990000
Pb207 Pb 0.382280 0.530020 0.941836
Pb208 Pb 0.358690 0.414220 0.970560
Mn209 Mn 0.500000 0.000000 0.500000
Pb210 Pb 0.687540 0.024870 0.504462
Pb211 Pb 0.583170 -0.067880 0.462148
Pb212 Pb 0.525650 0.060020 0.450978
Pb213 Pb 0.450290 -0.118390 0.490000
Pb214 Pb 0.382280 -0.030020 0.441836
Pb215 Pb 0.358690 0.085780 0.470560
Pb216 Pb 0.312460 -0.024870 0.495538
Pb217 Pb 0.416830 0.067880 0.537852
Pb218 Pb 0.474350 -0.060020 0.549022
Pb219 Pb 0.549710 0.118390 0.510000
Pb220 Pb 0.617720 0.030020 0.558164
Pb221 Pb 0.641310 -0.085780 0.529440
Mn222 Mn 0.500000 1.000000 0.500000
Pb223 Pb 0.687540 1.024870 0.504462
Pb224 Pb 0.583170 0.932120 0.462148
Pb225 Pb 0.525650 1.060020 0.450978
Pb226 Pb 0.450290 0.881610 0.490000
Pb227 Pb 0.382280 0.969980 0.441836
Pb228 Pb 0.358690 1.085780 0.470560
Pb229 Pb 0.312460 0.975130 0.495538
Pb230 Pb 0.416830 1.067880 0.537852
Pb231 Pb 0.474350 0.939980 0.549022
Pb232 Pb 0.549710 1.118390 0.510000
Pb233 Pb 0.617720 1.030020 0.558164
Pb234 Pb 0.641310 0.914220 0.529440
K235 K 0.582240 0.633550 0.586780
N236 N 0.452010 0.554540 0.593910
N237 N 0.709300 0.709850 0.577290
O238 O 0.563270 0.630980 0.638360
O239 O 0.670290 0.714990 0.629090
O240 O 0.412890 0.653250 0.556800
O241 O 0.533600 0.712970 0.542220
O242 O 0.584050 0.513810 0.576990
O243 O 0.714850 0.582580 0.575580
C244 C 0.468900 0.552140 0.624160
C245 C 0.491990 0.605730 0.640840
C246 C 0.590150 0.677080 0.655270
C247 C 0.674460 0.697040 0.657740
C248 C 0.745880 0.728090 0.630180
C249 C 0.737270 0.750450 0.599490
C250 C 0.368120 0.578010 0.580340
C251 C 0.359700 0.603820 0.552680
C252 C 0.393960 0.685620 0.530690
C253 C 0.449060 0.732820 0.536580
C254 C 0.591190 0.758560 0.544780
C255 C 0.669940 0.739020 0.549690
C256 C 0.457000 0.497230 0.582160
C257 C 0.541430 0.477160 0.590420
C258 C 0.664330 0.491690 0.580550
C259 C 0.701560 0.529870 0.563520
C260 C 0.755800 0.615200 0.563560
C261 C 0.776090 0.672190 0.577540
H262 H 0.419900 0.537300 0.626700
H263 H 0.513500 0.525300 0.632100
H264 H 0.502100 0.597900 0.660700
H265 H 0.447400 0.633100 0.633900
H266 H 0.591700 0.666600 0.674100
H267 H 0.551500 0.708300 0.648100
H268 H 0.689900 0.729400 0.670600
H269 H 0.714300 0.666500 0.664600
H270 H 0.791300 0.762900 0.600400
H271 H 0.700100 0.782900 0.594900
H272 H 0.359400 0.608000 0.592300
H273 H 0.328100 0.547900 0.578100
H274 H 0.303500 0.615900 0.543200
H275 H 0.374500 0.575700 0.541100
H276 H 0.338400 0.700000 0.525000
H277 H 0.400200 0.662100 0.515700
H278 H 0.447700 0.752900 0.553300
H279 H 0.433200 0.758800 0.520600
H280 H 0.426100 0.470400 0.589200
H281 H 0.432800 0.499600 0.561700
H282 H 0.568400 0.477400 0.610800
H283 H 0.540300 0.438300 0.583400
H284 H 0.697400 0.492300 0.600500
H285 H 0.660400 0.452700 0.573500
H286 H 0.753100 0.514000 0.563700
H287 H 0.664500 0.533200 0.544200
H288 H 0.805700 0.595900 0.564200
H289 H 0.721600 0.621800 0.544000
H290 H 0.808000 0.664500 0.597200
H291 H 0.809300 0.693000 0.568800
H292 H 0.768700 0.757800 0.644200
H293 H 0.780500 0.694300 0.634900
H294 H 0.591300 0.782500 0.560600
H295 H 0.574000 0.781200 0.527600
H296 H 0.703300 0.771600 0.548700
H297 H 0.667800 0.711900 0.534900
K298 K 0.417760 0.133550 0.913220
N299 N 0.547990 0.054540 0.906090
N300 N 0.290700 0.209850 0.922710
O301 O 0.436730 0.130980 0.861640
O302 O 0.329710 0.214990 0.870910
O303 O 0.587110 0.153250 0.943200
O304 O 0.466400 0.212970 0.957780
O305 O 0.415950 0.013810 0.923010
O306 O 0.285150 0.082580 0.924420
C307 C 0.531100 0.052140 0.875840
C308 C 0.508010 0.105730 0.859160
C309 C 0.409850 0.177080 0.844730
C310 C 0.325540 0.197040 0.842260
C311 C 0.254120 0.228090 0.869820
C312 C 0.262730 0.250450 0.900510
C313 C 0.631880 0.078010 0.919660
C314 C 0.640300 0.103820 0.947320
C315 C 0.606040 0.185620 0.969310
C316 C 0.550940 0.232820 0.963420
C317 C 0.408810 0.258560 0.955220
C318 C 0.330060 0.239020 0.950310
C319 C 0.543000 -0.002770 0.917840
C320 C 0.458570 -0.022840 0.909580
C321 C 0.335670 -0.008310 0.919450
C322 C 0.298440 0.029870 0.936480
C323 C 0.244200 0.115200 0.936440
C324 C 0.223910 0.172190 0.922460
H325 H 0.580100 0.037300 0.873300
H326 H 0.486500 0.025300 0.867900
H327 H 0.497900 0.097900 0.839300
H328 H 0.552600 0.133100 0.866100
H329 H 0.408300 0.166600 0.825900
H330 H 0.448500 0.208300 0.851900
H331 H 0.310100 0.229400 0.829400
H332 H 0.285700 0.166500 0.835400
H333 H 0.208700 0.262900 0.899600
H334 H 0.299900 0.282900 0.905100
H335 H 0.640600 0.108000 0.907700
H336 H 0.671900 0.047900 0.921900
H337 H 0.696500 0.115900 0.956800
H338 H 0.625500 0.075700 0.958900
H339 H 0.661600 0.200000 0.975000
H340 H 0.599800 0.162100 0.984300
H341 H 0.552300 0.252900 0.946700
H342 H 0.566800 0.258800 0.979400
H343 H 0.573900 -0.029600 0.910800
H344 H 0.567200 -0.000400 0.938300
H345 H 0.431600 -0.022600 0.889200
H346 H 0.459700 -0.061700 0.916600
H347 H 0.302600 -0.007700 0.899500
H348 H 0.339600 -0.047300 0.926500
H349 H 0.246900 0.014000 0.936300
H350 H 0.335500 0.033200 0.955800
H351 H 0.194300 0.095900 0.935800
H352 H 0.278400 0.121800 0.956000
H353 H 0.192000 0.164500 0.902800
H354 H 0.190700 0.193000 0.931200
H355 H 0.231300 0.257800 0.855800
H356 H 0.219500 0.194300 0.865100
H357 H 0.408700 0.282500 0.939400
H358 H 0.426000 0.281200 0.972400
H359 H 0.296700 0.271600 0.951300
H360 H 0.332200 0.211900 0.965100
K361 K 0.417760 0.366450 0.413220
N362 N 0.547990 0.445460 0.406090
N363 N 0.290700 0.290150 0.422710
O364 O 0.436730 0.369020 0.361640
O365 O 0.329710 0.285010 0.370910
O366 O 0.587110 0.346750 0.443200
O367 O 0.466400 0.287030 0.457780
O368 O 0.415950 0.486190 0.423010
O369 O 0.285150 0.417420 0.424420
C370 C 0.531100 0.447860 0.375840
C371 C 0.508010 0.394270 0.359160
C372 C 0.409850 0.322920 0.344730
C373 C 0.325540 0.302960 0.342260
C374 C 0.254120 0.271910 0.369820
C375 C 0.262730 0.249550 0.400510
C376 C 0.631880 0.421990 0.419660
C377 C 0.640300 0.396180 0.447320
C378 C 0.606040 0.314380 0.469310
C379 C 0.550940 0.267180 0.463420
C380 C 0.408810 0.241440 0.455220
C381 C 0.330060 0.260980 0.450310
C382 C 0.543000 0.502770 0.417840
C383 C 0.458570 0.522840 0.409580
C384 C 0.335670 0.508310 0.419450
C385 C 0.298440 0.470130 0.436480
C386 C 0.244200 0.384800 0.436440
C387 C 0.223910 0.327810 0.422460
H388 H 0.580100 0.462700 0.373300
H389 H 0.486500 0.474700 0.367900
H390 H 0.497900 0.402100 0.339300
H391 H 0.552600 0.366900 0.366100
H392 H 0.408300 0.333400 0.325900
H393 H 0.448500 0.291700 0.351900
H394 H 0.310100 0.270600 0.329400
H395 H 0.285700 0.333500 0.335400
H396 H 0.208700 0.237100 0.399600
H397 H 0.299900 0.217100 0.405100
H398 H 0.640600 0.392000 0.407700
H399 H 0.671900 0.452100 0.421900
H400 H 0.696500 0.384100 0.456800
H401 H 0.625500 0.424300 0.458900
H402 H 0.661600 0.300000 0.475000
H403 H 0.599800 0.337900 0.484300
H404 H 0.552300 0.247100 0.446700
H405 H 0.566800 0.241200 0.479400
H406 H 0.573900 0.529600 0.410800
H407 H 0.567200 0.500400 0.438300
H408 H 0.431600 0.522600 0.389200
H409 H 0.459700 0.561700 0.416600
H410 H 0.302600 0.507700 0.399500
H411 H 0.339600 0.547300 0.426500
H412 H 0.246900 0.486000 0.436300
H413 H 0.335500 0.466800 0.455800
H414 H 0.194300 0.404100 0.435800
H415 H 0.278400 0.378200 0.456000
H416 H 0.192000 0.335500 0.402800
H417 H 0.190700 0.307000 0.431200
H418 H 0.231300 0.242200 0.355800
H419 H 0.219500 0.305700 0.365100
H420 H 0.408700 0.217500 0.439400
H421 H 0.426000 0.218800 0.472400
H422 H 0.296700 0.228400 0.451300
H423 H 0.332200 0.288100 0.465100
K424 K 0.582240 0.866450 0.086780
N425 N 0.452010 0.945460 0.093910
N426 N 0.709300 0.790150 0.077290
O427 O 0.563270 0.869020 0.138360
O428 O 0.670290 0.785010 0.129090
O429 O 0.412890 0.846750 0.056800
O430 O 0.533600 0.787030 0.042220
O431 O 0.584050 0.986190 0.076990
O432 O 0.714850 0.917420 0.075580
C433 C 0.468900 0.947860 0.124160
C434 C 0.491990 0.894270 0.140840
C435 C 0.590150 0.822920 0.155270
C436 C 0.674460 0.802960 0.157740
C437 C 0.745880 0.771910 0.130180
C438 C 0.737270 0.749550 0.099490
C439 C 0.368120 0.921990 0.080340
C440 C 0.359700 0.896180 0.052680
C441 C 0.393960 0.814380 0.030690
C442 C 0.449060 0.767180 0.036580
C443 C 0.591190 0.741440 0.044780
C444 C 0.669940 0.760980 0.049690
C445 C 0.457000 1.002770 0.082160
C446 C 0.541430 1.022840 0.090420
C447 C 0.664330 1.008310 0.080550
C448 C 0.701560 0.970130 0.063520
C449 C 0.755800 0.884800 0.063560
C450 C 0.776090 0.827810 0.077540
H451 H 0.419900 0.962700 0.126700
H452 H 0.513500 0.974700 0.132100
H453 H 0.502100 0.902100 0.160700
H454 H 0.447400 0.866900 0.133900
H455 H 0.591700 0.833400 0.174100
H456 H 0.551500 0.791700 0.148100
H457 H 0.689900 0.770600 0.170600
H458 H 0.714300 0.833500 0.164600
H459 H 0.791300 0.737100 0.100400
H460 H 0.700100 0.717100 0.094900
H461 H 0.359400 0.892000 0.092300
H462 H 0.328100 0.952100 0.078100
H463 H 0.303500 0.884100 0.043200
H464 H 0.374500 0.924300 0.041100
H465 H 0.338400 0.800000 0.025000
H466 H 0.400200 0.837900 0.015700
H467 H 0.447700 0.747100 0.053300
H468 H 0.433200 0.741200 0.020600
H469 H 0.426100 1.029600 0.089200
H470 H 0.432800 1.000400 0.061700
H471 H 0.568400 1.022600 0.110800
H472 H 0.540300 1.061700 0.083400
H473 H 0.697400 1.007700 0.100500
H474 H 0.660400 1.047300 0.073500
H475 H 0.753100 0.986000 0.063700
H476 H 0.664500 0.966800 0.044200
H477 H 0.805700 0.904100 0.064200
H478 H 0.721600 0.878200 0.044000
H479 H 0.808000 0.835500 0.097200
H480 H 0.809300 0.807000 0.068800
H481 H 0.768700 0.742200 0.144200
H482 H 0.780500 0.805700 0.134900
H483 H 0.591300 0.717500 0.060600
H484 H 0.574000 0.718800 0.027600
H485 H 0.703300 0.728400 0.048700
H486 H 0.667800 0.788100 0.034900
K487 K 0.577480 0.751540 0.891420
N488 N 0.493230 0.722800 0.829710
N489 N 0.664530 0.780660 0.952640
O490 O 0.581100 0.832520 0.849520
O491 O 0.637120 0.864490 0.907010
O492 O 0.635000 0.659730 0.867230
O493 O 0.729710 0.698060 0.922260
O494 O 0.408180 0.721520 0.871610
O495 O 0.496100 0.734200 0.929720
C496 C 0.511540 0.767060 0.812370
C497 C 0.512870 0.827500 0.823060
C498 C 0.590080 0.891190 0.858250
C499 C 0.659680 0.892180 0.885690
C500 C 0.695770 0.870670 0.935350
C501 C 0.666110 0.844530 0.955690
C502 C 0.524130 0.666230 0.824100
C503 C 0.611690 0.656460 0.837380
C504 C 0.720690 0.648620 0.881970
C505 C 0.739540 0.646430 0.911190
C506 C 0.749870 0.696360 0.951820
C507 C 0.747400 0.755280 0.962010
C508 C 0.404130 0.721410 0.823770
C509 C 0.380990 0.689310 0.845530
C510 C 0.385440 0.693540 0.893160
C511 C 0.411120 0.730660 0.918460
C512 C 0.525230 0.766650 0.956590
C513 C 0.609930 0.758580 0.967920
H514 H 0.564700 0.758600 0.811200
H515 H 0.470200 0.765200 0.793700
H516 H 0.461800 0.836400 0.825800
H517 H 0.521200 0.854000 0.809500
H518 H 0.540400 0.905100 0.860600
H519 H 0.602300 0.914500 0.844300
H520 H 0.674200 0.931700 0.891100
H521 H 0.706200 0.872500 0.883600
H522 H 0.706000 0.911200 0.939500
H523 H 0.746100 0.851800 0.936100
H524 H 0.702900 0.854900 0.974400
H525 H 0.611700 0.858800 0.953100
H526 H 0.495800 0.636300 0.830500
H527 H 0.511500 0.662700 0.803900
H528 H 0.641000 0.686100 0.831300
H529 H 0.626100 0.619200 0.832000
H530 H 0.804300 0.680400 0.960700
H531 H 0.710300 0.672900 0.956500
H532 H 0.767600 0.754200 0.982500
H533 H 0.782200 0.779900 0.955500
H534 H 0.384800 0.760600 0.823200
H535 H 0.377600 0.703300 0.805500
H536 H 0.322100 0.684700 0.839200
H537 H 0.406900 0.651900 0.848600
H538 H 0.411800 0.656300 0.897600
H539 H 0.326600 0.688600 0.886500
H540 H 0.391400 0.715000 0.932700
H541 H 0.389100 0.768900 0.913400
H542 H 0.498100 0.752900 0.969200
H543 H 0.513600 0.807200 0.952800
H544 H 0.627700 0.777500 0.986100
H545 H 0.618900 0.717600 0.970600
H546 H 0.752000 0.679100 0.877400
H547 H 0.735000 0.612100 0.875600
H548 H 0.796600 0.635700 0.919900
H549 H 0.705400 0.618000 0.915800
K550 K 0.422520 0.251540 0.608580
N551 N 0.506770 0.222800 0.670290
N552 N 0.335470 0.280660 0.547360
O553 O 0.418900 0.332520 0.650480
O554 O 0.362880 0.364490 0.592990
O555 O 0.365000 0.159730 0.632770
O556 O 0.270290 0.198060 0.577740
O557 O 0.591820 0.221520 0.628390
O558 O 0.503900 0.234200 0.570280
C559 C 0.488460 0.267060 0.687630
C560 C 0.487130 0.327500 0.676940
C561 C 0.409920 0.391190 0.641750
C562 C 0.340320 0.392180 0.614310
C563 C 0.304230 0.370670 0.564650
C564 C 0.333890 0.344530 0.544310
C565 C 0.475870 0.166230 0.675900
C566 C 0.388310 0.156460 0.662620
C567 C 0.279310 0.148620 0.618030
C568 C 0.260460 0.146430 0.588810
C569 C 0.250130 0.196360 0.548180
C570 C 0.252600 0.255280 0.537990
C571 C 0.595870 0.221410 0.676230
C572 C 0.619010 0.189310 0.654470
C573 C 0.614560 0.193540 0.606840
C574 C 0.588880 0.230660 0.581540
C575 C 0.474770 0.266650 0.543410
C576 C 0.390070 0.258580 0.532080
H577 H 0.435300 0.258600 0.688800
H578 H 0.529800 0.265200 0.706300
H579 H 0.538200 0.336400 0.674200
H580 H 0.478800 0.354000 0.690500
H581 H 0.459600 0.405100 0.639400
H582 H 0.397700 0.414500 0.655700
H583 H 0.325800 0.431700 0.608900
H584 H 0.293800 0.372500 0.616400
H585 H 0.294000 0.411200 0.560500
H586 H 0.253900 0.351800 0.563900
H587 H 0.297100 0.354900 0.525600
H588 H 0.388300 0.358800 0.546900
H589 H 0.504200 0.136300 0.669500
H590 H 0.488500 0.162700 0.696100
H591 H 0.359000 0.186100 0.668700
H592 H 0.373900 0.119200 0.668000
H593 H 0.195700 0.180400 0.539300
H594 H 0.289700 0.172900 0.543500
H595 H 0.232400 0.254200 0.517500
H596 H 0.217800 0.279900 0.544500
H597 H 0.615200 0.260600 0.676800
H598 H 0.622400 0.203300 0.694500
H599 H 0.677900 0.184700 0.660800
H600 H 0.593100 0.151900 0.651400
H601 H 0.588200 0.156300 0.602400
H602 H 0.673400 0.188600 0.613500
H603 H 0.608600 0.215000 0.567300
H604 H 0.610900 0.268900 0.586600
H605 H 0.501900 0.252900 0.530800
H606 H 0.486400 0.307200 0.547200
H607 H 0.372300 0.277500 0.513900
H608 H 0.381100 0.217600 0.529400
H609 H 0.248000 0.179100 0.622600
H610 H 0.265000 0.112100 0.624400
H611 H 0.203400 0.135700 0.580100
H612 H 0.294600 0.118000 0.584200
K613 K 0.422520 0.248460 0.108580
N614 N 0.506770 0.277200 0.170290
N615 N 0.335470 0.219340 0.047360
O616 O 0.418900 0.167480 0.150480
O617 O 0.362880 0.135510 0.092990
O618 O 0.365000 0.340270 0.132770
O619 O 0.270290 0.301940 0.077740
O620 O 0.591820 0.278480 0.128390
O621 O 0.503900 0.265800 0.070280
C622 C 0.488460 0.232940 0.187630
C623 C 0.487130 0.172500 0.176940
C624 C 0.409920 0.108810 0.141750
C625 C 0.340320 0.107820 0.114310
C626 C 0.304230 0.129330 0.064650
C627 C 0.333890 0.155470 0.044310
C628 C 0.475870 0.333770 0.175900
C629 C 0.388310 0.343540 0.162620
C630 C 0.279310 0.351380 0.118030
C631 C 0.260460 0.353570 0.088810
C632 C 0.250130 0.303640 0.048180
C633 C 0.252600 0.244720 0.037990
C634 C 0.595870 0.278590 0.176230
C635 C 0.619010 0.310690 0.154470
C636 C 0.614560 0.306460 0.106840
C637 C 0.588880 0.269340 0.081540
C638 C 0.474770 0.233350 0.043410
C639 C 0.390070 0.241420 0.032080
H640 H 0.435300 0.241400 0.188800
H641 H 0.529800 0.234800 0.206300
H642 H 0.538200 0.163600 0.174200
H643 H 0.478800 0.146000 0.190500
H644 H 0.459600 0.094900 0.139400
H645 H 0.397700 0.085500 0.155700
H646 H 0.325800 0.068300 0.108900
H647 H 0.293800 0.127500 0.116400
H648 H 0.294000 0.088800 0.060500
H649 H 0.253900 0.148200 0.063900
H650 H 0.297100 0.145100 0.025600
H651 H 0.388300 0.141200 0.046900
H652 H 0.504200 0.363700 0.169500
H653 H 0.488500 0.337300 0.196100
H654 H 0.359000 0.313900 0.168700
H655 H 0.373900 0.380800 0.168000
H656 H 0.195700 0.319600 0.039300
H657 H 0.289700 0.327100 0.043500
H658 H 0.232400 0.245800 0.017500
H659 H 0.217800 0.220100 0.044500
H660 H 0.615200 0.239400 0.176800
H661 H 0.622400 0.296700 0.194500
H662 H 0.677900 0.315300 0.160800
H663 H 0.593100 0.348100 0.151400
H664 H 0.588200 0.343700 0.102400
H665 H 0.673400 0.311400 0.113500
H666 H 0.608600 0.285000 0.067300
H667 H 0.610900 0.231100 0.086600
H668 H 0.501900 0.247100 0.030800
H669 H 0.486400 0.192800 0.047200
H670 H 0.372300 0.222500 0.013900
H671 H 0.381100 0.282400 0.029400
H672 H 0.248000 0.320900 0.122600
H673 H 0.265000 0.387900 0.124400
H674 H 0.203400 0.364300 0.080100
H675 H 0.294600 0.382000 0.084200
K676 K 0.577480 0.748460 0.391420
N677 N 0.493230 0.777200 0.329710
N678 N 0.664530 0.719340 0.452640
O679 O 0.581100 0.667480 0.349520
O680 O 0.637120 0.635510 0.407010
O681 O 0.635000 0.840270 0.367230
O682 O 0.729710 0.801940 0.422260
O683 O 0.408180 0.778480 0.371610
O684 O 0.496100 0.765800 0.429720
C685 C 0.511540 0.732940 0.312370
C686 C 0.512870 0.672500 0.323060
C687 C 0.590080 0.608810 0.358250
C688 C 0.659680 0.607820 0.385690
C689 C 0.695770 0.629330 0.435350
C690 C 0.666110 0.655470 0.455690
C691 C 0.524130 0.833770 0.324100
C692 C 0.611690 0.843540 0.337380
C693 C 0.720690 0.851380 0.381970
C694 C 0.739540 0.853570 0.411190
C695 C 0.749870 0.803640 0.451820
C696 C 0.747400 0.744720 0.462010
C697 C 0.404130 0.778590 0.323770
C698 C 0.380990 0.810690 0.345530
C699 C 0.385440 0.806460 0.393160
C700 C 0.411120 0.769340 0.418460
C701 C 0.525230 0.733350 0.456590
C702 C 0.609930 0.741420 0.467920
H703 H 0.564700 0.741400 0.311200
H704 H 0.470200 0.734800 0.293700
H705 H 0.461800 0.663600 0.325800
H706 H 0.521200 0.646000 0.309500
H707 H 0.540400 0.594900 0.360600
H708 H 0.602300 0.585500 0.344300
H709 H 0.674200 0.568300 0.391100
H710 H 0.706200 0.627500 0.383600
H711 H 0.706000 0.588800 0.439500
H712 H 0.746100 0.648200 0.436100
H713 H 0.702900 0.645100 0.474400
H714 H 0.611700 0.641200 0.453100
H715 H 0.495800 0.863700 0.330500
H716 H 0.511500 0.837300 0.303900
H717 H 0.641000 0.813900 0.331300
H718 H 0.626100 0.880800 0.332000
H719 H 0.804300 0.819600 0.460700
H720 H 0.710300 0.827100 0.456500
H721 H 0.767600 0.745800 0.482500
H722 H 0.782200 0.720100 0.455500
H723 H 0.384800 0.739400 0.323200
H724 H 0.377600 0.796700 0.305500
H725 H 0.322100 0.815300 0.339200
H726 H 0.406900 0.848100 0.348600
H727 H 0.411800 0.843700 0.397600
H728 H 0.326600 0.811400 0.386500
H729 H 0.391400 0.785000 0.432700
H730 H 0.389100 0.731100 0.413400
H731 H 0.498100 0.747100 0.469200
H732 H 0.513600 0.692800 0.452800
H733 H 0.627700 0.722500 0.486100
H734 H 0.618900 0.782400 0.470600
H735 H 0.752000 0.820900 0.377400
H736 H 0.735000 0.887900 0.375600
H737 H 0.796600 0.864300 0.419900
H738 H 0.705400 0.882000 0.415800
K739 K 0.157670 0.621710 0.691510
N740 N 0.231100 0.579740 0.651790
N741 N 0.086060 0.671920 0.731470
O742 O 0.078140 0.640910 0.632820
O743 O 0.024110 0.699450 0.670880
O744 O 0.316520 0.656440 0.696910
O745 O 0.263500 0.686980 0.741140
O746 O 0.186300 0.500270 0.690880
O747 O 0.091160 0.546750 0.720330
C748 C 0.170760 0.581550 0.623450
C749 C 0.130000 0.632990 0.615410
C750 C 0.019000 0.688910 0.623710
C751 C -0.030540 0.692610 0.641700
C752 C -0.024430 0.707920 0.688060
C753 C 0.032960 0.716700 0.718570
C754 C 0.301840 0.612300 0.652910
C755 C 0.355960 0.627400 0.683230
C756 C 0.369700 0.676150 0.725020
C757 C 0.327530 0.716020 0.735490
C758 C 0.215360 0.726410 0.752530
C759 C 0.150020 0.694640 0.756980
C760 C 0.257470 0.520040 0.659600
C761 C 0.199000 0.478560 0.665020
C762 C 0.126770 0.467230 0.697490
C763 C 0.121160 0.489120 0.724020
C764 C 0.081120 0.569790 0.744440
C765 C 0.039430 0.625240 0.738910
H766 H 0.048500 0.724900 0.625200
H767 H -0.017000 0.683400 0.604300
H768 H -0.069600 0.723900 0.636100
H769 H -0.059400 0.656500 0.640300
H770 H -0.058900 0.741400 0.681700
H771 H -0.058300 0.674400 0.687200
H772 H -0.000600 0.724500 0.730000
H773 H 0.066100 0.750100 0.718500
H774 H 0.282800 0.647700 0.642600
H775 H 0.334100 0.590900 0.644000
H776 H 0.250300 0.743100 0.770200
H777 H 0.192800 0.756600 0.738800
H778 H 0.123900 0.719400 0.766800
H779 H 0.174100 0.661700 0.768800
H780 H 0.305800 0.521400 0.676500
H781 H 0.271800 0.504400 0.644000
H782 H 0.222300 0.440300 0.668400
H783 H 0.147800 0.477800 0.649200
H784 H 0.144200 0.427400 0.700000
H785 H 0.073900 0.470000 0.682500
H786 H 0.174500 0.488100 0.738700
H787 H 0.083900 0.464800 0.729400
H788 H 0.134800 0.576400 0.758500
H789 H 0.051000 0.543300 0.752000
H790 H 0.025600 0.636500 0.755200
H791 H -0.010200 0.619400 0.722800
H792 H 0.128900 0.553100 0.621900
H793 H 0.198500 0.572600 0.610300
H794 H 0.169800 0.663900 0.620000
H795 H 0.098100 0.634100 0.595400
H796 H 0.400100 0.651600 0.682200
H797 H 0.378300 0.592100 0.693300
H798 H 0.386500 0.643600 0.737700
H799 H 0.417400 0.694500 0.723100
H800 H 0.364600 0.733200 0.752700
H801 H 0.304500 0.745900 0.721500
K802 K 0.842330 0.121710 0.808490
N803 N 0.768900 0.079740 0.848210
N804 N 0.913940 0.171920 0.768530
O805 O 0.921860 0.140910 0.867180
O806 O 0.975890 0.199450 0.829120
O807 O 0.683480 0.156440 0.803090
O808 O 0.736500 0.186980 0.758860
O809 O 0.813700 0.000270 0.809120
O810 O 0.908840 0.046750 0.779670
C811 C 0.829240 0.081550 0.876550
C812 C 0.870000 0.132990 0.884590
C813 C 0.981000 0.188910 0.876290
C814 C 1.030540 0.192610 0.858300
C815 C 1.024430 0.207920 0.811940
C816 C 0.967040 0.216700 0.781430
C817 C 0.698160 0.112300 0.847090
C818 C 0.644040 0.127400 0.816770
C819 C 0.630300 0.176150 0.774980
C820 C 0.672470 0.216020 0.764510
C821 C 0.784640 0.226410 0.747470
C822 C 0.849980 0.194640 0.743020
C823 C 0.742530 0.020040 0.840400
C824 C 0.801000 -0.021440 0.834980
C825 C 0.873230 -0.032770 0.802510
C826 C 0.878840 -0.010880 0.775980
C827 C 0.918880 0.069790 0.755560
C828 C 0.960570 0.125240 0.761090
H829 H 0.951500 0.224900 0.874800
H830 H 1.017000 0.183400 0.895700
H831 H 1.069600 0.223900 0.863900
H832 H 1.059400 0.156500 0.859700
H833 H 1.058900 0.241400 0.818300
H834 H 1.058300 0.174400 0.812800
H835 H 1.000600 0.224500 0.770000
H836 H 0.933900 0.250100 0.781500
H837 H 0.717200 0.147700 0.857400
H838 H 0.665900 0.090900 0.856000
H839 H 0.749700 0.243100 0.729800
H840 H 0.807200 0.256600 0.761200
H841 H 0.876100 0.219400 0.733200
H842 H 0.825900 0.161700 0.731200
H843 H 0.694200 0.021400 0.823500
H844 H 0.728200 0.004400 0.856000
H845 H 0.777700 -0.059700 0.831600
H846 H 0.852200 -0.022200 0.850800
H847 H 0.855800 -0.072600 0.800000
H848 H 0.926100 -0.030000 0.817500
H849 H 0.825500 -0.011900 0.761300
H850 H 0.916100 -0.035200 0.770600
H851 H 0.865200 0.076400 0.741500
H852 H 0.949000 0.043300 0.748000
H853 H 0.974400 0.136500 0.744800
H854 H 1.010200 0.119400 0.777200
H855 H 0.871100 0.053100 0.878100
H856 H 0.801500 0.072600 0.889700
H857 H 0.830200 0.163900 0.880000
H858 H 0.901900 0.134100 0.904600
H859 H 0.599900 0.151600 0.817800
H860 H 0.621700 0.092100 0.806700
H861 H 0.613500 0.143600 0.762300
H862 H 0.582600 0.194500 0.776900
H863 H 0.635400 0.233200 0.747300
H864 H 0.695500 0.245900 0.778500
K865 K 0.842330 0.378290 0.308490
N866 N 0.768900 0.420260 0.348210
N867 N 0.913940 0.328080 0.268530
O868 O 0.921860 0.359090 0.367180
O869 O 0.975890 0.300550 0.329120
O870 O 0.683480 0.343560 0.303090
O871 O 0.736500 0.313020 0.258860
O872 O 0.813700 0.499730 0.309120
O873 O 0.908840 0.453250 0.279670
C874 C 0.829240 0.418450 0.376550
C875 C 0.870000 0.367010 0.384590
C876 C 0.981000 0.311090 0.376290
C877 C 1.030540 0.307390 0.358300
C878 C 1.024430 0.292080 0.311940
C879 C 0.967040 0.283300 0.281430
C880 C 0.698160 0.387700 0.347090
C881 C 0.644040 0.372600 0.316770
C882 C 0.630300 0.323850 0.274980
C883 C 0.672470 0.283980 0.264510
C884 C 0.784640 0.273590 0.247470
C885 C 0.849980 0.305360 0.243020
C886 C 0.742530 0.479960 0.340400
C887 C 0.801000 0.521440 0.334980
C888 C 0.873230 0.532770 0.302510
C889 C 0.878840 0.510880 0.275980
C890 C 0.918880 0.430210 0.255560
C891 C 0.960570 0.374760 0.261090
H892 H 0.951500 0.275100 0.374800
H893 H 1.017000 0.316600 0.395700
H894 H 1.069600 0.276100 0.363900
H895 H 1.059400 0.343500 0.359700
H896 H 1.058900 0.258600 0.318300
H897 H 1.058300 0.325600 0.312800
H898 H 1.000600 0.275500 0.270000
H899 H 0.933900 0.249900 0.281500
H900 H 0.717200 0.352300 0.357400
H901 H 0.665900 0.409100 0.356000
H902 H 0.749700 0.256900 0.229800
H903 H 0.807200 0.243400 0.261200
H904 H 0.876100 0.280600 0.233200
H905 H 0.825900 0.338300 0.231200
H906 H 0.694200 0.478600 0.323500
H907 H 0.728200 0.495600 0.356000
H908 H 0.777700 0.559700 0.331600
H909 H 0.852200 0.522200 0.350800
H910 H 0.855800 0.572600 0.300000
H911 H 0.926100 0.530000 0.317500
H912 H 0.825500 0.511900 0.261300
H913 H 0.916100 0.535200 0.270600
H914 H 0.865200 0.423600 0.241500
H915 H 0.949000 0.456700 0.248000
H916 H 0.974400 0.363500 0.244800
H917 H 1.010200 0.380600 0.277200
H918 H 0.871100 0.446900 0.378100
H919 H 0.801500 0.427400 0.389700
H920 H 0.830200 0.336100 0.380000
H921 H 0.901900 0.365900 0.404600
H922 H 0.599900 0.348400 0.317800
H923 H 0.621700 0.407900 0.306700
H924 H 0.613500 0.356400 0.262300
H925 H 0.582600 0.305500 0.276900
H926 H 0.635400 0.266800 0.247300
H927 H 0.695500 0.254100 0.278500
K928 K 0.157670 0.878290 0.191510
N929 N 0.231100 0.920260 0.151790
N930 N 0.086060 0.828080 0.231470
O931 O 0.078140 0.859090 0.132820
O932 O 0.024110 0.800550 0.170880
O933 O 0.316520 0.843560 0.196910
O934 O 0.263500 0.813020 0.241140
O935 O 0.186300 0.999730 0.190880
O936 O 0.091160 0.953250 0.220330
C937 C 0.170760 0.918450 0.123450
C938 C 0.130000 0.867010 0.115410
C939 C 0.019000 0.811090 0.123710
C940 C -0.030540 0.807390 0.141700
C941 C -0.024430 0.792080 0.188060
C942 C 0.032960 0.783300 0.218570
C943 C 0.301840 0.887700 0.152910
C944 C 0.355960 0.872600 0.183230
C945 C 0.369700 0.823850 0.225020
C946 C 0.327530 0.783980 0.235490
C947 C 0.215360 0.773590 0.252530
C948 C 0.150020 0.805360 0.256980
C949 C 0.257470 0.979960 0.159600
C950 C 0.199000 1.021440 0.165020
C951 C 0.126770 1.032770 0.197490
C952 C 0.121160 1.010880 0.224020
C953 C 0.081120 0.930210 0.244440
C954 C 0.039430 0.874760 0.238910
H955 H 0.048500 0.775100 0.125200
H956 H -0.017000 0.816600 0.104300
H957 H -0.069600 0.776100 0.136100
H958 H -0.059400 0.843500 0.140300
H959 H -0.058900 0.758600 0.181700
H960 H -0.058300 0.825600 0.187200
H961 H -0.000600 0.775500 0.230000
H962 H 0.066100 0.749900 0.218500
H963 H 0.282800 0.852300 0.142600
H964 H 0.334100 0.909100 0.144000
H965 H 0.250300 0.756900 0.270200
H966 H 0.192800 0.743400 0.238800
H967 H 0.123900 0.780600 0.266800
H968 H 0.174100 0.838300 0.268800
H969 H 0.305800 0.978600 0.176500
H970 H 0.271800 0.995600 0.144000
H971 H 0.222300 1.059700 0.168400
H972 H 0.147800 1.022200 0.149200
H973 H 0.144200 1.072600 0.200000
H974 H 0.073900 1.030000 0.182500
H975 H 0.174500 1.011900 0.238700
H976 H 0.083900 1.035200 0.229400
H977 H 0.134800 0.923600 0.258500
H978 H 0.051000 0.956700 0.252000
H979 H 0.025600 0.863500 0.255200
H980 H -0.010200 0.880600 0.222800
H981 H 0.128900 0.946900 0.121900
H982 H 0.198500 0.927400 0.110300
H983 H 0.169800 0.836100 0.120000
H984 H 0.098100 0.865900 0.095400
H985 H 0.400100 0.848400 0.182200
H986 H 0.378300 0.907900 0.193300
H987 H 0.386500 0.856400 0.237700
H988 H 0.417400 0.805500 0.223100
H989 H 0.364600 0.766800 0.252700
H990 H 0.304500 0.754100 0.221500
K991 K 0.315030 0.400300 0.797880
N992 N 0.385490 0.326280 0.761910
N993 N 0.242210 0.478650 0.832820
O994 O 0.375540 0.452540 0.759330
O995 O 0.301060 0.522120 0.788760
O996 O 0.442260 0.321190 0.824080
O997 O 0.384030 0.398440 0.856490
O998 O 0.215050 0.317010 0.759670
O999 O 0.154100 0.378270 0.797520
C1000 C 0.427760 0.366000 0.749320
C1001 C 0.379160 0.420600 0.737280
C1002 C 0.357530 0.513720 0.752040
C1003 C 0.365060 0.541250 0.778340
C1004 C 0.297570 0.554110 0.813230
C1005 C 0.233090 0.534080 0.821330
C1006 C 0.445030 0.285200 0.779970
C1007 C 0.494520 0.308040 0.808790
C1008 C 0.485140 0.335340 0.853050
C1009 C 0.426560 0.349560 0.868930
C1010 C 0.336620 0.418380 0.872890
C1011 C 0.298880 0.475730 0.862670
C1012 C 0.320350 0.294430 0.742020
C1013 C 0.259190 0.271040 0.753220
C1014 C 0.151790 0.296440 0.769140
C1015 C 0.102930 0.345840 0.773130
C1016 C 0.113090 0.428860 0.802850
C1017 C 0.167040 0.451380 0.830680
H1018 H 0.479300 0.377100 0.763500
H1019 H 0.438100 0.346100 0.734000
H1020 H 0.405400 0.442400 0.726400
H1021 H 0.324200 0.410100 0.725300
H1022 H 0.398200 0.529000 0.744800
H1023 H 0.303300 0.519000 0.738100
H1024 H 0.418000 0.532700 0.792400
H1025 H 0.359900 0.582300 0.775200
H1026 H 0.415500 0.252000 0.782900
H1027 H 0.481900 0.273600 0.770300
H1028 H 0.536300 0.280600 0.819000
H1029 H 0.520200 0.343400 0.806000
H1030 H 0.518700 0.302900 0.862300
H1031 H 0.519700 0.368300 0.853800
H1032 H 0.457100 0.356400 0.888800
H1033 H 0.389200 0.317800 0.867200
H1034 H 0.372000 0.421700 0.892500
H1035 H 0.293900 0.390600 0.871400
H1036 H 0.268100 0.487500 0.874500
H1037 H 0.342900 0.502800 0.864800
H1038 H 0.345000 0.262100 0.735800
H1039 H 0.292900 0.319100 0.726000
H1040 H 0.285700 0.248900 0.770200
H1041 H 0.221700 0.246700 0.739100
H1042 H 0.175400 0.276200 0.786900
H1043 H 0.116300 0.270700 0.755100
H1044 H 0.054000 0.332200 0.776200
H1045 H 0.088000 0.370500 0.756600
H1046 H 0.060700 0.418100 0.804100
H1047 H 0.105000 0.457100 0.788000
H1048 H 0.135500 0.479700 0.836600
H1049 H 0.180300 0.419500 0.843900
H1050 H 0.348100 0.547700 0.828800
H1051 H 0.291200 0.594800 0.808900
H1052 H 0.225800 0.560600 0.835000
H1053 H 0.184500 0.534300 0.804500
K1054 K 0.684970 0.900300 0.702120
N1055 N 0.614510 0.826280 0.738090
N1056 N 0.757790 0.978650 0.667180
O1057 O 0.624460 0.952540 0.740670
O1058 O 0.698940 1.022120 0.711240
O1059 O 0.557740 0.821190 0.675920
O1060 O 0.615970 0.898440 0.643510
O1061 O 0.784950 0.817010 0.740330
O1062 O 0.845900 0.878270 0.702480
C1063 C 0.572240 0.866000 0.750680
C1064 C 0.620840 0.920600 0.762720
C1065 C 0.642470 1.013720 0.747960
C1066 C 0.634940 1.041250 0.721660
C1067 C 0.702430 1.054110 0.686770
C1068 C 0.766910 1.034080 0.678670
C1069 C 0.554970 0.785200 0.720030
C1070 C 0.505480 0.808040 0.691210
C1071 C 0.514860 0.835340 0.646950
C1072 C 0.573440 0.849560 0.631070
C1073 C 0.663380 0.918380 0.627110
C1074 C 0.701120 0.975730 0.637330
C1075 C 0.679650 0.794430 0.757980
C1076 C 0.740810 0.771040 0.746780
C1077 C 0.848210 0.796440 0.730860
C1078 C 0.897070 0.845840 0.726870
C1079 C 0.886910 0.928860 0.697150
C1080 C 0.832960 0.951380 0.669320
H1081 H 0.520700 0.877100 0.736500
H1082 H 0.561900 0.846100 0.766000
H1083 H 0.594600 0.942400 0.773600
H1084 H 0.675800 0.910100 0.774700
H1085 H 0.601800 1.029000 0.755200
H1086 H 0.696700 1.019000 0.761900
H1087 H 0.582000 1.032700 0.707600
H1088 H 0.640100 1.082300 0.724800
H1089 H 0.584500 0.752000 0.717100
H1090 H 0.518100 0.773600 0.729700
H1091 H 0.463700 0.780600 0.681000
H1092 H 0.479800 0.843400 0.694000
H1093 H 0.481300 0.802900 0.637700
H1094 H 0.480300 0.868300 0.646200
H1095 H 0.542900 0.856400 0.611200
H1096 H 0.610800 0.817800 0.632800
H1097 H 0.628000 0.921700 0.607500
H1098 H 0.706100 0.890600 0.628600
H1099 H 0.731900 0.987500 0.625500
H1100 H 0.657100 1.002800 0.635200
H1101 H 0.655000 0.762100 0.764200
H1102 H 0.707100 0.819100 0.774000
H1103 H 0.714300 0.748900 0.729800
H1104 H 0.778300 0.746700 0.760900
H1105 H 0.824600 0.776200 0.713100
H1106 H 0.883700 0.770700 0.744900
H1107 H 0.946000 0.832200 0.723800
H1108 H 0.912000 0.870500 0.743400
H1109 H 0.939300 0.918100 0.695900
H1110 H 0.895000 0.957100 0.712000
H1111 H 0.864500 0.979700 0.663400
H1112 H 0.819700 0.919500 0.656100
H1113 H 0.651900 1.047700 0.671200
H1114 H 0.708800 1.094800 0.691100
H1115 H 0.774200 1.060600 0.665000
H1116 H 0.815500 1.034300 0.695500
K1117 K 0.684970 0.599700 0.202120
N1118 N 0.614510 0.673720 0.238090
N1119 N 0.757790 0.521350 0.167180
O1120 O 0.624460 0.547460 0.240670
O1121 O 0.698940 0.477880 0.211240
O1122 O 0.557740 0.678810 0.175920
O1123 O 0.615970 0.601560 0.143510
O1124 O 0.784950 0.682990 0.240330
O1125 O 0.845900 0.621730 0.202480
C1126 C 0.572240 0.634000 0.250680
C1127 C 0.620840 0.579400 0.262720
C1128 C 0.642470 0.486280 0.247960
C1129 C 0.634940 0.458750 0.221660
C1130 C 0.702430 0.445890 0.186770
C1131 C 0.766910 0.465920 0.178670
C1132 C 0.554970 0.714800 0.220030
C1133 C 0.505480 0.691960 0.191210
C1134 C 0.514860 0.664660 0.146950
C1135 C 0.573440 0.650440 0.131070
C1136 C 0.663380 0.581620 0.127110
C1137 C 0.701120 0.524270 0.137330
C1138 C 0.679650 0.705570 0.257980
C1139 C 0.740810 0.728960 0.246780
C1140 C 0.848210 0.703560 0.230860
C1141 C 0.897070 0.654160 0.226870
C1142 C 0.886910 0.571140 0.197150
C1143 C 0.832960 0.548620 0.169320
H1144 H 0.520700 0.622900 0.236500
H1145 H 0.561900 0.653900 0.266000
H1146 H 0.594600 0.557600 0.273600
H1147 H 0.675800 0.589900 0.274700
H1148 H 0.601800 0.471000 0.255200
H1149 H 0.696700 0.481000 0.261900
H1150 H 0.582000 0.467300 0.207600
H1151 H 0.640100 0.417700 0.224800
H1152 H 0.584500 0.748000 0.217100
H1153 H 0.518100 0.726400 0.229700
H1154 H 0.463700 0.719400 0.181000
H1155 H 0.479800 0.656600 0.194000
H1156 H 0.481300 0.697100 0.137700
H1157 H 0.480300 0.631700 0.146200
H1158 H 0.542900 0.643600 0.111200
H1159 H 0.610800 0.682200 0.132800
H1160 H 0.628000 0.578300 0.107500
H1161 H 0.706100 0.609400 0.128600
H1162 H 0.731900 0.512500 0.125500
H1163 H 0.657100 0.497200 0.135200
H1164 H 0.655000 0.737900 0.264200
H1165 H 0.707100 0.680900 0.274000
H1166 H 0.714300 0.751100 0.229800
H1167 H 0.778300 0.753300 0.260900
H1168 H 0.824600 0.723800 0.213100
H1169 H 0.883700 0.729300 0.244900
H1170 H 0.946000 0.667800 0.223800
H1171 H 0.912000 0.629500 0.243400
H1172 H 0.939300 0.581900 0.195900
H1173 H 0.895000 0.542900 0.212000
H1174 H 0.864500 0.520300 0.163400
H1175 H 0.819700 0.580500 0.156100
H1176 H 0.651900 0.452300 0.171200
H1177 H 0.708800 0.405200 0.191100
H1178 H 0.774200 0.439400 0.165000
H1179 H 0.815500 0.465700 0.195500
K1180 K 0.315030 0.099700 0.297880
N1181 N 0.385490 0.173720 0.261910
N1182 N 0.242210 0.021350 0.332820
O1183 O 0.375540 0.047460 0.259330
O1184 O 0.301060 -0.022120 0.288760
O1185 O 0.442260 0.178810 0.324080
O1186 O 0.384030 0.101560 0.356490
O1187 O 0.215050 0.182990 0.259670
O1188 O 0.154100 0.121730 0.297520
C1189 C 0.427760 0.134000 0.249320
C1190 C 0.379160 0.079400 0.237280
C1191 C 0.357530 -0.013720 0.252040
C1192 C 0.365060 -0.041250 0.278340
C1193 C 0.297570 -0.054110 0.313230
C1194 C 0.233090 -0.034080 0.321330
C1195 C 0.445030 0.214800 0.279970
C1196 C 0.494520 0.191960 0.308790
C1197 C 0.485140 0.164660 0.353050
C1198 C 0.426560 0.150440 0.368930
C1199 C 0.336620 0.081620 0.372890
C1200 C 0.298880 0.024270 0.362670
C1201 C 0.320350 0.205570 0.242020
C1202 C 0.259190 0.228960 0.253220
C1203 C 0.151790 0.203560 0.269140
C1204 C 0.102930 0.154160 0.273130
C1205 C 0.113090 0.071140 0.302850
C1206 C 0.167040 0.048620 0.330680
H1207 H 0.479300 0.122900 0.263500
H1208 H 0.438100 0.153900 0.234000
H1209 H 0.405400 0.057600 0.226400
H1210 H 0.324200 0.089900 0.225300
H1211 H 0.398200 -0.029000 0.244800
H1212 H 0.303300 -0.019000 0.238100
H1213 H 0.418000 -0.032700 0.292400
H1214 H 0.359900 -0.082300 0.275200
H1215 H 0.415500 0.248000 0.282900
H1216 H 0.481900 0.226400 0.270300
H1217 H 0.536300 0.219400 0.319000
H1218 H 0.520200 0.156600 0.306000
H1219 H 0.518700 0.197100 0.362300
H1220 H 0.519700 0.131700 0.353800
H1221 H 0.457100 0.143600 0.388800
H1222 H 0.389200 0.182200 0.367200
H1223 H 0.372000 0.078300 0.392500
H1224 H 0.293900 0.109400 0.371400
H1225 H 0.268100 0.012500 0.374500
H1226 H 0.342900 -0.002800 0.364800
H1227 H 0.345000 0.237900 0.235800
H1228 H 0.292900 0.180900 0.226000
H1229 H 0.285700 0.251100 0.270200
H1230 H 0.221700 0.253300 0.239100
H1231 H 0.175400 0.223800 0.286900
H1232 H 0.116300 0.229300 0.255100
H1233 H 0.054000 0.167800 0.276200
H1234 H 0.088000 0.129500 0.256600
H1235 H 0.060700 0.081900 0.304100
H1236 H 0.105000 0.042900 0.288000
H1237 H 0.135500 0.020300 0.336600
H1238 H 0.180300 0.080500 0.343900
H1239 H 0.348100 -0.047700 0.328800
H1240 H 0.291200 -0.094800 0.308900
H1241 H 0.225800 -0.060600 0.335000
H1242 H 0.184500 -0.034300 0.304500
K1243 K 0.071480 0.745750 0.888970
N1244 N 0.147060 0.710360 0.950430
N1245 N -0.005490 0.780370 0.826850
O1246 O 0.114470 0.630120 0.902590
O1247 O 0.066750 0.667170 0.845760
O1248 O 0.226310 0.790860 0.922520
O1249 O 0.140880 0.836490 0.867210
O1250 O -0.010330 0.767200 0.925410
O1251 O -0.092610 0.785730 0.867200
C1252 C 0.145460 0.647910 0.952920
C1253 C 0.177170 0.619160 0.930440
C1254 C 0.138070 0.600420 0.882390
C1255 C 0.068920 0.607580 0.855520
C1256 C 0.007480 0.675310 0.818840
C1257 C 0.014130 0.733170 0.809660
C1258 C 0.233460 0.732180 0.961690
C1259 C 0.246180 0.788340 0.954010
C1260 C 0.241820 0.844020 0.913130
C1261 C 0.228300 0.844490 0.882390
C1262 C 0.120840 0.836580 0.836260
C1263 C 0.031930 0.835370 0.822170
C1264 C 0.098600 0.738470 0.965790
C1265 C 0.008410 0.737770 0.951290
C1266 C -0.094100 0.778260 0.914700
C1267 C -0.112260 0.816800 0.889180
C1268 C -0.115790 0.818420 0.841750
C1269 C -0.091910 0.784360 0.820330
H1270 H 0.182500 0.637500 0.971600
H1271 H 0.090600 0.635300 0.950800
H1272 H 0.229600 0.634600 0.931200
H1273 H 0.182100 0.578100 0.933900
H1274 H 0.147500 0.560000 0.887000
H1275 H 0.187400 0.617500 0.881200
H1276 H 0.018100 0.597100 0.858100
H1277 H 0.077600 0.582900 0.841400
H1278 H -0.046500 0.670000 0.820000
H1279 H 0.015600 0.648300 0.805400
H1280 H 0.070100 0.738600 0.810500
H1281 H -0.022500 0.737400 0.790300
H1282 H 0.250500 0.731800 0.982200
H1283 H 0.267700 0.706300 0.955600
H1284 H 0.211400 0.815000 0.959300
H1285 H 0.302900 0.799000 0.963300
H1286 H 0.143300 0.870600 0.830600
H1287 H 0.143800 0.802600 0.830800
H1288 H 0.009300 0.866200 0.830100
H1289 H 0.018300 0.841500 0.802000
H1290 H 0.111700 0.719600 0.984000
H1291 H 0.115900 0.778200 0.968600
H1292 H -0.017100 0.757200 0.963100
H1293 H -0.010700 0.698400 0.948200
H1294 H -0.111500 0.797200 0.928800
H1295 H -0.123400 0.742300 0.909200
H1296 H -0.079900 0.851600 0.894200
H1297 H -0.169800 0.826700 0.882300
H1298 H -0.086200 0.854500 0.845600
H1299 H -0.174100 0.825900 0.834900
H1300 H -0.115300 0.746200 0.818900
H1301 H -0.114400 0.803700 0.802200
H1302 H 0.205600 0.872300 0.916600
H1303 H 0.298100 0.854600 0.923500
H1304 H 0.246800 0.880300 0.876800
H1305 H 0.258300 0.812800 0.878200
K1306 K 0.928520 0.245750 0.611030
N1307 N 0.852940 0.210360 0.549570
N1308 N 1.005490 0.280370 0.673150
O1309 O 0.885530 0.130120 0.597410
O1310 O 0.933250 0.167170 0.654240
O1311 O 0.773690 0.290860 0.577480
O1312 O 0.859120 0.336490 0.632790
O1313 O 1.010330 0.267200 0.574590
O1314 O 1.092610 0.285730 0.632800
C1315 C 0.854540 0.147910 0.547080
C1316 C 0.822830 0.119160 0.569560
C1317 C 0.861930 0.100420 0.617610
C1318 C 0.931080 0.107580 0.644480
C1319 C 0.992520 0.175310 0.681160
C1320 C 0.985870 0.233170 0.690340
C1321 C 0.766540 0.232180 0.538310
C1322 C 0.753820 0.288340 0.545990
C1323 C 0.758180 0.344020 0.586870
C1324 C 0.771700 0.344490 0.617610
C1325 C 0.879160 0.336580 0.663740
C1326 C 0.968070 0.335370 0.677830
C1327 C 0.901400 0.238470 0.534210
C1328 C 0.991590 0.237770 0.548710
C1329 C 1.094100 0.278260 0.585300
C1330 C 1.112260 0.316800 0.610820
C1331 C 1.115790 0.318420 0.658250
C1332 C 1.091910 0.284360 0.679670
H1333 H 0.817500 0.137500 0.528400
H1334 H 0.909400 0.135300 0.549200
H1335 H 0.770400 0.134600 0.568800
H1336 H 0.817900 0.078100 0.566100
H1337 H 0.852500 0.060000 0.613000
H1338 H 0.812600 0.117500 0.618800
H1339 H 0.981900 0.097100 0.641900
H1340 H 0.922400 0.082900 0.658600
H1341 H 1.046500 0.170000 0.680000
H1342 H 0.984400 0.148300 0.694600
H1343 H 0.929900 0.238600 0.689500
H1344 H 1.022500 0.237400 0.709700
H1345 H 0.749500 0.231800 0.517800
H1346 H 0.732300 0.206300 0.544400
H1347 H 0.788600 0.315000 0.540700
H1348 H 0.697100 0.299000 0.536700
H1349 H 0.856700 0.370600 0.669400
H1350 H 0.856200 0.302600 0.669200
H1351 H 0.990700 0.366200 0.669900
H1352 H 0.981700 0.341500 0.698000
H1353 H 0.888300 0.219600 0.516000
H1354 H 0.884100 0.278200 0.531400
H1355 H 1.017100 0.257200 0.536900
H1356 H 1.010700 0.198400 0.551800
H1357 H 1.111500 0.297200 0.571200
H1358 H 1.123400 0.242300 0.590800
H1359 H 1.079900 0.351600 0.605800
H1360 H 1.169800 0.326700 0.617700
H1361 H 1.086200 0.354500 0.654400
H1362 H 1.174100 0.325900 0.665100
H1363 H 1.115300 0.246200 0.681100
H1364 H 1.114400 0.303700 0.697800
H1365 H 0.794400 0.372300 0.583400
H1366 H 0.701900 0.354600 0.576500
H1367 H 0.753200 0.380300 0.623200
H1368 H 0.741700 0.312800 0.621800
K1369 K 0.928520 0.254250 0.111030
N1370 N 0.852940 0.289640 0.049570
N1371 N 1.005490 0.219630 0.173150
O1372 O 0.885530 0.369880 0.097410
O1373 O 0.933250 0.332830 0.154240
O1374 O 0.773690 0.209140 0.077480
O1375 O 0.859120 0.163510 0.132790
O1376 O 1.010330 0.232800 0.074590
O1377 O 1.092610 0.214270 0.132800
C1378 C 0.854540 0.352090 0.047080
C1379 C 0.822830 0.380840 0.069560
C1380 C 0.861930 0.399580 0.117610
C1381 C 0.931080 0.392420 0.144480
C1382 C 0.992520 0.324690 0.181160
C1383 C 0.985870 0.266830 0.190340
C1384 C 0.766540 0.267820 0.038310
C1385 C 0.753820 0.211660 0.045990
C1386 C 0.758180 0.155980 0.086870
C1387 C 0.771700 0.155510 0.117610
C1388 C 0.879160 0.163420 0.163740
C1389 C 0.968070 0.164630 0.177830
C1390 C 0.901400 0.261530 0.034210
C1391 C 0.991590 0.262230 0.048710
C1392 C 1.094100 0.221740 0.085300
C1393 C 1.112260 0.183200 0.110820
C1394 C 1.115790 0.181580 0.158250
C1395 C 1.091910 0.215640 0.179670
H1396 H 0.817500 0.362500 0.028400
H1397 H 0.909400 0.364700 0.049200
H1398 H 0.770400 0.365400 0.068800
H1399 H 0.817900 0.421900 0.066100
H1400 H 0.852500 0.440000 0.113000
H1401 H 0.812600 0.382500 0.118800
H1402 H 0.981900 0.402900 0.141900
H1403 H 0.922400 0.417100 0.158600
H1404 H 1.046500 0.330000 0.180000
H1405 H 0.984400 0.351700 0.194600
H1406 H 0.929900 0.261400 0.189500
H1407 H 1.022500 0.262600 0.209700
H1408 H 0.749500 0.268200 0.017800
H1409 H 0.732300 0.293700 0.044400
H1410 H 0.788600 0.185000 0.040700
H1411 H 0.697100 0.201000 0.036700
H1412 H 0.856700 0.129400 0.169400
H1413 H 0.856200 0.197400 0.169200
H1414 H 0.990700 0.133800 0.169900
H1415 H 0.981700 0.158500 0.198000
H1416 H 0.888300 0.280400 0.016000
H1417 H 0.884100 0.221800 0.031400
H1418 H 1.017100 0.242800 0.036900
H1419 H 1.010700 0.301600 0.051800
H1420 H 1.111500 0.202800 0.071200
H1421 H 1.123400 0.257700 0.090800
H1422 H 1.079900 0.148400 0.105800
H1423 H 1.169800 0.173300 0.117700
H1424 H 1.086200 0.145500 0.154400
H1425 H 1.174100 0.174100 0.165100
H1426 H 1.115300 0.253800 0.181100
H1427 H 1.114400 0.196300 0.197800
H1428 H 0.794400 0.127700 0.083400
H1429 H 0.701900 0.145400 0.076500
H1430 H 0.753200 0.119700 0.123200
H1431 H 0.741700 0.187200 0.121800
K1432 K 0.071480 0.754250 0.388970
N1433 N 0.147060 0.789640 0.450430
N1434 N -0.005490 0.719630 0.326850
O1435 O 0.114470 0.869880 0.402590
O1436 O 0.066750 0.832830 0.345760
O1437 O 0.226310 0.709140 0.422520
O1438 O 0.140880 0.663510 0.367210
O1439 O -0.010330 0.732800 0.425410
O1440 O -0.092610 0.714270 0.367200
C1441 C 0.145460 0.852090 0.452920
C1442 C 0.177170 0.880840 0.430440
C1443 C 0.138070 0.899580 0.382390
C1444 C 0.068920 0.892420 0.355520
C1445 C 0.007480 0.824690 0.318840
C1446 C 0.014130 0.766830 0.309660
C1447 C 0.233460 0.767820 0.461690
C1448 C 0.246180 0.711660 0.454010
C1449 C 0.241820 0.655980 0.413130
C1450 C 0.228300 0.655510 0.382390
C1451 C 0.120840 0.663420 0.336260
C1452 C 0.031930 0.664630 0.322170
C1453 C 0.098600 0.761530 0.465790
C1454 C 0.008410 0.762230 0.451290
C1455 C -0.094100 0.721740 0.414700
C1456 C -0.112260 0.683200 0.389180
C1457 C -0.115790 0.681580 0.341750
C1458 C -0.091910 0.715640 0.320330
H1459 H 0.182500 0.862500 0.471600
H1460 H 0.090600 0.864700 0.450800
H1461 H 0.229600 0.865400 0.431200
H1462 H 0.182100 0.921900 0.433900
H1463 H 0.147500 0.940000 0.387000
H1464 H 0.187400 0.882500 0.381200
H1465 H 0.018100 0.902900 0.358100
H1466 H 0.077600 0.917100 0.341400
H1467 H -0.046500 0.830000 0.320000
H1468 H 0.015600 0.851700 0.305400
H1469 H 0.070100 0.761400 0.310500
H1470 H -0.022500 0.762600 0.290300
H1471 H 0.250500 0.768200 0.482200
H1472 H 0.267700 0.793700 0.455600
H1473 H 0.211400 0.685000 0.459300
H1474 H 0.302900 0.701000 0.463300
H1475 H 0.143300 0.629400 0.330600
H1476 H 0.143800 0.697400 0.330800
H1477 H 0.009300 0.633800 0.330100
H1478 H 0.018300 0.658500 0.302000
H1479 H 0.111700 0.780400 0.484000
H1480 H 0.115900 0.721800 0.468600
H1481 H -0.017100 0.742800 0.463100
H1482 H -0.010700 0.801600 0.448200
H1483 H -0.111500 0.702800 0.428800
H1484 H -0.123400 0.757700 0.409200
H1485 H -0.079900 0.648400 0.394200
H1486 H -0.169800 0.673300 0.382300
H1487 H -0.086200 0.645500 0.345600
H1488 H -0.174100 0.674100 0.334900
H1489 H -0.115300 0.753800 0.318900
H1490 H -0.114400 0.696300 0.302200
H1491 H 0.205600 0.627700 0.416600
H1492 H 0.298100 0.645400 0.423500
H1493 H 0.246800 0.619700 0.376800
H1494 H 0.258300 0.687200 0.378200
K1495 K 0.105000 0.855360 0.591820
N1496 N -0.025290 0.903890 0.609730
N1497 N 0.238520 0.801400 0.575540
O1498 O 0.077190 0.974590 0.584710
O1499 O 0.216950 0.922580 0.577840
O1500 O -0.064160 0.815960 0.566640
O1501 O 0.052710 0.787630 0.543280
O1502 O 0.114230 0.838320 0.647870
O1503 O 0.231300 0.779860 0.631270
C1504 C -0.042070 0.959250 0.596920
C1505 C 0.031600 0.998820 0.601320
C1506 C 0.142760 1.006210 0.586480
C1507 C 0.183210 0.982310 0.566850
C1508 C 0.252940 0.899350 0.560530
C1509 C 0.295280 0.846630 0.571890
C1510 C -0.100640 0.865420 0.598160
C1511 C -0.123180 0.853810 0.566120
C1512 C -0.094800 0.804850 0.536310
C1513 C -0.027800 0.765320 0.537950
C1514 C 0.112540 0.743750 0.543980
C1515 C 0.194280 0.773590 0.546050
C1516 C 0.001150 0.901370 0.640760
C1517 C 0.044370 0.848910 0.654190
C1518 C 0.171080 0.803620 0.665210
C1519 C 0.246900 0.800830 0.659390
C1520 C 0.301140 0.774710 0.624200
C1521 C 0.276770 0.758660 0.595350
H1522 H -0.080100 0.979100 0.604000
H1523 H -0.067200 0.953000 0.576700
H1524 H 0.065300 0.999500 0.621200
H1525 H 0.013800 1.037500 0.595000
H1526 H 0.181100 1.006500 0.605800
H1527 H 0.125800 1.045200 0.580500
H1528 H 0.228100 1.006700 0.566700
H1529 H 0.144000 0.979200 0.547800
H1530 H 0.336000 0.854300 0.590300
H1531 H 0.321700 0.831900 0.559200
H1532 H -0.147400 0.884300 0.600600
H1533 H -0.090200 0.829300 0.608400
H1534 H -0.094000 0.839200 0.525500
H1535 H -0.148600 0.787400 0.529100
H1536 H -0.025400 0.737400 0.552500
H1537 H -0.043500 0.746400 0.519700
H1538 H 0.119800 0.718000 0.559800
H1539 H 0.093000 0.722300 0.526400
H1540 H 0.184600 0.803000 0.531600
H1541 H 0.229900 0.744300 0.543100
H1542 H 0.036900 0.933800 0.648100
H1543 H -0.046800 0.904800 0.646200
H1544 H 0.060400 0.853800 0.674500
H1545 H 0.007700 0.816400 0.648300
H1546 H 0.182700 0.815700 0.684600
H1547 H 0.148600 0.765100 0.662700
H1548 H 0.269900 0.839200 0.661300
H1549 H 0.285100 0.775300 0.672900
H1550 H 0.329900 0.811100 0.627000
H1551 H 0.336100 0.745600 0.636100
H1552 H 0.240200 0.726100 0.592500
H1553 H 0.325400 0.747400 0.591500
H1554 H 0.292900 0.926400 0.558500
H1555 H 0.212100 0.891900 0.542100
H1556 H -0.118000 0.888100 0.555900
H1557 H -0.177700 0.838000 0.557600
K1558 K 0.895000 0.355360 0.908180
N1559 N 1.025290 0.403890 0.890270
N1560 N 0.761480 0.301400 0.924460
O1561 O 0.922810 0.474590 0.915290
O1562 O 0.783050 0.422580 0.922160
O1563 O 1.064160 0.315960 0.933360
O1564 O 0.947290 0.287630 0.956720
O1565 O 0.885770 0.338320 0.852130
O1566 O 0.768700 0.279860 0.868730
C1567 C 1.042070 0.459250 0.903080
C1568 C 0.968400 0.498820 0.898680
C1569 C 0.857240 0.506210 0.913520
C1570 C 0.816790 0.482310 0.933150
C1571 C 0.747060 0.399350 0.939470
C1572 C 0.704720 0.346630 0.928110
C1573 C 1.100640 0.365420 0.901840
C1574 C 1.123180 0.353810 0.933880
C1575 C 1.094800 0.304850 0.963690
C1576 C 1.027800 0.265320 0.962050
C1577 C 0.887460 0.243750 0.956020
C1578 C 0.805720 0.273590 0.953950
C1579 C 0.998850 0.401370 0.859240
C1580 C 0.955630 0.348910 0.845810
C1581 C 0.828920 0.303620 0.834790
C1582 C 0.753100 0.300830 0.840610
C1583 C 0.698860 0.274710 0.875800
C1584 C 0.723230 0.258660 0.904650
H1585 H 1.080100 0.479100 0.896000
H1586 H 1.067200 0.453000 0.923300
H1587 H 0.934700 0.499500 0.878800
H1588 H 0.986200 0.537500 0.905000
H1589 H 0.818900 0.506500 0.894200
H1590 H 0.874200 0.545200 0.919500
H1591 H 0.771900 0.506700 0.933300
H1592 H 0.856000 0.479200 0.952200
H1593 H 0.664000 0.354300 0.909700
H1594 H 0.678300 0.331900 0.940800
H1595 H 1.147400 0.384300 0.899400
H1596 H 1.090200 0.329300 0.891600
H1597 H 1.094000 0.339200 0.974500
H1598 H 1.148600 0.287400 0.970900
H1599 H 1.025400 0.237400 0.947500
H1600 H 1.043500 0.246400 0.980300
H1601 H 0.880200 0.218000 0.940200
H1602 H 0.907000 0.222300 0.973600
H1603 H 0.815400 0.303000 0.968400
H1604 H 0.770100 0.244300 0.956900
H1605 H 0.963100 0.433800 0.851900
H1606 H 1.046800 0.404800 0.853800
H1607 H 0.939600 0.353800 0.825500
H1608 H 0.992300 0.316400 0.851700
H1609 H 0.817300 0.315700 0.815400
H1610 H 0.851400 0.265100 0.837300
H1611 H 0.730100 0.339200 0.838700
H1612 H 0.714900 0.275300 0.827100
H1613 H 0.670100 0.311100 0.873000
H1614 H 0.663900 0.245600 0.863900
H1615 H 0.759800 0.226100 0.907500
H1616 H 0.674600 0.247400 0.908500
H1617 H 0.707100 0.426400 0.941500
H1618 H 0.787900 0.391900 0.957900
H1619 H 1.118000 0.388100 0.944100
H1620 H 1.177700 0.338000 0.942400
K1621 K 0.895000 0.144640 0.408180
N1622 N 1.025290 0.096110 0.390270
N1623 N 0.761480 0.198600 0.424460
O1624 O 0.922810 0.025410 0.415290
O1625 O 0.783050 0.077420 0.422160
O1626 O 1.064160 0.184040 0.433360
O1627 O 0.947290 0.212370 0.456720
O1628 O 0.885770 0.161680 0.352130
O1629 O 0.768700 0.220140 0.368730
C1630 C 1.042070 0.040750 0.403080
C1631 C 0.968400 0.001180 0.398680
C1632 C 0.857240 -0.006210 0.413520
C1633 C 0.816790 0.017690 0.433150
C1634 C 0.747060 0.100650 0.439470
C1635 C 0.704720 0.153370 0.428110
C1636 C 1.100640 0.134580 0.401840
C1637 C 1.123180 0.146190 0.433880
C1638 C 1.094800 0.195150 0.463690
C1639 C 1.027800 0.234680 0.462050
C1640 C 0.887460 0.256250 0.456020
C1641 C 0.805720 0.226410 0.453950
C1642 C 0.998850 0.098630 0.359240
C1643 C 0.955630 0.151090 0.345810
C1644 C 0.828920 0.196380 0.334790
C1645 C 0.753100 0.199170 0.340610
C1646 C 0.698860 0.225290 0.375800
C1647 C 0.723230 0.241340 0.404650
H1648 H 1.080100 0.020900 0.396000
H1649 H 1.067200 0.047000 0.423300
H1650 H 0.934700 0.000500 0.378800
H1651 H 0.986200 -0.037500 0.405000
H1652 H 0.818900 -0.006500 0.394200
H1653 H 0.874200 -0.045200 0.419500
H1654 H 0.771900 -0.006700 0.433300
H1655 H 0.856000 0.020800 0.452200
H1656 H 0.664000 0.145700 0.409700
H1657 H 0.678300 0.168100 0.440800
H1658 H 1.147400 0.115700 0.399400
H1659 H 1.090200 0.170700 0.391600
H1660 H 1.094000 0.160800 0.474500
H1661 H 1.148600 0.212600 0.470900
H1662 H 1.025400 0.262600 0.447500
H1663 H 1.043500 0.253600 0.480300
H1664 H 0.880200 0.282000 0.440200
H1665 H 0.907000 0.277700 0.473600
H1666 H 0.815400 0.197000 0.468400
H1667 H 0.770100 0.255700 0.456900
H1668 H 0.963100 0.066200 0.351900
H1669 H 1.046800 0.095200 0.353800
H1670 H 0.939600 0.146200 0.325500
H1671 H 0.992300 0.183600 0.351700
H1672 H 0.817300 0.184300 0.315400
H1673 H 0.851400 0.234900 0.337300
H1674 H 0.730100 0.160800 0.338700
H1675 H 0.714900 0.224700 0.327100
H1676 H 0.670100 0.188900 0.373000
H1677 H 0.663900 0.254400 0.363900
H1678 H 0.759800 0.273900 0.407500
H1679 H 0.674600 0.252600 0.408500
H1680 H 0.707100 0.073600 0.441500
H1681 H 0.787900 0.108100 0.457900
H1682 H 1.118000 0.111900 0.444100
H1683 H 1.177700 0.162000 0.442400
K1684 K 0.105000 0.644640 0.091820
N1685 N -0.025290 0.596110 0.109730
N1686 N 0.238520 0.698600 0.075540
O1687 O 0.077190 0.525410 0.084710
O1688 O 0.216950 0.577420 0.077840
O1689 O -0.064160 0.684040 0.066640
O1690 O 0.052710 0.712370 0.043280
O1691 O 0.114230 0.661680 0.147870
O1692 O 0.231300 0.720140 0.131270
C1693 C -0.042070 0.540750 0.096920
C1694 C 0.031600 0.501180 0.101320
C1695 C 0.142760 0.493790 0.086480
C1696 C 0.183210 0.517690 0.066850
C1697 C 0.252940 0.600650 0.060530
C1698 C 0.295280 0.653370 0.071890
C1699 C -0.100640 0.634580 0.098160
C1700 C -0.123180 0.646190 0.066120
C1701 C -0.094800 0.695150 0.036310
C1702 C -0.027800 0.734680 0.037950
C1703 C 0.112540 0.756250 0.043980
C1704 C 0.194280 0.726410 0.046050
C1705 C 0.001150 0.598630 0.140760
C1706 C 0.044370 0.651090 0.154190
C1707 C 0.171080 0.696380 0.165210
C1708 C 0.246900 0.699170 0.159390
C1709 C 0.301140 0.725290 0.124200
C1710 C 0.276770 0.741340 0.095350
H1711 H -0.080100 0.520900 0.104000
H1712 H -0.067200 0.547000 0.076700
H1713 H 0.065300 0.500500 0.121200
H1714 H 0.013800 0.462500 0.095000
H1715 H 0.181100 0.493500 0.105800
H1716 H 0.125800 0.454800 0.080500
H1717 H 0.228100 0.493300 0.066700
H1718 H 0.144000 0.520800 0.047800
H1719 H 0.336000 0.645700 0.090300
H1720 H 0.321700 0.668100 0.059200
H1721 H -0.147400 0.615700 0.100600
H1722 H -0.090200 0.670700 0.108400
H1723 H -0.094000 0.660800 0.025500
H1724 H -0.148600 0.712600 0.029100
H1725 H -0.025400 0.762600 0.052500
H1726 H -0.043500 0.753600 0.019700
H1727 H 0.119800 0.782000 0.059800
H1728 H 0.093000 0.777700 0.026400
H1729 H 0.184600 0.697000 0.031600
H1730 H 0.229900 0.755700 0.043100
H1731 H 0.036900 0.566200 0.148100
H1732 H -0.046800 0.595200 0.146200
H1733 H 0.060400 0.646200 0.174500
H1734 H 0.007700 0.683600 0.148300
H1735 H 0.182700 0.684300 0.184600
H1736 H 0.148600 0.734900 0.162700
H1737 H 0.269900 0.660800 0.161300
H1738 H 0.285100 0.724700 0.172900
H1739 H 0.329900 0.688900 0.127000
H1740 H 0.336100 0.754400 0.136100
H1741 H 0.240200 0.773900 0.092500
H1742 H 0.325400 0.752600 0.091500
H1743 H 0.292900 0.573600 0.058500
H1744 H 0.212100 0.608100 0.042100
H1745 H -0.118000 0.611900 0.055900
H1746 H -0.177700 0.662000 0.057600
N1747 N 0.639050 0.439990 0.860840
C1748 C 0.615170 0.485430 0.874480
C1749 C 0.529490 0.510910 0.860190
N1750 N 0.506650 0.557610 0.873340
H1751 H 0.688000 0.426800 0.868100
H1752 H 0.641000 0.444300 0.844100
H1753 H 0.619400 0.472300 0.893200
H1754 H 0.653300 0.516600 0.876100
H1755 H 0.524400 0.522100 0.841200
H1756 H 0.491300 0.480200 0.859500
H1757 H 0.452000 0.567800 0.862500
H1758 H 0.510000 0.548200 0.892000
N1759 N 0.360950 0.939990 0.639160
C1760 C 0.384830 0.985430 0.625520
C1761 C 0.470510 1.010910 0.639810
N1762 N 0.493350 1.057610 0.626660
H1763 H 0.312000 0.926800 0.631900
H1764 H 0.359000 0.944300 0.655900
H1765 H 0.380600 0.972300 0.606800
H1766 H 0.346700 1.016600 0.623900
H1767 H 0.475600 1.022100 0.658800
H1768 H 0.508700 0.980200 0.640500
H1769 H 0.548000 1.067800 0.637500
H1770 H 0.490000 1.048200 0.608000
N1771 N 0.360950 0.560010 0.139160
C1772 C 0.384830 0.514570 0.125520
C1773 C 0.470510 0.489090 0.139810
N1774 N 0.493350 0.442390 0.126660
H1775 H 0.312000 0.573200 0.131900
H1776 H 0.359000 0.555700 0.155900
H1777 H 0.380600 0.527700 0.106800
H1778 H 0.346700 0.483400 0.123900
H1779 H 0.475600 0.477900 0.158800
H1780 H 0.508700 0.519800 0.140500
H1781 H 0.548000 0.432200 0.137500
H1782 H 0.490000 0.451800 0.108000
N1783 N 0.639050 0.060010 0.360840
C1784 C 0.615170 0.014570 0.374480
C1785 C 0.529490 -0.010910 0.360190
N1786 N 0.506650 -0.057610 0.373340
H1787 H 0.688000 0.073200 0.368100
H1788 H 0.641000 0.055700 0.344100
H1789 H 0.619400 0.027700 0.393200
H1790 H 0.653300 -0.016600 0.376100
H1791 H 0.524400 -0.022100 0.341200
H1792 H 0.491300 0.019800 0.359500
H1793 H 0.452000 -0.067800 0.362500
H1794 H 0.510000 -0.048200 0.392000
N1795 N 0.969900 0.446590 0.625950
C1796 C 0.904780 0.476410 0.629890
C1797 C 0.918040 0.539840 0.638620
N1798 N 0.851640 0.570460 0.641130
H1799 H 0.952600 0.408500 0.620200
H1800 H 0.987000 0.464600 0.612000
H1801 H 0.888300 0.456100 0.643800
H1802 H 0.860600 0.475600 0.611800
H1803 H 0.935300 0.559900 0.624700
H1804 H 0.961700 0.540600 0.656900
H1805 H 0.859000 0.605100 0.647300
H1806 H 0.822300 0.555700 0.650000
N1807 N 0.030100 -0.053410 0.874050
C1808 C 0.095220 -0.023590 0.870110
C1809 C 0.081960 0.039840 0.861380
N1810 N 0.148360 0.070460 0.858870
H1811 H 0.047400 -0.091500 0.879800
H1812 H 0.013000 -0.035400 0.888000
H1813 H 0.111700 -0.043900 0.856200
H1814 H 0.139400 -0.024400 0.888200
H1815 H 0.064700 0.059900 0.875300
H1816 H 0.038300 0.040600 0.843100
H1817 H 0.141000 0.105100 0.852700
H1818 H 0.177700 0.055700 0.850000
N1819 N 0.030100 0.553410 0.374050
C1820 C 0.095220 0.523590 0.370110
C1821 C 0.081960 0.460160 0.361380
N1822 N 0.148360 0.429540 0.358870
H1823 H 0.047400 0.591500 0.379800
H1824 H 0.013000 0.535400 0.388000
H1825 H 0.111700 0.543900 0.356200
H1826 H 0.139400 0.524400 0.388200
H1827 H 0.064700 0.440100 0.375300
H1828 H 0.038300 0.459400 0.343100
H1829 H 0.141000 0.394900 0.352700
H1830 H 0.177700 0.444300 0.350000
N1831 N 0.969900 1.053410 0.125950
C1832 C 0.904780 1.023590 0.129890
C1833 C 0.918040 0.960160 0.138620
N1834 N 0.851640 0.929540 0.141130
H1835 H 0.952600 1.091500 0.120200
H1836 H 0.987000 1.035400 0.112000
H1837 H 0.888300 1.043900 0.143800
H1838 H 0.860600 1.024400 0.111800
H1839 H 0.935300 0.940100 0.124700
H1840 H 0.961700 0.959400 0.156900
H1841 H 0.859000 0.894900 0.147300
H1842 H 0.822300 0.944300 0.150000
N1843 N 0.502100 0.606720 0.492240
C1844 C 0.500000 0.500000 0.500000
C1845 C 0.474330 0.561210 0.504710
N1846 N 0.474820 0.454660 0.513370
H1847 H 0.557500 0.607900 0.488400
H1848 H 0.497900 0.641200 0.501700
H1849 H 0.419100 0.564100 0.505000
H1850 H 0.513100 0.566700 0.523700
H1851 H 0.557900 0.494500 0.503700
H1852 H 0.470400 0.497000 0.479900
H1853 H 0.485800 0.419600 0.505800
H1854 H 0.417800 0.457800 0.509800
Mn1855 Mn 0.500000 0.500000 1.000000
Mn1856 Mn 0.767570 0.497400 0.754360
Pb1857 Pb 0.683010 0.474420 0.999660
Pb1858 Pb 0.563990 0.553580 0.953257
Pb1859 Pb 0.514570 0.423980 0.953870
Pb1860 Pb 0.440390 0.614150 0.982330
Pb1861 Pb 0.367420 0.511470 0.942734
Pb1862 Pb 0.362600 0.407200 0.982100
Pb1863 Pb 0.790550 0.603420 0.799120
Pb1864 Pb 0.901980 0.469180 0.723450
Pb1865 Pb 0.728280 0.517930 0.690600
Pb1866 Pb 0.748120 0.390390 0.710070
Pb1867 Pb 0.635670 0.524310 0.785770
Pb1868 Pb 0.809610 0.474980 0.818020
Pb1869 Pb 0.935470 0.517310 0.789450
Pb1870 Pb 0.838820 0.598660 0.739810
Pb1871 Pb 0.656040 0.604790 0.739530
Pb1872 Pb 0.600880 0.478620 0.719310
Pb1873 Pb 0.695930 0.395880 0.768520
Pb1874 Pb 0.880370 0.390520 0.770040
N1875 N 0.497900 0.393280 0.507760
C1876 C 0.525670 0.438790 0.495290
N1877 N 0.525180 0.545340 0.486630
H1878 H 0.442500 0.392100 0.511600
H1879 H 0.502100 0.358800 0.498300
H1880 H 0.580900 0.435900 0.495000
H1881 H 0.486900 0.433300 0.476300
H1882 H 0.442100 0.505500 0.496300
H1883 H 0.529600 0.503000 0.520100
H1884 H 0.514200 0.580400 0.494200
H1885 H 0.582200 0.542200 0.490200
Mn1886 Mn 0.500000 0.500000 0.000000
Mn1887 Mn 0.232430 0.502600 0.245640
Pb1888 Pb 0.316990 0.525580 0.000340
Pb1889 Pb 0.436010 0.446420 0.046743
Pb1890 Pb 0.485430 0.576020 0.046130
Pb1891 Pb 0.559610 0.385850 0.017670
Pb1892 Pb 0.632580 0.488530 0.057266
Pb1893 Pb 0.637400 0.592800 0.017900
Pb1894 Pb 0.209450 0.396580 0.200880
Pb1895 Pb 0.098020 0.530820 0.276550
Pb1896 Pb 0.271720 0.482070 0.309400
Pb1897 Pb 0.251880 0.609610 0.289930
Pb1898 Pb 0.364330 0.475690 0.214230
Pb1899 Pb 0.190390 0.525020 0.181980
Pb1900 Pb 0.064530 0.482690 0.210550
Pb1901 Pb 0.161180 0.401340 0.260190
Pb1902 Pb 0.343960 0.395210 0.260470
Pb1903 Pb 0.399120 0.521380 0.280690
Pb1904 Pb 0.304070 0.604120 0.231480
Pb1905 Pb 0.119630 0.609480 0.229960
N1906 N 0.497900 0.106720 1.007760
C1907 C 0.500000 0.000000 1.000000
C1908 C 0.525670 0.061210 0.995290
N1909 N 0.525180 -0.045340 0.986630
H1910 H 0.442500 0.107900 1.011600
H1911 H 0.502100 0.141200 0.998300
H1912 H 0.580900 0.064100 0.995000
H1913 H 0.486900 0.066700 0.976300
H1914 H 0.442100 -0.005500 0.996300
H1915 H 0.529600 -0.003000 1.020100
H1916 H 0.514200 -0.080400 0.994200
H1917 H 0.582200 -0.042200 0.990200
Mn1918 Mn 0.500000 0.000000 0.500000
Mn1919 Mn 0.232430 -0.002600 0.745640
Pb1920 Pb 0.316990 -0.025580 0.500340
Pb1921 Pb 0.436010 0.053580 0.546743
Pb1922 Pb 0.485430 -0.076020 0.546130
Pb1923 Pb 0.559610 0.114150 0.517670
Pb1924 Pb 0.632580 0.011470 0.557266
Pb1925 Pb 0.637400 -0.092800 0.517900
Pb1926 Pb 0.209450 0.103420 0.700880
Pb1927 Pb 0.098020 -0.030820 0.776550
Pb1928 Pb 0.271720 0.017930 0.809400
Pb1929 Pb 0.251880 -0.109610 0.789930
Pb1930 Pb 0.364330 0.024310 0.714230
Pb1931 Pb 0.190390 -0.025020 0.681980
Pb1932 Pb 0.064530 0.017310 0.710550
Pb1933 Pb 0.161180 0.098660 0.760190
Pb1934 Pb 0.343960 0.104790 0.760470
Pb1935 Pb 0.399120 -0.021380 0.780690
Pb1936 Pb 0.304070 -0.104120 0.731480
Pb1937 Pb 0.119630 -0.109480 0.729960
N1938 N 0.502100 0.893280 -0.007760
C1939 C 0.500000 1.000000 0.000000
C1940 C 0.474330 0.938790 0.004710
N1941 N 0.474820 1.045340 0.013370
H1942 H 0.557500 0.892100 -0.011600
H1943 H 0.497900 0.858800 0.001700
H1944 H 0.419100 0.935900 0.005000
H1945 H 0.513100 0.933300 0.023700
H1946 H 0.557900 1.005500 0.003700
H1947 H 0.470400 1.003000 -0.020100
H1948 H 0.485800 1.080400 0.005800
H1949 H 0.417800 1.042200 0.009800
Mn1950 Mn 0.500000 1.000000 0.500000
Mn1951 Mn 0.767570 1.002600 0.254360
Pb1952 Pb 0.683010 1.025580 0.499660
Pb1953 Pb 0.563990 0.946420 0.453257
Pb1954 Pb 0.514570 1.076020 0.453870
Pb1955 Pb 0.440390 0.885850 0.482330
Pb1956 Pb 0.367420 0.988530 0.442734
Pb1957 Pb 0.362600 1.092800 0.482100
Pb1958 Pb 0.790550 0.896580 0.299120
Pb1959 Pb 0.901980 1.030820 0.223450
Pb1960 Pb 0.728280 0.982070 0.190600
Pb1961 Pb 0.748120 1.109610 0.210070
Pb1962 Pb 0.635670 0.975690 0.285770
Pb1963 Pb 0.809610 1.025020 0.318020
Pb1964 Pb 0.935470 0.982690 0.289450
Pb1965 Pb 0.838820 0.901340 0.239810
Pb1966 Pb 0.656040 0.895210 0.239530
Pb1967 Pb 0.600880 1.021380 0.219310
Pb1968 Pb 0.695930 1.104120 0.268520
Pb1969 Pb 0.880370 1.109480 0.270040

#END
