
#######################################################################
#
#                 Cambridge Crystallographic Data Centre
#                                CCDC 
#
#######################################################################
#
# If this CIF has been generated from an entry in the Cambridge 
# Structural Database, then it will include bibliographic, chemical, 
# crystal, experimental, refinement or atomic coordinate data resulting 
# from the CCDC's data processing and validation procedures.
#
#######################################################################

data_ABOMUB
_symmetry_cell_setting           monoclinic
_symmetry_space_group_name_H-M   'P 21/c'
_symmetry_Int_Tables_number      14
_space_group_name_Hall           '-P 2ybc'
loop_
_symmetry_equiv_pos_site_id
_symmetry_equiv_pos_as_xyz
1 x,y,z
2 -x,1/2+y,1/2-z
3 -x,-y,-z
4 x,1/2-y,1/2+z
_cell_length_a                   17.4420(1)
_cell_length_b                   23.2970(2)
_cell_length_c                   50.4120(4)
_cell_angle_alpha                90
_cell_angle_beta                 110.2300(10)
_cell_angle_gamma                90
_cell_volume                     19221.1
loop_
_atom_site_label
_atom_site_type_symbol
_atom_site_fract_x
_atom_site_fract_y
_atom_site_fract_z
Mn1 Mn 0.73746(4) 0.50162(3) 0.747747(15)
Pb1 Pb 0.76013(4) 0.60633(3) 0.793224(18)
Pb2 Pb 0.60563(4) 0.52658(3) 0.779440(17)
Pb3 Pb 0.71842(4) 0.39592(3) 0.702753(18)
Pb4 Pb 0.87185(4) 0.47529(3) 0.716561(17)
Pb5 Pb 0.77988(5) 0.47725(4) 0.811262(18)
Pb6 Pb 0.62529(4) 0.60877(3) 0.733676(18)
Pb7 Pb 0.85090(4) 0.39494(3) 0.762684(19)
Pb8 Pb 0.69773(5) 0.52398(4) 0.684094(17)
Pb9 Pb 0.90540(4) 0.52151(3) 0.782899(17)
Pb10 Pb 0.80799(4) 0.60387(3) 0.733773(18)
Pb11 Pb 0.66641(4) 0.39910(3) 0.76126(2)
Pb12 Pb 0.57077(4) 0.48292(3) 0.712647(17)
Mn1 Mn 0.26254(4) 0.00162(3) 0.752253(15)
Pb1 Pb 0.23987(4) 0.10633(3) 0.706776(18)
Pb2 Pb 0.39437(4) 0.02658(3) 0.720560(17)
Pb3 Pb 0.28158(4) -0.10408(3) 0.797247(18)
Pb4 Pb 0.12815(4) -0.02471(3) 0.783439(17)
Pb5 Pb 0.22012(5) -0.02275(4) 0.688738(18)
Pb6 Pb 0.37471(4) 0.10877(3) 0.766324(18)
Pb7 Pb 0.14910(4) -0.10506(3) 0.737316(19)
Pb8 Pb 0.30227(5) 0.02398(4) 0.815906(17)
Pb9 Pb 0.09460(4) 0.02151(3) 0.717101(17)
Pb10 Pb 0.19201(4) 0.10387(3) 0.766227(18)
Pb11 Pb 0.33359(4) -0.10090(3) 0.73874(2)
Pb12 Pb 0.42923(4) -0.01708(3) 0.787353(17)
Mn1 Mn 0.26254(4) 0.49838(3) 0.252253(15)
Pb1 Pb 0.23987(4) 0.39367(3) 0.206776(18)
Pb2 Pb 0.39437(4) 0.47342(3) 0.220560(17)
Pb3 Pb 0.28158(4) 0.60408(3) 0.297247(18)
Pb4 Pb 0.12815(4) 0.52471(3) 0.283439(17)
Pb5 Pb 0.22012(5) 0.52275(4) 0.188738(18)
Pb6 Pb 0.37471(4) 0.39123(3) 0.266324(18)
Pb7 Pb 0.14910(4) 0.60506(3) 0.237316(19)
Pb8 Pb 0.30227(5) 0.47602(4) 0.315906(17)
Pb9 Pb 0.09460(4) 0.47849(3) 0.217101(17)
Pb10 Pb 0.19201(4) 0.39613(3) 0.266227(18)
Pb11 Pb 0.33359(4) 0.60090(3) 0.23874(2)
Pb12 Pb 0.42923(4) 0.51708(3) 0.287353(17)
Mn1 Mn 0.73746(4) 0.99838(3) 0.247747(15)
Pb1 Pb 0.76013(4) 0.89367(3) 0.293224(18)
Pb2 Pb 0.60563(4) 0.97342(3) 0.279440(17)
Pb3 Pb 0.71842(4) 1.10408(3) 0.202753(18)
Pb4 Pb 0.87185(4) 1.02471(3) 0.216561(17)
Pb5 Pb 0.77988(5) 1.02275(4) 0.311262(18)
Pb6 Pb 0.62529(4) 0.89123(3) 0.233676(18)
Pb7 Pb 0.85090(4) 1.10506(3) 0.262684(19)
Pb8 Pb 0.69773(5) 0.97602(4) 0.184094(17)
Pb9 Pb 0.90540(4) 0.97849(3) 0.282899(17)
Pb10 Pb 0.80799(4) 0.89613(3) 0.233773(18)
Pb11 Pb 0.66641(4) 1.10090(3) 0.26126(2)
Pb12 Pb 0.57077(4) 1.01708(3) 0.212647(17)
Mn2 Mn 0.0000 0.5000 0.5000
Pb13 Pb 0.04343(5) 0.44851(5) 0.44764(2)
Pb14 Pb 0.08104(5) 0.57713(5) 0.46211(3)
Pb15 Pb -0.10305(5) 0.53329(4) 0.44100(2)
Pb16 Pb -0.11777(5) 0.41560(4) 0.46948(2)
Pb17 Pb 0.06211(5) 0.38433(4) 0.50752(2)
Pb18 Pb 0.18468(5) 0.48308(4) 0.50252(2)
Pb13B Pb -0.04343(5) 0.55149(5) 0.55236(2)
Pb14B Pb -0.08104(5) 0.42287(5) 0.53789(3)
Pb15B Pb 0.10305(5) 0.46671(4) 0.55900(2)
Pb16B Pb 0.11777(5) 0.58440(4) 0.53052(2)
Pb17B Pb -0.06211(5) 0.61567(4) 0.49248(2)
Pb18B Pb -0.18468(5) 0.51692(4) 0.49748(2)
Mn2 Mn 1.0000 0.5000 0.5000
Pb13 Pb 1.04343(5) 0.44851(5) 0.44764(2)
Pb14 Pb 1.08104(5) 0.57713(5) 0.46211(3)
Pb15 Pb 0.89695(5) 0.53329(4) 0.44100(2)
Pb16 Pb 0.88223(5) 0.41560(4) 0.46948(2)
Pb17 Pb 1.06211(5) 0.38433(4) 0.50752(2)
Pb18 Pb 1.18468(5) 0.48308(4) 0.50252(2)
Pb13B Pb 0.95657(5) 0.55149(5) 0.55236(2)
Pb14B Pb 0.91896(5) 0.42287(5) 0.53789(3)
Pb15B Pb 1.10305(5) 0.46671(4) 0.55900(2)
Pb16B Pb 1.11777(5) 0.58440(4) 0.53052(2)
Pb17B Pb 0.93789(5) 0.61567(4) 0.49248(2)
Pb18B Pb 0.81532(5) 0.51692(4) 0.49748(2)
Mn2 Mn 0.0000 0.0000 0.0000
Pb13 Pb -0.04343(5) -0.05149(5) 0.05236(2)
Pb14 Pb -0.08104(5) 0.07713(5) 0.03789(3)
Pb15 Pb 0.10305(5) 0.03329(4) 0.05900(2)
Pb16 Pb 0.11777(5) -0.08440(4) 0.03052(2)
Pb17 Pb -0.06211(5) -0.11567(4) -0.00752(2)
Pb18 Pb -0.18468(5) -0.01692(4) -0.00252(2)
Pb13B Pb 0.04343(5) 0.05149(5) -0.05236(2)
Pb14B Pb 0.08104(5) -0.07713(5) -0.03789(3)
Pb15B Pb -0.10305(5) -0.03329(4) -0.05900(2)
Pb16B Pb -0.11777(5) 0.08440(4) -0.03052(2)
Pb17B Pb 0.06211(5) 0.11567(4) 0.00752(2)
Pb18B Pb 0.18468(5) 0.01692(4) 0.00252(2)
Mn2 Mn 0.0000 0.0000 1.0000
Pb13 Pb -0.04343(5) -0.05149(5) 1.05236(2)
Pb14 Pb -0.08104(5) 0.07713(5) 1.03789(3)
Pb15 Pb 0.10305(5) 0.03329(4) 1.05900(2)
Pb16 Pb 0.11777(5) -0.08440(4) 1.03052(2)
Pb17 Pb -0.06211(5) -0.11567(4) 0.99248(2)
Pb18 Pb -0.18468(5) -0.01692(4) 0.99748(2)
Pb13B Pb 0.04343(5) 0.05149(5) 0.94764(2)
Pb14B Pb 0.08104(5) -0.07713(5) 0.96211(3)
Pb15B Pb -0.10305(5) -0.03329(4) 0.94100(2)
Pb16B Pb -0.11777(5) 0.08440(4) 0.96948(2)
Pb17B Pb 0.06211(5) 0.11567(4) 1.00752(2)
Pb18B Pb 0.18468(5) 0.01692(4) 1.00252(2)
Mn2 Mn 0.0000 1.0000 0.0000
Pb13 Pb -0.04343(5) 0.94851(5) 0.05236(2)
Pb14 Pb -0.08104(5) 1.07713(5) 0.03789(3)
Pb15 Pb 0.10305(5) 1.03329(4) 0.05900(2)
Pb16 Pb 0.11777(5) 0.91560(4) 0.03052(2)
Pb17 Pb -0.06211(5) 0.88433(4) -0.00752(2)
Pb18 Pb -0.18468(5) 0.98308(4) -0.00252(2)
Pb13B Pb 0.04343(5) 1.05149(5) -0.05236(2)
Pb14B Pb 0.08104(5) 0.92287(5) -0.03789(3)
Pb15B Pb -0.10305(5) 0.96671(4) -0.05900(2)
Pb16B Pb -0.11777(5) 1.08440(4) -0.03052(2)
Pb17B Pb 0.06211(5) 1.11567(4) 0.00752(2)
Pb18B Pb 0.18468(5) 1.01692(4) 0.00252(2)
Mn2 Mn 0.0000 1.0000 1.0000
Pb13 Pb -0.04343(5) 0.94851(5) 1.05236(2)
Pb14 Pb -0.08104(5) 1.07713(5) 1.03789(3)
Pb15 Pb 0.10305(5) 1.03329(4) 1.05900(2)
Pb16 Pb 0.11777(5) 0.91560(4) 1.03052(2)
Pb17 Pb -0.06211(5) 0.88433(4) 0.99248(2)
Pb18 Pb -0.18468(5) 0.98308(4) 0.99748(2)
Pb13B Pb 0.04343(5) 1.05149(5) 0.94764(2)
Pb14B Pb 0.08104(5) 0.92287(5) 0.96211(3)
Pb15B Pb -0.10305(5) 0.96671(4) 0.94100(2)
Pb16B Pb -0.11777(5) 1.08440(4) 0.96948(2)
Pb17B Pb 0.06211(5) 1.11567(4) 1.00752(2)
Pb18B Pb 0.18468(5) 1.01692(4) 1.00252(2)
Mn2 Mn 1.0000 0.0000 0.0000
Pb13 Pb 0.95657(5) -0.05149(5) 0.05236(2)
Pb14 Pb 0.91896(5) 0.07713(5) 0.03789(3)
Pb15 Pb 1.10305(5) 0.03329(4) 0.05900(2)
Pb16 Pb 1.11777(5) -0.08440(4) 0.03052(2)
Pb17 Pb 0.93789(5) -0.11567(4) -0.00752(2)
Pb18 Pb 0.81532(5) -0.01692(4) -0.00252(2)
Pb13B Pb 1.04343(5) 0.05149(5) -0.05236(2)
Pb14B Pb 1.08104(5) -0.07713(5) -0.03789(3)
Pb15B Pb 0.89695(5) -0.03329(4) -0.05900(2)
Pb16B Pb 0.88223(5) 0.08440(4) -0.03052(2)
Pb17B Pb 1.06211(5) 0.11567(4) 0.00752(2)
Pb18B Pb 1.18468(5) 0.01692(4) 0.00252(2)
Mn2 Mn 1.0000 0.0000 1.0000
Pb13 Pb 0.95657(5) -0.05149(5) 1.05236(2)
Pb14 Pb 0.91896(5) 0.07713(5) 1.03789(3)
Pb15 Pb 1.10305(5) 0.03329(4) 1.05900(2)
Pb16 Pb 1.11777(5) -0.08440(4) 1.03052(2)
Pb17 Pb 0.93789(5) -0.11567(4) 0.99248(2)
Pb18 Pb 0.81532(5) -0.01692(4) 0.99748(2)
Pb13B Pb 1.04343(5) 0.05149(5) 0.94764(2)
Pb14B Pb 1.08104(5) -0.07713(5) 0.96211(3)
Pb15B Pb 0.89695(5) -0.03329(4) 0.94100(2)
Pb16B Pb 0.88223(5) 0.08440(4) 0.96948(2)
Pb17B Pb 1.06211(5) 0.11567(4) 1.00752(2)
Pb18B Pb 1.18468(5) 0.01692(4) 1.00252(2)
Mn2 Mn 1.0000 1.0000 0.0000
Pb13 Pb 0.95657(5) 0.94851(5) 0.05236(2)
Pb14 Pb 0.91896(5) 1.07713(5) 0.03789(3)
Pb15 Pb 1.10305(5) 1.03329(4) 0.05900(2)
Pb16 Pb 1.11777(5) 0.91560(4) 0.03052(2)
Pb17 Pb 0.93789(5) 0.88433(4) -0.00752(2)
Pb18 Pb 0.81532(5) 0.98308(4) -0.00252(2)
Pb13B Pb 1.04343(5) 1.05149(5) -0.05236(2)
Pb14B Pb 1.08104(5) 0.92287(5) -0.03789(3)
Pb15B Pb 0.89695(5) 0.96671(4) -0.05900(2)
Pb16B Pb 0.88223(5) 1.08440(4) -0.03052(2)
Pb17B Pb 1.06211(5) 1.11567(4) 0.00752(2)
Pb18B Pb 1.18468(5) 1.01692(4) 0.00252(2)
Mn2 Mn 1.0000 1.0000 1.0000
Pb13 Pb 0.95657(5) 0.94851(5) 1.05236(2)
Pb14 Pb 0.91896(5) 1.07713(5) 1.03789(3)
Pb15 Pb 1.10305(5) 1.03329(4) 1.05900(2)
Pb16 Pb 1.11777(5) 0.91560(4) 1.03052(2)
Pb17 Pb 0.93789(5) 0.88433(4) 0.99248(2)
Pb18 Pb 0.81532(5) 0.98308(4) 0.99748(2)
Pb13B Pb 1.04343(5) 1.05149(5) 0.94764(2)
Pb14B Pb 1.08104(5) 0.92287(5) 0.96211(3)
Pb15B Pb 0.89695(5) 0.96671(4) 0.94100(2)
Pb16B Pb 0.88223(5) 1.08440(4) 0.96948(2)
Pb17B Pb 1.06211(5) 1.11567(4) 1.00752(2)
Pb18B Pb 1.18468(5) 1.01692(4) 1.00252(2)
Mn3 Mn 0.5000 0.5000 0.0000
Pb19 Pb 0.31246(3) 0.52487(4) -0.004462(19)
Pb20 Pb 0.41683(5) 0.43212(4) 0.037852(19)
Pb21 Pb 0.47435(5) 0.56002(4) 0.049022(15)
Pb22 Pb 0.54971(5) 0.38161(2) 0.01000(2)
Pb23 Pb 0.61772(4) 0.46998(4) 0.058164(12)
Pb24 Pb 0.64131(4) 0.58578(3) 0.02944(2)
Pb19B Pb 0.68754(3) 0.47513(4) 0.004462(19)
Pb20B Pb 0.58317(5) 0.56788(4) -0.037852(19)
Pb21B Pb 0.52565(5) 0.43998(4) -0.049022(15)
Pb22B Pb 0.45029(5) 0.61839(2) -0.01000(2)
Pb23B Pb 0.38228(4) 0.53002(4) -0.058164(12)
Pb24B Pb 0.35869(4) 0.41422(3) -0.02944(2)
Mn3 Mn 0.5000 0.5000 1.0000
Pb19 Pb 0.31246(3) 0.52487(4) 0.995538(19)
Pb20 Pb 0.41683(5) 0.43212(4) 1.037852(19)
Pb21 Pb 0.47435(5) 0.56002(4) 1.049022(15)
Pb22 Pb 0.54971(5) 0.38161(2) 1.01000(2)
Pb23 Pb 0.61772(4) 0.46998(4) 1.058164(12)
Pb24 Pb 0.64131(4) 0.58578(3) 1.02944(2)
Pb19B Pb 0.68754(3) 0.47513(4) 1.004462(19)
Pb20B Pb 0.58317(5) 0.56788(4) 0.962148(19)
Pb21B Pb 0.52565(5) 0.43998(4) 0.950978(15)
Pb22B Pb 0.45029(5) 0.61839(2) 0.99000(2)
Pb23B Pb 0.38228(4) 0.53002(4) 0.941836(12)
Pb24B Pb 0.35869(4) 0.41422(3) 0.97056(2)
Mn3 Mn 0.5000 0.0000 0.5000
Pb19 Pb 0.68754(3) 0.02487(4) 0.504462(19)
Pb20 Pb 0.58317(5) -0.06788(4) 0.462148(19)
Pb21 Pb 0.52565(5) 0.06002(4) 0.450978(15)
Pb22 Pb 0.45029(5) -0.11839(2) 0.49000(2)
Pb23 Pb 0.38228(4) -0.03002(4) 0.441836(12)
Pb24 Pb 0.35869(4) 0.08578(3) 0.47056(2)
Pb19B Pb 0.31246(3) -0.02487(4) 0.495538(19)
Pb20B Pb 0.41683(5) 0.06788(4) 0.537852(19)
Pb21B Pb 0.47435(5) -0.06002(4) 0.549022(15)
Pb22B Pb 0.54971(5) 0.11839(2) 0.51000(2)
Pb23B Pb 0.61772(4) 0.03002(4) 0.558164(12)
Pb24B Pb 0.64131(4) -0.08578(3) 0.52944(2)
Mn3 Mn 0.5000 1.0000 0.5000
Pb19 Pb 0.68754(3) 1.02487(4) 0.504462(19)
Pb20 Pb 0.58317(5) 0.93212(4) 0.462148(19)
Pb21 Pb 0.52565(5) 1.06002(4) 0.450978(15)
Pb22 Pb 0.45029(5) 0.88161(2) 0.49000(2)
Pb23 Pb 0.38228(4) 0.96998(4) 0.441836(12)
Pb24 Pb 0.35869(4) 1.08578(3) 0.47056(2)
Pb19B Pb 0.31246(3) 0.97513(4) 0.495538(19)
Pb20B Pb 0.41683(5) 1.06788(4) 0.537852(19)
Pb21B Pb 0.47435(5) 0.93998(4) 0.549022(15)
Pb22B Pb 0.54971(5) 1.11839(2) 0.51000(2)
Pb23B Pb 0.61772(4) 1.03002(4) 0.558164(12)
Pb24B Pb 0.64131(4) 0.91422(3) 0.52944(2)
K1 K 0.58224(9) 0.63355(8) 0.58678(7)
N1 N 0.45201(9) 0.55454(9) 0.59391(9)
N2 N 0.70930(9) 0.70985(9) 0.57729(9)
O1 O 0.56327(9) 0.63098(9) 0.63836(9)
O2 O 0.67029(9) 0.71499(9) 0.62909(9)
O3 O 0.41289(9) 0.65325(9) 0.55680(9)
O4 O 0.53360(9) 0.71297(9) 0.54222(9)
O5 O 0.58405(9) 0.51381(9) 0.57699(9)
O6 O 0.71485(9) 0.58258(9) 0.57558(9)
C1 C 0.46890(5) 0.55214(5) 0.62416(5)
C2 C 0.49199(5) 0.60573(5) 0.64084(5)
C3 C 0.59015(5) 0.67708(5) 0.65527(5)
C4 C 0.67446(5) 0.69704(5) 0.65774(5)
C5 C 0.74588(5) 0.72809(5) 0.63018(5)
C6 C 0.73727(5) 0.75045(5) 0.59949(5)
C7 C 0.36812(5) 0.57801(5) 0.58034(5)
C8 C 0.35970(5) 0.60382(5) 0.55268(5)
C9 C 0.39396(5) 0.68562(5) 0.53069(5)
C10 C 0.44906(5) 0.73282(5) 0.53658(5)
C11 C 0.59119(5) 0.75856(5) 0.54478(5)
C12 C 0.66994(5) 0.73902(5) 0.54969(5)
C13 C 0.45700(5) 0.49723(5) 0.58216(5)
C14 C 0.54143(5) 0.47716(5) 0.59042(5)
C15 C 0.66433(5) 0.49169(5) 0.58055(5)
C16 C 0.70156(5) 0.52987(5) 0.56352(5)
C17 C 0.75580(5) 0.61520(5) 0.56356(5)
C18 C 0.77609(5) 0.67219(5) 0.57754(5)
H1 H 0.4199 0.5373 0.6267
H2 H 0.5135 0.5253 0.6321
H3 H 0.5021 0.5979 0.6607
H4 H 0.4474 0.6331 0.6339
H5 H 0.5917 0.6666 0.6741
H6 H 0.5515 0.7083 0.6481
H7 H 0.6899 0.7294 0.6706
H8 H 0.7143 0.6665 0.6646
H9 H 0.7913 0.7629 0.6004
H10 H 0.7001 0.7829 0.5949
H11 H 0.3594 0.6080 0.5923
H12 H 0.3281 0.5479 0.5781
H13 H 0.3035 0.6159 0.5432
H14 H 0.3745 0.5757 0.5411
H15 H 0.3384 0.7000 0.5250
H16 H 0.4002 0.6621 0.5157
H17 H 0.4477 0.7529 0.5533
H18 H 0.4332 0.7588 0.5206
H19 H 0.4261 0.4704 0.5892
H20 H 0.4328 0.4996 0.5617
H21 H 0.5684 0.4774 0.6108
H22 H 0.5403 0.4383 0.5834
H23 H 0.6974 0.4923 0.6005
H24 H 0.6604 0.4527 0.5735
H25 H 0.7531 0.5140 0.5637
H26 H 0.6645 0.5332 0.5442
H27 H 0.8057 0.5959 0.5642
H28 H 0.7216 0.6218 0.5440
H29 H 0.8080 0.6645 0.5972
H30 H 0.8093 0.6930 0.5688
H31 H 0.7687 0.7578 0.6442
H32 H 0.7805 0.6943 0.6349
H33 H 0.5913 0.7825 0.5606
H34 H 0.5740 0.7812 0.5276
H35 H 0.7033 0.7716 0.5487
H36 H 0.6678 0.7119 0.5349
K1 K 0.41776(9) 0.13355(8) 0.91322(7)
N1 N 0.54799(9) 0.05454(9) 0.90609(9)
N2 N 0.29070(9) 0.20985(9) 0.92271(9)
O1 O 0.43673(9) 0.13098(9) 0.86164(9)
O2 O 0.32971(9) 0.21499(9) 0.87091(9)
O3 O 0.58711(9) 0.15325(9) 0.94320(9)
O4 O 0.46640(9) 0.21297(9) 0.95778(9)
O5 O 0.41595(9) 0.01381(9) 0.92301(9)
O6 O 0.28515(9) 0.08258(9) 0.92442(9)
C1 C 0.53110(5) 0.05214(5) 0.87584(5)
C2 C 0.50801(5) 0.10573(5) 0.85916(5)
C3 C 0.40985(5) 0.17708(5) 0.84473(5)
C4 C 0.32554(5) 0.19704(5) 0.84226(5)
C5 C 0.25412(5) 0.22809(5) 0.86982(5)
C6 C 0.26273(5) 0.25045(5) 0.90051(5)
C7 C 0.63188(5) 0.07801(5) 0.91966(5)
C8 C 0.64030(5) 0.10382(5) 0.94732(5)
C9 C 0.60604(5) 0.18562(5) 0.96931(5)
C10 C 0.55094(5) 0.23282(5) 0.96342(5)
C11 C 0.40881(5) 0.25856(5) 0.95522(5)
C12 C 0.33006(5) 0.23902(5) 0.95031(5)
C13 C 0.54300(5) -0.00277(5) 0.91784(5)
C14 C 0.45857(5) -0.02284(5) 0.90958(5)
C15 C 0.33567(5) -0.00831(5) 0.91945(5)
C16 C 0.29844(5) 0.02987(5) 0.93648(5)
C17 C 0.24420(5) 0.11520(5) 0.93644(5)
C18 C 0.22391(5) 0.17219(5) 0.92246(5)
H1 H 0.5801 0.0373 0.8733
H2 H 0.4865 0.0253 0.8679
H3 H 0.4979 0.0979 0.8393
H4 H 0.5526 0.1331 0.8661
H5 H 0.4083 0.1666 0.8259
H6 H 0.4485 0.2083 0.8519
H7 H 0.3101 0.2294 0.8294
H8 H 0.2857 0.1665 0.8354
H9 H 0.2087 0.2629 0.8996
H10 H 0.2999 0.2829 0.9051
H11 H 0.6406 0.1080 0.9077
H12 H 0.6719 0.0479 0.9219
H13 H 0.6965 0.1159 0.9568
H14 H 0.6255 0.0757 0.9589
H15 H 0.6616 0.2000 0.9750
H16 H 0.5998 0.1621 0.9843
H17 H 0.5523 0.2529 0.9467
H18 H 0.5668 0.2588 0.9794
H19 H 0.5739 -0.0296 0.9108
H20 H 0.5672 -0.0004 0.9383
H21 H 0.4316 -0.0226 0.8892
H22 H 0.4597 -0.0617 0.9166
H23 H 0.3026 -0.0077 0.8995
H24 H 0.3396 -0.0473 0.9265
H25 H 0.2469 0.0140 0.9363
H26 H 0.3355 0.0332 0.9558
H27 H 0.1943 0.0959 0.9358
H28 H 0.2784 0.1218 0.9560
H29 H 0.1920 0.1645 0.9028
H30 H 0.1907 0.1930 0.9312
H31 H 0.2313 0.2578 0.8558
H32 H 0.2195 0.1943 0.8651
H33 H 0.4087 0.2825 0.9394
H34 H 0.4260 0.2812 0.9724
H35 H 0.2967 0.2716 0.9513
H36 H 0.3322 0.2119 0.9651
K1 K 0.41776(9) 0.36645(8) 0.41322(7)
N1 N 0.54799(9) 0.44546(9) 0.40609(9)
N2 N 0.29070(9) 0.29015(9) 0.42271(9)
O1 O 0.43673(9) 0.36902(9) 0.36164(9)
O2 O 0.32971(9) 0.28501(9) 0.37091(9)
O3 O 0.58711(9) 0.34675(9) 0.44320(9)
O4 O 0.46640(9) 0.28703(9) 0.45778(9)
O5 O 0.41595(9) 0.48619(9) 0.42301(9)
O6 O 0.28515(9) 0.41742(9) 0.42442(9)
C1 C 0.53110(5) 0.44786(5) 0.37584(5)
C2 C 0.50801(5) 0.39427(5) 0.35916(5)
C3 C 0.40985(5) 0.32292(5) 0.34473(5)
C4 C 0.32554(5) 0.30296(5) 0.34226(5)
C5 C 0.25412(5) 0.27191(5) 0.36982(5)
C6 C 0.26273(5) 0.24955(5) 0.40051(5)
C7 C 0.63188(5) 0.42199(5) 0.41966(5)
C8 C 0.64030(5) 0.39618(5) 0.44732(5)
C9 C 0.60604(5) 0.31438(5) 0.46931(5)
C10 C 0.55094(5) 0.26718(5) 0.46342(5)
C11 C 0.40881(5) 0.24144(5) 0.45522(5)
C12 C 0.33006(5) 0.26098(5) 0.45031(5)
C13 C 0.54300(5) 0.50277(5) 0.41784(5)
C14 C 0.45857(5) 0.52284(5) 0.40958(5)
C15 C 0.33567(5) 0.50831(5) 0.41945(5)
C16 C 0.29844(5) 0.47013(5) 0.43648(5)
C17 C 0.24420(5) 0.38480(5) 0.43644(5)
C18 C 0.22391(5) 0.32781(5) 0.42246(5)
H1 H 0.5801 0.4627 0.3733
H2 H 0.4865 0.4747 0.3679
H3 H 0.4979 0.4021 0.3393
H4 H 0.5526 0.3669 0.3661
H5 H 0.4083 0.3334 0.3259
H6 H 0.4485 0.2917 0.3519
H7 H 0.3101 0.2706 0.3294
H8 H 0.2857 0.3335 0.3354
H9 H 0.2087 0.2371 0.3996
H10 H 0.2999 0.2171 0.4051
H11 H 0.6406 0.3920 0.4077
H12 H 0.6719 0.4521 0.4219
H13 H 0.6965 0.3841 0.4568
H14 H 0.6255 0.4243 0.4589
H15 H 0.6616 0.3000 0.4750
H16 H 0.5998 0.3379 0.4843
H17 H 0.5523 0.2471 0.4467
H18 H 0.5668 0.2412 0.4794
H19 H 0.5739 0.5296 0.4108
H20 H 0.5672 0.5004 0.4383
H21 H 0.4316 0.5226 0.3892
H22 H 0.4597 0.5617 0.4166
H23 H 0.3026 0.5077 0.3995
H24 H 0.3396 0.5473 0.4265
H25 H 0.2469 0.4860 0.4363
H26 H 0.3355 0.4668 0.4558
H27 H 0.1943 0.4041 0.4358
H28 H 0.2784 0.3782 0.4560
H29 H 0.1920 0.3355 0.4028
H30 H 0.1907 0.3070 0.4312
H31 H 0.2313 0.2422 0.3558
H32 H 0.2195 0.3057 0.3651
H33 H 0.4087 0.2175 0.4394
H34 H 0.4260 0.2188 0.4724
H35 H 0.2967 0.2284 0.4513
H36 H 0.3322 0.2881 0.4651
K1 K 0.58224(9) 0.86645(8) 0.08678(7)
N1 N 0.45201(9) 0.94546(9) 0.09391(9)
N2 N 0.70930(9) 0.79015(9) 0.07729(9)
O1 O 0.56327(9) 0.86902(9) 0.13836(9)
O2 O 0.67029(9) 0.78501(9) 0.12909(9)
O3 O 0.41289(9) 0.84675(9) 0.05680(9)
O4 O 0.53360(9) 0.78703(9) 0.04222(9)
O5 O 0.58405(9) 0.98619(9) 0.07699(9)
O6 O 0.71485(9) 0.91742(9) 0.07558(9)
C1 C 0.46890(5) 0.94786(5) 0.12416(5)
C2 C 0.49199(5) 0.89427(5) 0.14084(5)
C3 C 0.59015(5) 0.82292(5) 0.15527(5)
C4 C 0.67446(5) 0.80296(5) 0.15774(5)
C5 C 0.74588(5) 0.77191(5) 0.13018(5)
C6 C 0.73727(5) 0.74955(5) 0.09949(5)
C7 C 0.36812(5) 0.92199(5) 0.08034(5)
C8 C 0.35970(5) 0.89618(5) 0.05268(5)
C9 C 0.39396(5) 0.81438(5) 0.03069(5)
C10 C 0.44906(5) 0.76718(5) 0.03658(5)
C11 C 0.59119(5) 0.74144(5) 0.04478(5)
C12 C 0.66994(5) 0.76098(5) 0.04969(5)
C13 C 0.45700(5) 1.00277(5) 0.08216(5)
C14 C 0.54143(5) 1.02284(5) 0.09042(5)
C15 C 0.66433(5) 1.00831(5) 0.08055(5)
C16 C 0.70156(5) 0.97013(5) 0.06352(5)
C17 C 0.75580(5) 0.88480(5) 0.06356(5)
C18 C 0.77609(5) 0.82781(5) 0.07754(5)
H1 H 0.4199 0.9627 0.1267
H2 H 0.5135 0.9747 0.1321
H3 H 0.5021 0.9021 0.1607
H4 H 0.4474 0.8669 0.1339
H5 H 0.5917 0.8334 0.1741
H6 H 0.5515 0.7917 0.1481
H7 H 0.6899 0.7706 0.1706
H8 H 0.7143 0.8335 0.1646
H9 H 0.7913 0.7371 0.1004
H10 H 0.7001 0.7171 0.0949
H11 H 0.3594 0.8920 0.0923
H12 H 0.3281 0.9521 0.0781
H13 H 0.3035 0.8841 0.0432
H14 H 0.3745 0.9243 0.0411
H15 H 0.3384 0.8000 0.0250
H16 H 0.4002 0.8379 0.0157
H17 H 0.4477 0.7471 0.0533
H18 H 0.4332 0.7412 0.0206
H19 H 0.4261 1.0296 0.0892
H20 H 0.4328 1.0004 0.0617
H21 H 0.5684 1.0226 0.1108
H22 H 0.5403 1.0617 0.0834
H23 H 0.6974 1.0077 0.1005
H24 H 0.6604 1.0473 0.0735
H25 H 0.7531 0.9860 0.0637
H26 H 0.6645 0.9668 0.0442
H27 H 0.8057 0.9041 0.0642
H28 H 0.7216 0.8782 0.0440
H29 H 0.8080 0.8355 0.0972
H30 H 0.8093 0.8070 0.0688
H31 H 0.7687 0.7422 0.1442
H32 H 0.7805 0.8057 0.1349
H33 H 0.5913 0.7175 0.0606
H34 H 0.5740 0.7188 0.0276
H35 H 0.7033 0.7284 0.0487
H36 H 0.6678 0.7881 0.0349
K2 K 0.57748(9) 0.75154(8) 0.89142(7)
N3 N 0.49323(9) 0.72280(9) 0.82971(9)
N4 N 0.66453(9) 0.78066(9) 0.95264(9)
O7 O 0.58110(9) 0.83252(9) 0.84952(9)
O8 O 0.63712(9) 0.86449(9) 0.90701(9)
O9 O 0.63500(9) 0.65973(9) 0.86723(9)
O10 O 0.72971(9) 0.69806(9) 0.92226(9)
O11 O 0.40818(9) 0.72152(9) 0.87161(9)
O12 O 0.49610(9) 0.73420(9) 0.92972(9)
C19 C 0.51154(5) 0.76706(5) 0.81237(5)
C20 C 0.51287(5) 0.82750(5) 0.82306(5)
C21 C 0.59008(5) 0.89119(5) 0.85825(5)
C22 C 0.65968(5) 0.89218(5) 0.88569(5)
C23 C 0.69577(5) 0.87067(5) 0.93535(5)
C24 C 0.66611(5) 0.84453(5) 0.95569(5)
C25 C 0.52413(5) 0.66623(5) 0.82410(5)
C26 C 0.61169(5) 0.65646(5) 0.83738(5)
C27 C 0.72069(5) 0.64862(5) 0.88197(5)
C28 C 0.73954(5) 0.64643(5) 0.91119(5)
C29 C 0.74987(5) 0.69636(5) 0.95182(5)
C30 C 0.74740(5) 0.75528(5) 0.96201(5)
C31 C 0.40413(5) 0.72141(5) 0.82377(5)
C32 C 0.38099(5) 0.68931(5) 0.84553(5)
C33 C 0.38544(5) 0.69354(5) 0.89316(5)
C34 C 0.41112(5) 0.73066(5) 0.91846(5)
C35 C 0.52523(5) 0.76665(5) 0.95659(5)
C36 C 0.60993(5) 0.75858(5) 0.96792(5)
H37 H 0.5647 0.7586 0.8112
H38 H 0.4702 0.7652 0.7937
H39 H 0.4618 0.8364 0.8258
H40 H 0.5212 0.8540 0.8095
H41 H 0.5404 0.9051 0.8606
H42 H 0.6023 0.9145 0.8443
H43 H 0.6742 0.9317 0.8911
H44 H 0.7062 0.8725 0.8836
H45 H 0.7060 0.9112 0.9395
H46 H 0.7461 0.8518 0.9361
H47 H 0.7029 0.8549 0.9744
H48 H 0.6117 0.8588 0.9531
H49 H 0.4958 0.6363 0.8305
H50 H 0.5115 0.6627 0.8039
H51 H 0.6410 0.6861 0.8313
H52 H 0.6261 0.6192 0.8320
H53 H 0.8043 0.6804 0.9607
H54 H 0.7103 0.6729 0.9565
H55 H 0.7676 0.7542 0.9825
H56 H 0.7822 0.7799 0.9555
H57 H 0.3848 0.7606 0.8232
H58 H 0.3776 0.7033 0.8055
H59 H 0.3221 0.6847 0.8392
H60 H 0.4069 0.6519 0.8486
H61 H 0.4118 0.6563 0.8976
H62 H 0.3266 0.6886 0.8865
H63 H 0.3914 0.7150 0.9327
H64 H 0.3891 0.7689 0.9134
H65 H 0.4981 0.7529 0.9692
H66 H 0.5136 0.8072 0.9528
H67 H 0.6277 0.7775 0.9861
H68 H 0.6189 0.7176 0.9706
H69 H 0.7520 0.6791 0.8774
H70 H 0.7350 0.6121 0.8756
H71 H 0.7966 0.6357 0.9199
H72 H 0.7054 0.6180 0.9158
K2 K 0.42252(9) 0.25154(8) 0.60858(7)
N3 N 0.50677(9) 0.22280(9) 0.67029(9)
N4 N 0.33547(9) 0.28066(9) 0.54736(9)
O7 O 0.41890(9) 0.33252(9) 0.65048(9)
O8 O 0.36288(9) 0.36449(9) 0.59299(9)
O9 O 0.36500(9) 0.15973(9) 0.63277(9)
O10 O 0.27029(9) 0.19806(9) 0.57774(9)
O11 O 0.59182(9) 0.22152(9) 0.62839(9)
O12 O 0.50390(9) 0.23420(9) 0.57028(9)
C19 C 0.48846(5) 0.26706(5) 0.68763(5)
C20 C 0.48713(5) 0.32750(5) 0.67694(5)
C21 C 0.40992(5) 0.39119(5) 0.64175(5)
C22 C 0.34032(5) 0.39218(5) 0.61431(5)
C23 C 0.30423(5) 0.37067(5) 0.56465(5)
C24 C 0.33389(5) 0.34453(5) 0.54431(5)
C25 C 0.47587(5) 0.16623(5) 0.67590(5)
C26 C 0.38831(5) 0.15646(5) 0.66262(5)
C27 C 0.27931(5) 0.14862(5) 0.61803(5)
C28 C 0.26046(5) 0.14643(5) 0.58881(5)
C29 C 0.25013(5) 0.19636(5) 0.54818(5)
C30 C 0.25260(5) 0.25528(5) 0.53799(5)
C31 C 0.59587(5) 0.22141(5) 0.67623(5)
C32 C 0.61901(5) 0.18931(5) 0.65447(5)
C33 C 0.61456(5) 0.19354(5) 0.60684(5)
C34 C 0.58888(5) 0.23066(5) 0.58154(5)
C35 C 0.47477(5) 0.26665(5) 0.54341(5)
C36 C 0.39007(5) 0.25858(5) 0.53208(5)
H37 H 0.4353 0.2586 0.6888
H38 H 0.5298 0.2652 0.7063
H39 H 0.5382 0.3364 0.6742
H40 H 0.4788 0.3540 0.6905
H41 H 0.4596 0.4051 0.6394
H42 H 0.3977 0.4145 0.6557
H43 H 0.3258 0.4317 0.6089
H44 H 0.2938 0.3725 0.6164
H45 H 0.2940 0.4112 0.5605
H46 H 0.2539 0.3518 0.5639
H47 H 0.2971 0.3549 0.5256
H48 H 0.3883 0.3588 0.5469
H49 H 0.5042 0.1363 0.6695
H50 H 0.4885 0.1627 0.6961
H51 H 0.3590 0.1861 0.6687
H52 H 0.3739 0.1192 0.6680
H53 H 0.1957 0.1804 0.5393
H54 H 0.2897 0.1729 0.5435
H55 H 0.2324 0.2542 0.5175
H56 H 0.2178 0.2799 0.5445
H57 H 0.6152 0.2606 0.6768
H58 H 0.6224 0.2033 0.6945
H59 H 0.6779 0.1847 0.6608
H60 H 0.5931 0.1519 0.6514
H61 H 0.5882 0.1563 0.6024
H62 H 0.6734 0.1886 0.6135
H63 H 0.6086 0.2150 0.5673
H64 H 0.6109 0.2689 0.5866
H65 H 0.5019 0.2529 0.5308
H66 H 0.4864 0.3072 0.5472
H67 H 0.3723 0.2775 0.5139
H68 H 0.3811 0.2176 0.5294
H69 H 0.2480 0.1791 0.6226
H70 H 0.2650 0.1121 0.6244
H71 H 0.2034 0.1357 0.5801
H72 H 0.2946 0.1180 0.5842
K2 K 0.42252(9) 0.24846(8) 0.10858(7)
N3 N 0.50677(9) 0.27720(9) 0.17029(9)
N4 N 0.33547(9) 0.21934(9) 0.04736(9)
O7 O 0.41890(9) 0.16748(9) 0.15048(9)
O8 O 0.36288(9) 0.13551(9) 0.09299(9)
O9 O 0.36500(9) 0.34027(9) 0.13277(9)
O10 O 0.27029(9) 0.30194(9) 0.07774(9)
O11 O 0.59182(9) 0.27848(9) 0.12839(9)
O12 O 0.50390(9) 0.26580(9) 0.07028(9)
C19 C 0.48846(5) 0.23294(5) 0.18763(5)
C20 C 0.48713(5) 0.17250(5) 0.17694(5)
C21 C 0.40992(5) 0.10881(5) 0.14175(5)
C22 C 0.34032(5) 0.10782(5) 0.11431(5)
C23 C 0.30423(5) 0.12933(5) 0.06465(5)
C24 C 0.33389(5) 0.15547(5) 0.04431(5)
C25 C 0.47587(5) 0.33377(5) 0.17590(5)
C26 C 0.38831(5) 0.34354(5) 0.16262(5)
C27 C 0.27931(5) 0.35138(5) 0.11803(5)
C28 C 0.26046(5) 0.35357(5) 0.08881(5)
C29 C 0.25013(5) 0.30364(5) 0.04818(5)
C30 C 0.25260(5) 0.24472(5) 0.03799(5)
C31 C 0.59587(5) 0.27859(5) 0.17623(5)
C32 C 0.61901(5) 0.31069(5) 0.15447(5)
C33 C 0.61456(5) 0.30646(5) 0.10684(5)
C34 C 0.58888(5) 0.26934(5) 0.08154(5)
C35 C 0.47477(5) 0.23335(5) 0.04341(5)
C36 C 0.39007(5) 0.24142(5) 0.03208(5)
H37 H 0.4353 0.2414 0.1888
H38 H 0.5298 0.2348 0.2063
H39 H 0.5382 0.1636 0.1742
H40 H 0.4788 0.1460 0.1905
H41 H 0.4596 0.0949 0.1394
H42 H 0.3977 0.0855 0.1557
H43 H 0.3258 0.0683 0.1089
H44 H 0.2938 0.1275 0.1164
H45 H 0.2940 0.0888 0.0605
H46 H 0.2539 0.1482 0.0639
H47 H 0.2971 0.1451 0.0256
H48 H 0.3883 0.1412 0.0469
H49 H 0.5042 0.3637 0.1695
H50 H 0.4885 0.3373 0.1961
H51 H 0.3590 0.3139 0.1687
H52 H 0.3739 0.3808 0.1680
H53 H 0.1957 0.3196 0.0393
H54 H 0.2897 0.3271 0.0435
H55 H 0.2324 0.2458 0.0175
H56 H 0.2178 0.2201 0.0445
H57 H 0.6152 0.2394 0.1768
H58 H 0.6224 0.2967 0.1945
H59 H 0.6779 0.3153 0.1608
H60 H 0.5931 0.3481 0.1514
H61 H 0.5882 0.3437 0.1024
H62 H 0.6734 0.3114 0.1135
H63 H 0.6086 0.2850 0.0673
H64 H 0.6109 0.2311 0.0866
H65 H 0.5019 0.2471 0.0308
H66 H 0.4864 0.1928 0.0472
H67 H 0.3723 0.2225 0.0139
H68 H 0.3811 0.2824 0.0294
H69 H 0.2480 0.3209 0.1226
H70 H 0.2650 0.3879 0.1244
H71 H 0.2034 0.3643 0.0801
H72 H 0.2946 0.3820 0.0842
K2 K 0.57748(9) 0.74846(8) 0.39142(7)
N3 N 0.49323(9) 0.77720(9) 0.32971(9)
N4 N 0.66453(9) 0.71934(9) 0.45264(9)
O7 O 0.58110(9) 0.66748(9) 0.34952(9)
O8 O 0.63712(9) 0.63551(9) 0.40701(9)
O9 O 0.63500(9) 0.84027(9) 0.36723(9)
O10 O 0.72971(9) 0.80194(9) 0.42226(9)
O11 O 0.40818(9) 0.77848(9) 0.37161(9)
O12 O 0.49610(9) 0.76580(9) 0.42972(9)
C19 C 0.51154(5) 0.73294(5) 0.31237(5)
C20 C 0.51287(5) 0.67250(5) 0.32306(5)
C21 C 0.59008(5) 0.60881(5) 0.35825(5)
C22 C 0.65968(5) 0.60782(5) 0.38569(5)
C23 C 0.69577(5) 0.62933(5) 0.43535(5)
C24 C 0.66611(5) 0.65547(5) 0.45569(5)
C25 C 0.52413(5) 0.83377(5) 0.32410(5)
C26 C 0.61169(5) 0.84354(5) 0.33738(5)
C27 C 0.72069(5) 0.85138(5) 0.38197(5)
C28 C 0.73954(5) 0.85357(5) 0.41119(5)
C29 C 0.74987(5) 0.80364(5) 0.45182(5)
C30 C 0.74740(5) 0.74472(5) 0.46201(5)
C31 C 0.40413(5) 0.77859(5) 0.32377(5)
C32 C 0.38099(5) 0.81069(5) 0.34553(5)
C33 C 0.38544(5) 0.80646(5) 0.39316(5)
C34 C 0.41112(5) 0.76934(5) 0.41846(5)
C35 C 0.52523(5) 0.73335(5) 0.45659(5)
C36 C 0.60993(5) 0.74142(5) 0.46792(5)
H37 H 0.5647 0.7414 0.3112
H38 H 0.4702 0.7348 0.2937
H39 H 0.4618 0.6636 0.3258
H40 H 0.5212 0.6460 0.3095
H41 H 0.5404 0.5949 0.3606
H42 H 0.6023 0.5855 0.3443
H43 H 0.6742 0.5683 0.3911
H44 H 0.7062 0.6275 0.3836
H45 H 0.7060 0.5888 0.4395
H46 H 0.7461 0.6482 0.4361
H47 H 0.7029 0.6451 0.4744
H48 H 0.6117 0.6412 0.4531
H49 H 0.4958 0.8637 0.3305
H50 H 0.5115 0.8373 0.3039
H51 H 0.6410 0.8139 0.3313
H52 H 0.6261 0.8808 0.3320
H53 H 0.8043 0.8196 0.4607
H54 H 0.7103 0.8271 0.4565
H55 H 0.7676 0.7458 0.4825
H56 H 0.7822 0.7201 0.4555
H57 H 0.3848 0.7394 0.3232
H58 H 0.3776 0.7967 0.3055
H59 H 0.3221 0.8153 0.3392
H60 H 0.4069 0.8481 0.3486
H61 H 0.4118 0.8437 0.3976
H62 H 0.3266 0.8114 0.3865
H63 H 0.3914 0.7850 0.4327
H64 H 0.3891 0.7311 0.4134
H65 H 0.4981 0.7471 0.4692
H66 H 0.5136 0.6928 0.4528
H67 H 0.6277 0.7225 0.4861
H68 H 0.6189 0.7824 0.4706
H69 H 0.7520 0.8209 0.3774
H70 H 0.7350 0.8879 0.3756
H71 H 0.7966 0.8643 0.4199
H72 H 0.7054 0.8820 0.4158
K3 K 0.15767(9) 0.62171(8) 0.69151(7)
N5 N 0.23110(9) 0.57974(9) 0.65179(9)
N6 N 0.08606(9) 0.67192(9) 0.73147(9)
O13 O 0.07814(9) 0.64091(9) 0.63282(9)
O14 O 0.02411(9) 0.69945(9) 0.67088(9)
O15 O 0.31652(9) 0.65644(9) 0.69691(9)
O16 O 0.26350(9) 0.68698(9) 0.74114(9)
O17 O 0.18630(9) 0.50027(9) 0.69088(9)
O18 O 0.09116(9) 0.54675(9) 0.72033(9)
C37 C 0.17076(5) 0.58155(5) 0.62345(5)
C38 C 0.13000(5) 0.63299(5) 0.61541(5)
C39 C 0.01900(5) 0.68891(5) 0.62371(5)
C40 C -0.03054(5) 0.69261(5) 0.64170(5)
C41 C -0.02443(5) 0.70792(5) 0.68806(5)
C42 C 0.03296(5) 0.71670(5) 0.71857(5)
C43 C 0.30184(5) 0.61230(5) 0.65291(5)
C44 C 0.35596(5) 0.62740(5) 0.68323(5)
C45 C 0.36970(5) 0.67615(5) 0.72502(5)
C46 C 0.32753(5) 0.71602(5) 0.73549(5)
C47 C 0.21536(5) 0.72641(5) 0.75253(5)
C48 C 0.15002(5) 0.69464(5) 0.75698(5)
C49 C 0.25747(5) 0.52004(5) 0.65960(5)
C50 C 0.19900(5) 0.47856(5) 0.66502(5)
C51 C 0.12677(5) 0.46723(5) 0.69749(5)
C52 C 0.12116(5) 0.48912(5) 0.72402(5)
C53 C 0.08112(5) 0.56979(5) 0.74444(5)
C54 C 0.03943(5) 0.62524(5) 0.73891(5)
H73 H 0.0485 0.7249 0.6252
H74 H -0.0170 0.6834 0.6043
H75 H -0.0696 0.7239 0.6361
H76 H -0.0594 0.6565 0.6403
H77 H -0.0589 0.7414 0.6817
H78 H -0.0583 0.6744 0.6872
H79 H -0.0006 0.7245 0.7300
H80 H 0.0661 0.7501 0.7185
H81 H 0.2828 0.6477 0.6426
H82 H 0.3341 0.5909 0.6440
H83 H 0.2503 0.7431 0.7702
H84 H 0.1928 0.7566 0.7388
H85 H 0.1239 0.7194 0.7668
H86 H 0.1741 0.6617 0.7688
H87 H 0.3058 0.5214 0.6765
H88 H 0.2718 0.5044 0.6440
H89 H 0.2223 0.4403 0.6684
H90 H 0.1478 0.4778 0.6492
H91 H 0.1442 0.4274 0.7000
H92 H 0.0739 0.4700 0.6825
H93 H 0.1745 0.4881 0.7387
H94 H 0.0839 0.4648 0.7294
H95 H 0.1348 0.5764 0.7585
H96 H 0.0510 0.5433 0.7520
H97 H 0.0256 0.6365 0.7552
H98 H -0.0102 0.6194 0.7228
H99 H 0.1289 0.5531 0.6219
H100 H 0.1985 0.5726 0.6103
H101 H 0.1698 0.6639 0.6200
H102 H 0.0981 0.6341 0.5954
H103 H 0.4001 0.6516 0.6822
H104 H 0.3783 0.5921 0.6933
H105 H 0.3865 0.6436 0.7377
H106 H 0.4174 0.6945 0.7231
H107 H 0.3646 0.7332 0.7527
H108 H 0.3045 0.7459 0.7215
K3 K 0.84233(9) 0.12171(8) 0.80849(7)
N5 N 0.76890(9) 0.07974(9) 0.84821(9)
N6 N 0.91394(9) 0.17192(9) 0.76853(9)
O13 O 0.92186(9) 0.14091(9) 0.86718(9)
O14 O 0.97589(9) 0.19945(9) 0.82912(9)
O15 O 0.68348(9) 0.15644(9) 0.80309(9)
O16 O 0.73650(9) 0.18698(9) 0.75886(9)
O17 O 0.81370(9) 0.00027(9) 0.80912(9)
O18 O 0.90884(9) 0.04675(9) 0.77967(9)
C37 C 0.82924(5) 0.08155(5) 0.87655(5)
C38 C 0.87000(5) 0.13299(5) 0.88459(5)
C39 C 0.98100(5) 0.18891(5) 0.87629(5)
C40 C 1.03054(5) 0.19261(5) 0.85830(5)
C41 C 1.02443(5) 0.20792(5) 0.81194(5)
C42 C 0.96704(5) 0.21670(5) 0.78143(5)
C43 C 0.69816(5) 0.11230(5) 0.84709(5)
C44 C 0.64404(5) 0.12740(5) 0.81677(5)
C45 C 0.63030(5) 0.17615(5) 0.77498(5)
C46 C 0.67247(5) 0.21602(5) 0.76451(5)
C47 C 0.78464(5) 0.22641(5) 0.74747(5)
C48 C 0.84998(5) 0.19464(5) 0.74302(5)
C49 C 0.74253(5) 0.02004(5) 0.84040(5)
C50 C 0.80100(5) -0.02144(5) 0.83498(5)
C51 C 0.87323(5) -0.03277(5) 0.80251(5)
C52 C 0.87884(5) -0.01088(5) 0.77598(5)
C53 C 0.91888(5) 0.06979(5) 0.75556(5)
C54 C 0.96057(5) 0.12524(5) 0.76109(5)
H73 H 0.9515 0.2249 0.8748
H74 H 1.0170 0.1834 0.8957
H75 H 1.0696 0.2239 0.8639
H76 H 1.0594 0.1565 0.8597
H77 H 1.0589 0.2414 0.8183
H78 H 1.0583 0.1744 0.8128
H79 H 1.0006 0.2245 0.7700
H80 H 0.9339 0.2501 0.7815
H81 H 0.7172 0.1477 0.8574
H82 H 0.6659 0.0909 0.8560
H83 H 0.7497 0.2431 0.7298
H84 H 0.8072 0.2566 0.7612
H85 H 0.8761 0.2194 0.7332
H86 H 0.8259 0.1617 0.7312
H87 H 0.6942 0.0214 0.8235
H88 H 0.7282 0.0044 0.8560
H89 H 0.7777 -0.0597 0.8316
H90 H 0.8522 -0.0222 0.8508
H91 H 0.8558 -0.0726 0.8000
H92 H 0.9261 -0.0300 0.8175
H93 H 0.8255 -0.0119 0.7613
H94 H 0.9161 -0.0352 0.7706
H95 H 0.8652 0.0764 0.7415
H96 H 0.9490 0.0433 0.7480
H97 H 0.9744 0.1365 0.7448
H98 H 1.0102 0.1194 0.7772
H99 H 0.8711 0.0531 0.8781
H100 H 0.8015 0.0726 0.8897
H101 H 0.8302 0.1639 0.8800
H102 H 0.9019 0.1341 0.9046
H103 H 0.5999 0.1516 0.8178
H104 H 0.6217 0.0921 0.8067
H105 H 0.6135 0.1436 0.7623
H106 H 0.5826 0.1945 0.7769
H107 H 0.6354 0.2332 0.7473
H108 H 0.6955 0.2459 0.7785
K3 K 0.84233(9) 0.37829(8) 0.30849(7)
N5 N 0.76890(9) 0.42026(9) 0.34821(9)
N6 N 0.91394(9) 0.32808(9) 0.26853(9)
O13 O 0.92186(9) 0.35909(9) 0.36718(9)
O14 O 0.97589(9) 0.30055(9) 0.32912(9)
O15 O 0.68348(9) 0.34356(9) 0.30309(9)
O16 O 0.73650(9) 0.31302(9) 0.25886(9)
O17 O 0.81370(9) 0.49973(9) 0.30912(9)
O18 O 0.90884(9) 0.45325(9) 0.27967(9)
C37 C 0.82924(5) 0.41845(5) 0.37655(5)
C38 C 0.87000(5) 0.36701(5) 0.38459(5)
C39 C 0.98100(5) 0.31109(5) 0.37629(5)
C40 C 1.03054(5) 0.30739(5) 0.35830(5)
C41 C 1.02443(5) 0.29208(5) 0.31194(5)
C42 C 0.96704(5) 0.28330(5) 0.28143(5)
C43 C 0.69816(5) 0.38770(5) 0.34709(5)
C44 C 0.64404(5) 0.37260(5) 0.31677(5)
C45 C 0.63030(5) 0.32385(5) 0.27498(5)
C46 C 0.67247(5) 0.28398(5) 0.26451(5)
C47 C 0.78464(5) 0.27359(5) 0.24747(5)
C48 C 0.84998(5) 0.30536(5) 0.24302(5)
C49 C 0.74253(5) 0.47996(5) 0.34040(5)
C50 C 0.80100(5) 0.52144(5) 0.33498(5)
C51 C 0.87323(5) 0.53277(5) 0.30251(5)
C52 C 0.87884(5) 0.51088(5) 0.27598(5)
C53 C 0.91888(5) 0.43021(5) 0.25556(5)
C54 C 0.96057(5) 0.37476(5) 0.26109(5)
H73 H 0.9515 0.2751 0.3748
H74 H 1.0170 0.3166 0.3957
H75 H 1.0696 0.2761 0.3639
H76 H 1.0594 0.3435 0.3597
H77 H 1.0589 0.2586 0.3183
H78 H 1.0583 0.3256 0.3128
H79 H 1.0006 0.2755 0.2700
H80 H 0.9339 0.2499 0.2815
H81 H 0.7172 0.3523 0.3574
H82 H 0.6659 0.4091 0.3560
H83 H 0.7497 0.2569 0.2298
H84 H 0.8072 0.2434 0.2612
H85 H 0.8761 0.2806 0.2332
H86 H 0.8259 0.3383 0.2312
H87 H 0.6942 0.4786 0.3235
H88 H 0.7282 0.4956 0.3560
H89 H 0.7777 0.5597 0.3316
H90 H 0.8522 0.5222 0.3508
H91 H 0.8558 0.5726 0.3000
H92 H 0.9261 0.5300 0.3175
H93 H 0.8255 0.5119 0.2613
H94 H 0.9161 0.5352 0.2706
H95 H 0.8652 0.4236 0.2415
H96 H 0.9490 0.4567 0.2480
H97 H 0.9744 0.3635 0.2448
H98 H 1.0102 0.3806 0.2772
H99 H 0.8711 0.4469 0.3781
H100 H 0.8015 0.4274 0.3897
H101 H 0.8302 0.3361 0.3800
H102 H 0.9019 0.3659 0.4046
H103 H 0.5999 0.3484 0.3178
H104 H 0.6217 0.4079 0.3067
H105 H 0.6135 0.3564 0.2623
H106 H 0.5826 0.3055 0.2769
H107 H 0.6354 0.2668 0.2473
H108 H 0.6955 0.2541 0.2785
K3 K 0.15767(9) 0.87829(8) 0.19151(7)
N5 N 0.23110(9) 0.92026(9) 0.15179(9)
N6 N 0.08606(9) 0.82808(9) 0.23147(9)
O13 O 0.07814(9) 0.85909(9) 0.13282(9)
O14 O 0.02411(9) 0.80055(9) 0.17088(9)
O15 O 0.31652(9) 0.84356(9) 0.19691(9)
O16 O 0.26350(9) 0.81302(9) 0.24114(9)
O17 O 0.18630(9) 0.99973(9) 0.19088(9)
O18 O 0.09116(9) 0.95325(9) 0.22033(9)
C37 C 0.17076(5) 0.91845(5) 0.12345(5)
C38 C 0.13000(5) 0.86701(5) 0.11541(5)
C39 C 0.01900(5) 0.81109(5) 0.12371(5)
C40 C -0.03054(5) 0.80739(5) 0.14170(5)
C41 C -0.02443(5) 0.79208(5) 0.18806(5)
C42 C 0.03296(5) 0.78330(5) 0.21857(5)
C43 C 0.30184(5) 0.88770(5) 0.15291(5)
C44 C 0.35596(5) 0.87260(5) 0.18323(5)
C45 C 0.36970(5) 0.82385(5) 0.22502(5)
C46 C 0.32753(5) 0.78398(5) 0.23549(5)
C47 C 0.21536(5) 0.77359(5) 0.25253(5)
C48 C 0.15002(5) 0.80536(5) 0.25698(5)
C49 C 0.25747(5) 0.97996(5) 0.15960(5)
C50 C 0.19900(5) 1.02144(5) 0.16502(5)
C51 C 0.12677(5) 1.03277(5) 0.19749(5)
C52 C 0.12116(5) 1.01088(5) 0.22402(5)
C53 C 0.08112(5) 0.93021(5) 0.24444(5)
C54 C 0.03943(5) 0.87476(5) 0.23891(5)
H73 H 0.0485 0.7751 0.1252
H74 H -0.0170 0.8166 0.1043
H75 H -0.0696 0.7761 0.1361
H76 H -0.0594 0.8435 0.1403
H77 H -0.0589 0.7586 0.1817
H78 H -0.0583 0.8256 0.1872
H79 H -0.0006 0.7755 0.2300
H80 H 0.0661 0.7499 0.2185
H81 H 0.2828 0.8523 0.1426
H82 H 0.3341 0.9091 0.1440
H83 H 0.2503 0.7569 0.2702
H84 H 0.1928 0.7434 0.2388
H85 H 0.1239 0.7806 0.2668
H86 H 0.1741 0.8383 0.2688
H87 H 0.3058 0.9786 0.1765
H88 H 0.2718 0.9956 0.1440
H89 H 0.2223 1.0597 0.1684
H90 H 0.1478 1.0222 0.1492
H91 H 0.1442 1.0726 0.2000
H92 H 0.0739 1.0300 0.1825
H93 H 0.1745 1.0119 0.2387
H94 H 0.0839 1.0352 0.2294
H95 H 0.1348 0.9236 0.2585
H96 H 0.0510 0.9567 0.2520
H97 H 0.0256 0.8635 0.2552
H98 H -0.0102 0.8806 0.2228
H99 H 0.1289 0.9469 0.1219
H100 H 0.1985 0.9274 0.1103
H101 H 0.1698 0.8361 0.1200
H102 H 0.0981 0.8659 0.0954
H103 H 0.4001 0.8484 0.1822
H104 H 0.3783 0.9079 0.1933
H105 H 0.3865 0.8564 0.2377
H106 H 0.4174 0.8055 0.2231
H107 H 0.3646 0.7668 0.2527
H108 H 0.3045 0.7541 0.2215
K4 K 0.31503(9) 0.40030(8) 0.79788(7)
N7 N 0.38549(9) 0.32628(9) 0.76191(9)
N8 N 0.24221(9) 0.47865(9) 0.83282(9)
O19 O 0.37554(9) 0.45254(9) 0.75933(9)
O20 O 0.30106(9) 0.52212(9) 0.78876(9)
O21 O 0.44226(9) 0.32119(9) 0.82408(9)
O22 O 0.38403(9) 0.39844(9) 0.85649(9)
O23 O 0.21505(9) 0.31701(9) 0.75967(9)
O24 O 0.15410(9) 0.37827(9) 0.79752(9)
C55 C 0.42776(5) 0.36600(5) 0.74932(5)
C56 C 0.37916(5) 0.42060(5) 0.73728(5)
C57 C 0.35753(5) 0.51372(5) 0.75204(5)
C58 C 0.36506(5) 0.54125(5) 0.77834(5)
C59 C 0.29757(5) 0.55411(5) 0.81323(5)
C60 C 0.23309(5) 0.53408(5) 0.82133(5)
C61 C 0.44503(5) 0.28520(5) 0.77997(5)
C62 C 0.49452(5) 0.30804(5) 0.80879(5)
C63 C 0.48514(5) 0.33534(5) 0.85305(5)
C64 C 0.42656(5) 0.34956(5) 0.86893(5)
C65 C 0.33662(5) 0.41838(5) 0.87289(5)
C66 C 0.29888(5) 0.47573(5) 0.86267(5)
C67 C 0.32035(5) 0.29443(5) 0.74202(5)
C68 C 0.25919(5) 0.27104(5) 0.75322(5)
C69 C 0.15179(5) 0.29644(5) 0.76914(5)
C70 C 0.10293(5) 0.34584(5) 0.77313(5)
C71 C 0.11309(5) 0.42886(5) 0.80285(5)
C72 C 0.16704(5) 0.45138(5) 0.83068(5)
H109 H 0.4793 0.3771 0.7635
H110 H 0.4381 0.3461 0.7340
H111 H 0.4054 0.4424 0.7264
H112 H 0.3242 0.4101 0.7253
H113 H 0.3982 0.5290 0.7448
H114 H 0.3033 0.5190 0.7381
H115 H 0.4180 0.5327 0.7924
H116 H 0.3599 0.5823 0.7752
H117 H 0.4155 0.2520 0.7829
H118 H 0.4819 0.2736 0.7703
H119 H 0.5363 0.2806 0.8190
H120 H 0.5202 0.3434 0.8060
H121 H 0.5187 0.3029 0.8623
H122 H 0.5197 0.3683 0.8538
H123 H 0.4571 0.3564 0.8888
H124 H 0.3892 0.3178 0.8672
H125 H 0.3720 0.4217 0.8925
H126 H 0.2939 0.3906 0.8714
H127 H 0.2681 0.4875 0.8745
H128 H 0.3429 0.5028 0.8648
H129 H 0.3450 0.2621 0.7358
H130 H 0.2929 0.3191 0.7260
H131 H 0.2857 0.2489 0.7702
H132 H 0.2217 0.2467 0.7391
H133 H 0.1754 0.2762 0.7869
H134 H 0.1163 0.2707 0.7551
H135 H 0.0540 0.3322 0.7762
H136 H 0.0880 0.3705 0.7566
H137 H 0.0607 0.4181 0.8041
H138 H 0.1050 0.4571 0.7880
H139 H 0.1355 0.4797 0.8366
H140 H 0.1803 0.4195 0.8439
H141 H 0.3481 0.5477 0.8288
H142 H 0.2912 0.5948 0.8089
H143 H 0.2258 0.5606 0.8350
H144 H 0.1845 0.5343 0.8045
K4 K 0.68497(9) 0.90030(8) 0.70212(7)
N7 N 0.61451(9) 0.82628(9) 0.73809(9)
N8 N 0.75779(9) 0.97865(9) 0.66718(9)
O19 O 0.62446(9) 0.95254(9) 0.74067(9)
O20 O 0.69894(9) 1.02212(9) 0.71124(9)
O21 O 0.55774(9) 0.82119(9) 0.67592(9)
O22 O 0.61597(9) 0.89844(9) 0.64351(9)
O23 O 0.78495(9) 0.81701(9) 0.74033(9)
O24 O 0.84590(9) 0.87827(9) 0.70248(9)
C55 C 0.57224(5) 0.86600(5) 0.75068(5)
C56 C 0.62084(5) 0.92060(5) 0.76272(5)
C57 C 0.64247(5) 1.01372(5) 0.74796(5)
C58 C 0.63494(5) 1.04125(5) 0.72166(5)
C59 C 0.70243(5) 1.05411(5) 0.68677(5)
C60 C 0.76691(5) 1.03408(5) 0.67867(5)
C61 C 0.55497(5) 0.78520(5) 0.72003(5)
C62 C 0.50548(5) 0.80804(5) 0.69121(5)
C63 C 0.51486(5) 0.83534(5) 0.64695(5)
C64 C 0.57344(5) 0.84956(5) 0.63107(5)
C65 C 0.66338(5) 0.91838(5) 0.62711(5)
C66 C 0.70112(5) 0.97573(5) 0.63733(5)
C67 C 0.67965(5) 0.79443(5) 0.75798(5)
C68 C 0.74081(5) 0.77104(5) 0.74678(5)
C69 C 0.84821(5) 0.79644(5) 0.73086(5)
C70 C 0.89707(5) 0.84584(5) 0.72687(5)
C71 C 0.88691(5) 0.92886(5) 0.69715(5)
C72 C 0.83296(5) 0.95138(5) 0.66932(5)
H109 H 0.5207 0.8771 0.7365
H110 H 0.5619 0.8461 0.7660
H111 H 0.5946 0.9424 0.7736
H112 H 0.6758 0.9101 0.7747
H113 H 0.6018 1.0290 0.7552
H114 H 0.6967 1.0190 0.7619
H115 H 0.5820 1.0327 0.7076
H116 H 0.6401 1.0823 0.7248
H117 H 0.5845 0.7520 0.7171
H118 H 0.5181 0.7736 0.7297
H119 H 0.4637 0.7806 0.6810
H120 H 0.4798 0.8434 0.6940
H121 H 0.4813 0.8029 0.6377
H122 H 0.4803 0.8683 0.6462
H123 H 0.5429 0.8564 0.6112
H124 H 0.6108 0.8178 0.6328
H125 H 0.6280 0.9217 0.6075
H126 H 0.7061 0.8906 0.6286
H127 H 0.7319 0.9875 0.6255
H128 H 0.6571 1.0028 0.6352
H129 H 0.6550 0.7621 0.7642
H130 H 0.7071 0.8191 0.7740
H131 H 0.7143 0.7489 0.7298
H132 H 0.7783 0.7467 0.7609
H133 H 0.8246 0.7762 0.7131
H134 H 0.8837 0.7707 0.7449
H135 H 0.9460 0.8322 0.7238
H136 H 0.9120 0.8705 0.7434
H137 H 0.9393 0.9181 0.6959
H138 H 0.8950 0.9571 0.7120
H139 H 0.8645 0.9797 0.6634
H140 H 0.8197 0.9195 0.6561
H141 H 0.6519 1.0477 0.6712
H142 H 0.7088 1.0948 0.6911
H143 H 0.7742 1.0606 0.6650
H144 H 0.8155 1.0343 0.6955
K4 K 0.68497(9) 0.59970(8) 0.20212(7)
N7 N 0.61451(9) 0.67372(9) 0.23809(9)
N8 N 0.75779(9) 0.52135(9) 0.16718(9)
O19 O 0.62446(9) 0.54746(9) 0.24067(9)
O20 O 0.69894(9) 0.47788(9) 0.21124(9)
O21 O 0.55774(9) 0.67881(9) 0.17592(9)
O22 O 0.61597(9) 0.60156(9) 0.14351(9)
O23 O 0.78495(9) 0.68299(9) 0.24033(9)
O24 O 0.84590(9) 0.62173(9) 0.20248(9)
C55 C 0.57224(5) 0.63400(5) 0.25068(5)
C56 C 0.62084(5) 0.57940(5) 0.26272(5)
C57 C 0.64247(5) 0.48628(5) 0.24796(5)
C58 C 0.63494(5) 0.45875(5) 0.22166(5)
C59 C 0.70243(5) 0.44589(5) 0.18677(5)
C60 C 0.76691(5) 0.46592(5) 0.17867(5)
C61 C 0.55497(5) 0.71480(5) 0.22003(5)
C62 C 0.50548(5) 0.69196(5) 0.19121(5)
C63 C 0.51486(5) 0.66466(5) 0.14695(5)
C64 C 0.57344(5) 0.65044(5) 0.13107(5)
C65 C 0.66338(5) 0.58162(5) 0.12711(5)
C66 C 0.70112(5) 0.52427(5) 0.13733(5)
C67 C 0.67965(5) 0.70557(5) 0.25798(5)
C68 C 0.74081(5) 0.72896(5) 0.24678(5)
C69 C 0.84821(5) 0.70356(5) 0.23086(5)
C70 C 0.89707(5) 0.65416(5) 0.22687(5)
C71 C 0.88691(5) 0.57114(5) 0.19715(5)
C72 C 0.83296(5) 0.54862(5) 0.16932(5)
H109 H 0.5207 0.6229 0.2365
H110 H 0.5619 0.6539 0.2660
H111 H 0.5946 0.5576 0.2736
H112 H 0.6758 0.5899 0.2747
H113 H 0.6018 0.4710 0.2552
H114 H 0.6967 0.4810 0.2619
H115 H 0.5820 0.4673 0.2076
H116 H 0.6401 0.4177 0.2248
H117 H 0.5845 0.7480 0.2171
H118 H 0.5181 0.7264 0.2297
H119 H 0.4637 0.7194 0.1810
H120 H 0.4798 0.6566 0.1940
H121 H 0.4813 0.6971 0.1377
H122 H 0.4803 0.6317 0.1462
H123 H 0.5429 0.6436 0.1112
H124 H 0.6108 0.6822 0.1328
H125 H 0.6280 0.5783 0.1075
H126 H 0.7061 0.6094 0.1286
H127 H 0.7319 0.5125 0.1255
H128 H 0.6571 0.4972 0.1352
H129 H 0.6550 0.7379 0.2642
H130 H 0.7071 0.6809 0.2740
H131 H 0.7143 0.7511 0.2298
H132 H 0.7783 0.7533 0.2609
H133 H 0.8246 0.7238 0.2131
H134 H 0.8837 0.7293 0.2449
H135 H 0.9460 0.6678 0.2238
H136 H 0.9120 0.6295 0.2434
H137 H 0.9393 0.5819 0.1959
H138 H 0.8950 0.5429 0.2120
H139 H 0.8645 0.5203 0.1634
H140 H 0.8197 0.5805 0.1561
H141 H 0.6519 0.4523 0.1712
H142 H 0.7088 0.4052 0.1911
H143 H 0.7742 0.4394 0.1650
H144 H 0.8155 0.4657 0.1955
K4 K 0.31503(9) 0.09970(8) 0.29788(7)
N7 N 0.38549(9) 0.17372(9) 0.26191(9)
N8 N 0.24221(9) 0.02135(9) 0.33282(9)
O19 O 0.37554(9) 0.04746(9) 0.25933(9)
O20 O 0.30106(9) -0.02212(9) 0.28876(9)
O21 O 0.44226(9) 0.17881(9) 0.32408(9)
O22 O 0.38403(9) 0.10156(9) 0.35649(9)
O23 O 0.21505(9) 0.18299(9) 0.25967(9)
O24 O 0.15410(9) 0.12173(9) 0.29752(9)
C55 C 0.42776(5) 0.13400(5) 0.24932(5)
C56 C 0.37916(5) 0.07940(5) 0.23728(5)
C57 C 0.35753(5) -0.01372(5) 0.25204(5)
C58 C 0.36506(5) -0.04125(5) 0.27834(5)
C59 C 0.29757(5) -0.05411(5) 0.31323(5)
C60 C 0.23309(5) -0.03408(5) 0.32133(5)
C61 C 0.44503(5) 0.21480(5) 0.27997(5)
C62 C 0.49452(5) 0.19196(5) 0.30879(5)
C63 C 0.48514(5) 0.16466(5) 0.35305(5)
C64 C 0.42656(5) 0.15044(5) 0.36893(5)
C65 C 0.33662(5) 0.08162(5) 0.37289(5)
C66 C 0.29888(5) 0.02427(5) 0.36267(5)
C67 C 0.32035(5) 0.20557(5) 0.24202(5)
C68 C 0.25919(5) 0.22896(5) 0.25322(5)
C69 C 0.15179(5) 0.20356(5) 0.26914(5)
C70 C 0.10293(5) 0.15416(5) 0.27313(5)
C71 C 0.11309(5) 0.07114(5) 0.30285(5)
C72 C 0.16704(5) 0.04862(5) 0.33068(5)
H109 H 0.4793 0.1229 0.2635
H110 H 0.4381 0.1539 0.2340
H111 H 0.4054 0.0576 0.2264
H112 H 0.3242 0.0899 0.2253
H113 H 0.3982 -0.0290 0.2448
H114 H 0.3033 -0.0190 0.2381
H115 H 0.4180 -0.0327 0.2924
H116 H 0.3599 -0.0823 0.2752
H117 H 0.4155 0.2480 0.2829
H118 H 0.4819 0.2264 0.2703
H119 H 0.5363 0.2194 0.3190
H120 H 0.5202 0.1566 0.3060
H121 H 0.5187 0.1971 0.3623
H122 H 0.5197 0.1317 0.3538
H123 H 0.4571 0.1436 0.3888
H124 H 0.3892 0.1822 0.3672
H125 H 0.3720 0.0783 0.3925
H126 H 0.2939 0.1094 0.3714
H127 H 0.2681 0.0125 0.3745
H128 H 0.3429 -0.0028 0.3648
H129 H 0.3450 0.2379 0.2358
H130 H 0.2929 0.1809 0.2260
H131 H 0.2857 0.2511 0.2702
H132 H 0.2217 0.2533 0.2391
H133 H 0.1754 0.2238 0.2869
H134 H 0.1163 0.2293 0.2551
H135 H 0.0540 0.1678 0.2762
H136 H 0.0880 0.1295 0.2566
H137 H 0.0607 0.0819 0.3041
H138 H 0.1050 0.0429 0.2880
H139 H 0.1355 0.0203 0.3366
H140 H 0.1803 0.0805 0.3439
H141 H 0.3481 -0.0477 0.3288
H142 H 0.2912 -0.0948 0.3089
H143 H 0.2258 -0.0606 0.3350
H144 H 0.1845 -0.0343 0.3045
K5 K 0.07148(9) 0.74575(8) 0.88897(7)
N9 N 0.14706(9) 0.71036(9) 0.95043(9)
N10 N -0.00549(9) 0.78037(9) 0.82685(9)
O25 O 0.11447(9) 0.63012(9) 0.90259(9)
O26 O 0.06675(9) 0.66717(9) 0.84576(9)
O27 O 0.22631(9) 0.79086(9) 0.92252(9)
O28 O 0.14088(9) 0.83649(9) 0.86721(9)
O29 O -0.01033(9) 0.76720(9) 0.92541(9)
O30 O -0.09261(9) 0.78573(9) 0.86720(9)
C73 C 0.14546(5) 0.64791(5) 0.95292(5)
C74 C 0.17717(5) 0.61916(5) 0.93044(5)
C75 C 0.13807(5) 0.60042(5) 0.88239(5)
C76 C 0.06892(5) 0.60758(5) 0.85552(5)
C77 C 0.00748(5) 0.67531(5) 0.81884(5)
C78 C 0.01413(5) 0.73317(5) 0.80966(5)
C79 C 0.23346(5) 0.73218(5) 0.96169(5)
C80 C 0.24618(5) 0.78834(5) 0.95401(5)
C81 C 0.24182(5) 0.84402(5) 0.91313(5)
C82 C 0.22830(5) 0.84449(5) 0.88239(5)
C83 C 0.12084(5) 0.83658(5) 0.83626(5)
C84 C 0.03193(5) 0.83537(5) 0.82217(5)
C85 C 0.09860(5) 0.73847(5) 0.96579(5)
C86 C 0.00841(5) 0.73777(5) 0.95129(5)
C87 C -0.09410(5) 0.77826(5) 0.91470(5)
C88 C -0.11226(5) 0.81680(5) 0.88918(5)
C89 C -0.11579(5) 0.81842(5) 0.84175(5)
C90 C -0.09191(5) 0.78436(5) 0.82033(5)
H145 H 0.1825 0.6375 0.9716
H146 H 0.0906 0.6353 0.9508
H147 H 0.2296 0.6346 0.9312
H148 H 0.1821 0.5781 0.9339
H149 H 0.1475 0.5600 0.8870
H150 H 0.1874 0.6175 0.8812
H151 H 0.0181 0.5971 0.8581
H152 H 0.0776 0.5829 0.8414
H153 H -0.0465 0.6700 0.8200
H154 H 0.0156 0.6483 0.8054
H155 H 0.0701 0.7386 0.8105
H156 H -0.0225 0.7374 0.7903
H157 H 0.2505 0.7318 0.9822
H158 H 0.2677 0.7063 0.9556
H159 H 0.2114 0.8150 0.9593
H160 H 0.3029 0.7990 0.9633
H161 H 0.1433 0.8706 0.8306
H162 H 0.1438 0.8026 0.8308
H163 H 0.0093 0.8662 0.8301
H164 H 0.0183 0.8415 0.8020
H165 H 0.1117 0.7196 0.9840
H166 H 0.1159 0.7782 0.9686
H167 H -0.0171 0.7572 0.9631
H168 H -0.0107 0.6984 0.9482
H169 H -0.1115 0.7972 0.9288
H170 H -0.1234 0.7423 0.9092
H171 H -0.0799 0.8516 0.8942
H172 H -0.1698 0.8267 0.8823
H173 H -0.0862 0.8545 0.8456
H174 H -0.1741 0.8259 0.8349
H175 H -0.1153 0.7462 0.8189
H176 H -0.1144 0.8037 0.8022
H177 H 0.2056 0.8723 0.9166
H178 H 0.2981 0.8546 0.9235
H179 H 0.2468 0.8803 0.8768
H180 H 0.2583 0.8128 0.8782
K5 K 0.92852(9) 0.24575(8) 0.61103(7)
N9 N 0.85294(9) 0.21036(9) 0.54957(9)
N10 N 1.00549(9) 0.28037(9) 0.67315(9)
O25 O 0.88553(9) 0.13012(9) 0.59741(9)
O26 O 0.93325(9) 0.16717(9) 0.65424(9)
O27 O 0.77369(9) 0.29086(9) 0.57748(9)
O28 O 0.85912(9) 0.33649(9) 0.63279(9)
O29 O 1.01033(9) 0.26720(9) 0.57459(9)
O30 O 1.09261(9) 0.28573(9) 0.63280(9)
C73 C 0.85454(5) 0.14791(5) 0.54708(5)
C74 C 0.82283(5) 0.11916(5) 0.56956(5)
C75 C 0.86193(5) 0.10042(5) 0.61761(5)
C76 C 0.93108(5) 0.10758(5) 0.64448(5)
C77 C 0.99252(5) 0.17531(5) 0.68116(5)
C78 C 0.98587(5) 0.23317(5) 0.69034(5)
C79 C 0.76654(5) 0.23218(5) 0.53831(5)
C80 C 0.75382(5) 0.28834(5) 0.54599(5)
C81 C 0.75818(5) 0.34402(5) 0.58687(5)
C82 C 0.77170(5) 0.34449(5) 0.61761(5)
C83 C 0.87916(5) 0.33658(5) 0.66374(5)
C84 C 0.96807(5) 0.33537(5) 0.67783(5)
C85 C 0.90140(5) 0.23847(5) 0.53421(5)
C86 C 0.99159(5) 0.23777(5) 0.54871(5)
C87 C 1.09410(5) 0.27826(5) 0.58530(5)
C88 C 1.11226(5) 0.31680(5) 0.61082(5)
C89 C 1.11579(5) 0.31842(5) 0.65825(5)
C90 C 1.09191(5) 0.28436(5) 0.67967(5)
H145 H 0.8175 0.1375 0.5284
H146 H 0.9094 0.1353 0.5492
H147 H 0.7704 0.1346 0.5688
H148 H 0.8179 0.0781 0.5661
H149 H 0.8525 0.0600 0.6130
H150 H 0.8126 0.1175 0.6188
H151 H 0.9819 0.0971 0.6419
H152 H 0.9224 0.0829 0.6586
H153 H 1.0465 0.1700 0.6800
H154 H 0.9844 0.1483 0.6946
H155 H 0.9299 0.2386 0.6895
H156 H 1.0225 0.2374 0.7097
H157 H 0.7495 0.2318 0.5178
H158 H 0.7323 0.2063 0.5444
H159 H 0.7886 0.3150 0.5407
H160 H 0.6971 0.2990 0.5367
H161 H 0.8567 0.3706 0.6694
H162 H 0.8562 0.3026 0.6692
H163 H 0.9907 0.3662 0.6699
H164 H 0.9817 0.3415 0.6980
H165 H 0.8883 0.2196 0.5160
H166 H 0.8841 0.2782 0.5314
H167 H 1.0171 0.2572 0.5369
H168 H 1.0107 0.1984 0.5518
H169 H 1.1115 0.2972 0.5712
H170 H 1.1234 0.2423 0.5908
H171 H 1.0799 0.3516 0.6058
H172 H 1.1698 0.3267 0.6177
H173 H 1.0862 0.3545 0.6544
H174 H 1.1741 0.3259 0.6651
H175 H 1.1153 0.2462 0.6811
H176 H 1.1144 0.3037 0.6978
H177 H 0.7944 0.3723 0.5834
H178 H 0.7019 0.3546 0.5765
H179 H 0.7532 0.3803 0.6232
H180 H 0.7417 0.3128 0.6218
K5 K 0.92852(9) 0.25425(8) 0.11103(7)
N9 N 0.85294(9) 0.28964(9) 0.04957(9)
N10 N 1.00549(9) 0.21963(9) 0.17315(9)
O25 O 0.88553(9) 0.36988(9) 0.09741(9)
O26 O 0.93325(9) 0.33283(9) 0.15424(9)
O27 O 0.77369(9) 0.20914(9) 0.07748(9)
O28 O 0.85912(9) 0.16351(9) 0.13279(9)
O29 O 1.01033(9) 0.23280(9) 0.07459(9)
O30 O 1.09261(9) 0.21427(9) 0.13280(9)
C73 C 0.85454(5) 0.35209(5) 0.04708(5)
C74 C 0.82283(5) 0.38084(5) 0.06956(5)
C75 C 0.86193(5) 0.39958(5) 0.11761(5)
C76 C 0.93108(5) 0.39242(5) 0.14448(5)
C77 C 0.99252(5) 0.32469(5) 0.18116(5)
C78 C 0.98587(5) 0.26683(5) 0.19034(5)
C79 C 0.76654(5) 0.26782(5) 0.03831(5)
C80 C 0.75382(5) 0.21166(5) 0.04599(5)
C81 C 0.75818(5) 0.15598(5) 0.08687(5)
C82 C 0.77170(5) 0.15551(5) 0.11761(5)
C83 C 0.87916(5) 0.16342(5) 0.16374(5)
C84 C 0.96807(5) 0.16463(5) 0.17783(5)
C85 C 0.90140(5) 0.26153(5) 0.03421(5)
C86 C 0.99159(5) 0.26223(5) 0.04871(5)
C87 C 1.09410(5) 0.22174(5) 0.08530(5)
C88 C 1.11226(5) 0.18320(5) 0.11082(5)
C89 C 1.11579(5) 0.18158(5) 0.15825(5)
C90 C 1.09191(5) 0.21564(5) 0.17967(5)
H145 H 0.8175 0.3625 0.0284
H146 H 0.9094 0.3647 0.0492
H147 H 0.7704 0.3654 0.0688
H148 H 0.8179 0.4219 0.0661
H149 H 0.8525 0.4400 0.1130
H150 H 0.8126 0.3825 0.1188
H151 H 0.9819 0.4029 0.1419
H152 H 0.9224 0.4171 0.1586
H153 H 1.0465 0.3300 0.1800
H154 H 0.9844 0.3517 0.1946
H155 H 0.9299 0.2614 0.1895
H156 H 1.0225 0.2626 0.2097
H157 H 0.7495 0.2682 0.0178
H158 H 0.7323 0.2937 0.0444
H159 H 0.7886 0.1850 0.0407
H160 H 0.6971 0.2010 0.0367
H161 H 0.8567 0.1294 0.1694
H162 H 0.8562 0.1974 0.1692
H163 H 0.9907 0.1338 0.1699
H164 H 0.9817 0.1585 0.1980
H165 H 0.8883 0.2804 0.0160
H166 H 0.8841 0.2218 0.0314
H167 H 1.0171 0.2428 0.0369
H168 H 1.0107 0.3016 0.0518
H169 H 1.1115 0.2028 0.0712
H170 H 1.1234 0.2577 0.0908
H171 H 1.0799 0.1484 0.1058
H172 H 1.1698 0.1733 0.1177
H173 H 1.0862 0.1455 0.1544
H174 H 1.1741 0.1741 0.1651
H175 H 1.1153 0.2538 0.1811
H176 H 1.1144 0.1963 0.1978
H177 H 0.7944 0.1277 0.0834
H178 H 0.7019 0.1454 0.0765
H179 H 0.7532 0.1197 0.1232
H180 H 0.7417 0.1872 0.1218
K5 K 0.07148(9) 0.75425(8) 0.38897(7)
N9 N 0.14706(9) 0.78964(9) 0.45043(9)
N10 N -0.00549(9) 0.71963(9) 0.32685(9)
O25 O 0.11447(9) 0.86988(9) 0.40259(9)
O26 O 0.06675(9) 0.83283(9) 0.34576(9)
O27 O 0.22631(9) 0.70914(9) 0.42252(9)
O28 O 0.14088(9) 0.66351(9) 0.36721(9)
O29 O -0.01033(9) 0.73280(9) 0.42541(9)
O30 O -0.09261(9) 0.71427(9) 0.36720(9)
C73 C 0.14546(5) 0.85209(5) 0.45292(5)
C74 C 0.17717(5) 0.88084(5) 0.43044(5)
C75 C 0.13807(5) 0.89958(5) 0.38239(5)
C76 C 0.06892(5) 0.89242(5) 0.35552(5)
C77 C 0.00748(5) 0.82469(5) 0.31884(5)
C78 C 0.01413(5) 0.76683(5) 0.30966(5)
C79 C 0.23346(5) 0.76782(5) 0.46169(5)
C80 C 0.24618(5) 0.71166(5) 0.45401(5)
C81 C 0.24182(5) 0.65598(5) 0.41313(5)
C82 C 0.22830(5) 0.65551(5) 0.38239(5)
C83 C 0.12084(5) 0.66342(5) 0.33626(5)
C84 C 0.03193(5) 0.66463(5) 0.32217(5)
C85 C 0.09860(5) 0.76153(5) 0.46579(5)
C86 C 0.00841(5) 0.76223(5) 0.45129(5)
C87 C -0.09410(5) 0.72174(5) 0.41470(5)
C88 C -0.11226(5) 0.68320(5) 0.38918(5)
C89 C -0.11579(5) 0.68158(5) 0.34175(5)
C90 C -0.09191(5) 0.71564(5) 0.32033(5)
H145 H 0.1825 0.8625 0.4716
H146 H 0.0906 0.8647 0.4508
H147 H 0.2296 0.8654 0.4312
H148 H 0.1821 0.9219 0.4339
H149 H 0.1475 0.9400 0.3870
H150 H 0.1874 0.8825 0.3812
H151 H 0.0181 0.9029 0.3581
H152 H 0.0776 0.9171 0.3414
H153 H -0.0465 0.8300 0.3200
H154 H 0.0156 0.8517 0.3054
H155 H 0.0701 0.7614 0.3105
H156 H -0.0225 0.7626 0.2903
H157 H 0.2505 0.7682 0.4822
H158 H 0.2677 0.7937 0.4556
H159 H 0.2114 0.6850 0.4593
H160 H 0.3029 0.7010 0.4633
H161 H 0.1433 0.6294 0.3306
H162 H 0.1438 0.6974 0.3308
H163 H 0.0093 0.6338 0.3301
H164 H 0.0183 0.6585 0.3020
H165 H 0.1117 0.7804 0.4840
H166 H 0.1159 0.7218 0.4686
H167 H -0.0171 0.7428 0.4631
H168 H -0.0107 0.8016 0.4482
H169 H -0.1115 0.7028 0.4288
H170 H -0.1234 0.7577 0.4092
H171 H -0.0799 0.6484 0.3942
H172 H -0.1698 0.6733 0.3823
H173 H -0.0862 0.6455 0.3456
H174 H -0.1741 0.6741 0.3349
H175 H -0.1153 0.7538 0.3189
H176 H -0.1144 0.6963 0.3022
H177 H 0.2056 0.6277 0.4166
H178 H 0.2981 0.6454 0.4235
H179 H 0.2468 0.6197 0.3768
H180 H 0.2583 0.6872 0.3782
K6 K 0.10500(9) 0.85536(9) 0.59182(7)
N11 N -0.02529(9) 0.90389(9) 0.60973(9)
N12 N 0.23852(9) 0.80140(9) 0.57554(9)
O31 O 0.07719(9) 0.97459(9) 0.58471(9)
O32 O 0.21695(9) 0.92258(9) 0.57784(9)
O33 O -0.06416(9) 0.81596(9) 0.56664(9)
O34 O 0.05271(9) 0.78763(9) 0.54328(9)
O35 O 0.11423(9) 0.83832(9) 0.64787(9)
O36 O 0.23130(9) 0.77986(9) 0.63127(9)
C91 C -0.04207(5) 0.95925(5) 0.59692(5)
C92 C 0.03160(5) 0.99882(5) 0.60132(5)
C93 C 0.14276(5) 1.00621(5) 0.58648(5)
C94 C 0.18321(5) 0.98231(5) 0.56685(5)
C95 C 0.25294(5) 0.89935(5) 0.56053(5)
C96 C 0.29528(5) 0.84663(5) 0.57189(5)
C97 C -0.10064(5) 0.86542(5) 0.59816(5)
C98 C -0.12318(5) 0.85381(5) 0.56612(5)
C99 C -0.09480(5) 0.80485(5) 0.53631(5)
C100 C -0.02780(5) 0.76532(5) 0.53795(5)
C101 C 0.11254(5) 0.74375(5) 0.54398(5)
C102 C 0.19428(5) 0.77359(5) 0.54605(5)
C103 C 0.00115(5) 0.90137(5) 0.64076(5)
C104 C 0.04437(5) 0.84891(5) 0.65419(5)
C105 C 0.17108(5) 0.80362(5) 0.66521(5)
C106 C 0.24690(5) 0.80083(5) 0.65939(5)
C107 C 0.30114(5) 0.77471(5) 0.62420(5)
C108 C 0.27677(5) 0.75866(5) 0.59535(5)
H181 H -0.0801 0.9791 0.6040
H182 H -0.0672 0.9530 0.5767
H183 H 0.0653 0.9995 0.6212
H184 H 0.0138 1.0375 0.5950
H185 H 0.1811 1.0065 0.6058
H186 H 0.1258 1.0452 0.5805
H187 H 0.2281 1.0067 0.5667
H188 H 0.1440 0.9792 0.5478
H189 H 0.3360 0.8543 0.5903
H190 H 0.3217 0.8319 0.5592
H191 H -0.1474 0.8843 0.6006
H192 H -0.0902 0.8293 0.6084
H193 H -0.0940 0.8392 0.5255
H194 H -0.1486 0.7874 0.5291
H195 H -0.0254 0.7374 0.5525
H196 H -0.0435 0.7464 0.5197
H197 H 0.1198 0.7180 0.5598
H198 H 0.0930 0.7223 0.5264
H199 H 0.1846 0.8030 0.5316
H200 H 0.2299 0.7443 0.5431
H201 H 0.0369 0.9338 0.6481
H202 H -0.0468 0.9048 0.6462
H203 H 0.0604 0.8538 0.6745
H204 H 0.0077 0.8164 0.6483
H205 H 0.1827 0.8157 0.6846
H206 H 0.1486 0.7651 0.6627
H207 H 0.2699 0.8392 0.6613
H208 H 0.2851 0.7753 0.6729
H209 H 0.3299 0.8111 0.6270
H210 H 0.3361 0.7456 0.6361
H211 H 0.2402 0.7261 0.5925
H212 H 0.3254 0.7474 0.5915
H213 H 0.2929 0.9264 0.5585
H214 H 0.2121 0.8919 0.5421
H215 H -0.1180 0.8881 0.5559
H216 H -0.1777 0.8380 0.5576
K6 K 0.89500(9) 0.35536(9) 0.90818(7)
N11 N 1.02529(9) 0.40389(9) 0.89027(9)
N12 N 0.76148(9) 0.30140(9) 0.92446(9)
O31 O 0.92281(9) 0.47459(9) 0.91529(9)
O32 O 0.78305(9) 0.42258(9) 0.92216(9)
O33 O 1.06416(9) 0.31596(9) 0.93336(9)
O34 O 0.94729(9) 0.28763(9) 0.95672(9)
O35 O 0.88577(9) 0.33832(9) 0.85213(9)
O36 O 0.76870(9) 0.27986(9) 0.86873(9)
C91 C 1.04207(5) 0.45925(5) 0.90308(5)
C92 C 0.96840(5) 0.49882(5) 0.89868(5)
C93 C 0.85724(5) 0.50621(5) 0.91352(5)
C94 C 0.81679(5) 0.48231(5) 0.93315(5)
C95 C 0.74706(5) 0.39935(5) 0.93947(5)
C96 C 0.70472(5) 0.34663(5) 0.92811(5)
C97 C 1.10064(5) 0.36542(5) 0.90184(5)
C98 C 1.12318(5) 0.35381(5) 0.93388(5)
C99 C 1.09480(5) 0.30485(5) 0.96369(5)
C100 C 1.02780(5) 0.26532(5) 0.96205(5)
C101 C 0.88746(5) 0.24375(5) 0.95602(5)
C102 C 0.80572(5) 0.27359(5) 0.95395(5)
C103 C 0.99885(5) 0.40137(5) 0.85924(5)
C104 C 0.95563(5) 0.34891(5) 0.84581(5)
C105 C 0.82892(5) 0.30362(5) 0.83479(5)
C106 C 0.75310(5) 0.30083(5) 0.84061(5)
C107 C 0.69886(5) 0.27471(5) 0.87580(5)
C108 C 0.72323(5) 0.25866(5) 0.90465(5)
H181 H 1.0801 0.4791 0.8960
H182 H 1.0672 0.4530 0.9233
H183 H 0.9347 0.4995 0.8788
H184 H 0.9862 0.5375 0.9050
H185 H 0.8189 0.5065 0.8942
H186 H 0.8742 0.5452 0.9195
H187 H 0.7719 0.5067 0.9333
H188 H 0.8560 0.4792 0.9522
H189 H 0.6640 0.3543 0.9097
H190 H 0.6783 0.3319 0.9408
H191 H 1.1474 0.3843 0.8994
H192 H 1.0902 0.3293 0.8916
H193 H 1.0940 0.3392 0.9745
H194 H 1.1486 0.2874 0.9709
H195 H 1.0254 0.2374 0.9475
H196 H 1.0435 0.2464 0.9803
H197 H 0.8802 0.2180 0.9402
H198 H 0.9070 0.2223 0.9736
H199 H 0.8154 0.3030 0.9684
H200 H 0.7701 0.2443 0.9569
H201 H 0.9631 0.4338 0.8519
H202 H 1.0468 0.4048 0.8538
H203 H 0.9396 0.3538 0.8255
H204 H 0.9923 0.3164 0.8517
H205 H 0.8173 0.3157 0.8154
H206 H 0.8514 0.2651 0.8373
H207 H 0.7301 0.3392 0.8387
H208 H 0.7149 0.2753 0.8271
H209 H 0.6701 0.3111 0.8730
H210 H 0.6639 0.2456 0.8639
H211 H 0.7598 0.2261 0.9075
H212 H 0.6746 0.2474 0.9085
H213 H 0.7071 0.4264 0.9415
H214 H 0.7879 0.3919 0.9579
H215 H 1.1180 0.3881 0.9441
H216 H 1.1777 0.3380 0.9424
K6 K 0.89500(9) 0.14464(9) 0.40818(7)
N11 N 1.02529(9) 0.09611(9) 0.39027(9)
N12 N 0.76148(9) 0.19860(9) 0.42446(9)
O31 O 0.92281(9) 0.02541(9) 0.41529(9)
O32 O 0.78305(9) 0.07742(9) 0.42216(9)
O33 O 1.06416(9) 0.18404(9) 0.43336(9)
O34 O 0.94729(9) 0.21237(9) 0.45672(9)
O35 O 0.88577(9) 0.16168(9) 0.35213(9)
O36 O 0.76870(9) 0.22014(9) 0.36873(9)
C91 C 1.04207(5) 0.04075(5) 0.40308(5)
C92 C 0.96840(5) 0.00118(5) 0.39868(5)
C93 C 0.85724(5) -0.00621(5) 0.41352(5)
C94 C 0.81679(5) 0.01769(5) 0.43315(5)
C95 C 0.74706(5) 0.10065(5) 0.43947(5)
C96 C 0.70472(5) 0.15337(5) 0.42811(5)
C97 C 1.10064(5) 0.13458(5) 0.40184(5)
C98 C 1.12318(5) 0.14619(5) 0.43388(5)
C99 C 1.09480(5) 0.19515(5) 0.46369(5)
C100 C 1.02780(5) 0.23468(5) 0.46205(5)
C101 C 0.88746(5) 0.25625(5) 0.45602(5)
C102 C 0.80572(5) 0.22641(5) 0.45395(5)
C103 C 0.99885(5) 0.09863(5) 0.35924(5)
C104 C 0.95563(5) 0.15109(5) 0.34581(5)
C105 C 0.82892(5) 0.19638(5) 0.33479(5)
C106 C 0.75310(5) 0.19917(5) 0.34061(5)
C107 C 0.69886(5) 0.22529(5) 0.37580(5)
C108 C 0.72323(5) 0.24134(5) 0.40465(5)
H181 H 1.0801 0.0209 0.3960
H182 H 1.0672 0.0470 0.4233
H183 H 0.9347 0.0005 0.3788
H184 H 0.9862 -0.0375 0.4050
H185 H 0.8189 -0.0065 0.3942
H186 H 0.8742 -0.0452 0.4195
H187 H 0.7719 -0.0067 0.4333
H188 H 0.8560 0.0208 0.4522
H189 H 0.6640 0.1457 0.4097
H190 H 0.6783 0.1681 0.4408
H191 H 1.1474 0.1157 0.3994
H192 H 1.0902 0.1707 0.3916
H193 H 1.0940 0.1608 0.4745
H194 H 1.1486 0.2126 0.4709
H195 H 1.0254 0.2626 0.4475
H196 H 1.0435 0.2536 0.4803
H197 H 0.8802 0.2820 0.4402
H198 H 0.9070 0.2777 0.4736
H199 H 0.8154 0.1970 0.4684
H200 H 0.7701 0.2557 0.4569
H201 H 0.9631 0.0662 0.3519
H202 H 1.0468 0.0952 0.3538
H203 H 0.9396 0.1462 0.3255
H204 H 0.9923 0.1836 0.3517
H205 H 0.8173 0.1843 0.3154
H206 H 0.8514 0.2349 0.3373
H207 H 0.7301 0.1608 0.3387
H208 H 0.7149 0.2247 0.3271
H209 H 0.6701 0.1889 0.3730
H210 H 0.6639 0.2544 0.3639
H211 H 0.7598 0.2739 0.4075
H212 H 0.6746 0.2526 0.4085
H213 H 0.7071 0.0736 0.4415
H214 H 0.7879 0.1081 0.4579
H215 H 1.1180 0.1119 0.4441
H216 H 1.1777 0.1620 0.4424
K6 K 0.10500(9) 0.64464(9) 0.09182(7)
N11 N -0.02529(9) 0.59611(9) 0.10973(9)
N12 N 0.23852(9) 0.69860(9) 0.07554(9)
O31 O 0.07719(9) 0.52541(9) 0.08471(9)
O32 O 0.21695(9) 0.57742(9) 0.07784(9)
O33 O -0.06416(9) 0.68404(9) 0.06664(9)
O34 O 0.05271(9) 0.71237(9) 0.04328(9)
O35 O 0.11423(9) 0.66168(9) 0.14787(9)
O36 O 0.23130(9) 0.72014(9) 0.13127(9)
C91 C -0.04207(5) 0.54075(5) 0.09692(5)
C92 C 0.03160(5) 0.50118(5) 0.10132(5)
C93 C 0.14276(5) 0.49379(5) 0.08648(5)
C94 C 0.18321(5) 0.51769(5) 0.06685(5)
C95 C 0.25294(5) 0.60065(5) 0.06053(5)
C96 C 0.29528(5) 0.65337(5) 0.07189(5)
C97 C -0.10064(5) 0.63458(5) 0.09816(5)
C98 C -0.12318(5) 0.64619(5) 0.06612(5)
C99 C -0.09480(5) 0.69515(5) 0.03631(5)
C100 C -0.02780(5) 0.73468(5) 0.03795(5)
C101 C 0.11254(5) 0.75625(5) 0.04398(5)
C102 C 0.19428(5) 0.72641(5) 0.04605(5)
C103 C 0.00115(5) 0.59863(5) 0.14076(5)
C104 C 0.04437(5) 0.65109(5) 0.15419(5)
C105 C 0.17108(5) 0.69638(5) 0.16521(5)
C106 C 0.24690(5) 0.69917(5) 0.15939(5)
C107 C 0.30114(5) 0.72529(5) 0.12420(5)
C108 C 0.27677(5) 0.74134(5) 0.09535(5)
H181 H -0.0801 0.5209 0.1040
H182 H -0.0672 0.5470 0.0767
H183 H 0.0653 0.5005 0.1212
H184 H 0.0138 0.4625 0.0950
H185 H 0.1811 0.4935 0.1058
H186 H 0.1258 0.4548 0.0805
H187 H 0.2281 0.4933 0.0667
H188 H 0.1440 0.5208 0.0478
H189 H 0.3360 0.6457 0.0903
H190 H 0.3217 0.6681 0.0592
H191 H -0.1474 0.6157 0.1006
H192 H -0.0902 0.6707 0.1084
H193 H -0.0940 0.6608 0.0255
H194 H -0.1486 0.7126 0.0291
H195 H -0.0254 0.7626 0.0525
H196 H -0.0435 0.7536 0.0197
H197 H 0.1198 0.7820 0.0598
H198 H 0.0930 0.7777 0.0264
H199 H 0.1846 0.6970 0.0316
H200 H 0.2299 0.7557 0.0431
H201 H 0.0369 0.5662 0.1481
H202 H -0.0468 0.5952 0.1462
H203 H 0.0604 0.6462 0.1745
H204 H 0.0077 0.6836 0.1483
H205 H 0.1827 0.6843 0.1846
H206 H 0.1486 0.7349 0.1627
H207 H 0.2699 0.6608 0.1613
H208 H 0.2851 0.7247 0.1729
H209 H 0.3299 0.6889 0.1270
H210 H 0.3361 0.7544 0.1361
H211 H 0.2402 0.7739 0.0925
H212 H 0.3254 0.7526 0.0915
H213 H 0.2929 0.5736 0.0585
H214 H 0.2121 0.6081 0.0421
H215 H -0.1180 0.6119 0.0559
H216 H -0.1777 0.6620 0.0576
N13 N 0.63905(5) 0.43999(5) 0.86084(5)
C109 C 0.61517(5) 0.48543(5) 0.87448(4)
C110 C 0.52949(5) 0.51091(5) 0.86019(4)
N14 N 0.50665(5) 0.55761(5) 0.87334(5)
H217 H 0.6880 0.4268 0.8681
H218 H 0.6410 0.4443 0.8441
H219 H 0.6194 0.4723 0.8932
H220 H 0.6533 0.5166 0.8761
H221 H 0.5244 0.5221 0.8412
H222 H 0.4913 0.4802 0.8595
H223 H 0.4520 0.5678 0.8625
H224 H 0.5100 0.5482 0.8920
N13 N 0.36095(5) 0.93999(5) 0.63916(5)
C109 C 0.38483(5) 0.98543(5) 0.62552(4)
C110 C 0.47051(5) 1.01091(5) 0.63981(4)
N14 N 0.49335(5) 1.05761(5) 0.62666(5)
H217 H 0.3120 0.9268 0.6319
H218 H 0.3590 0.9443 0.6559
H219 H 0.3806 0.9723 0.6068
H220 H 0.3467 1.0166 0.6239
H221 H 0.4756 1.0221 0.6588
H222 H 0.5087 0.9802 0.6405
H223 H 0.5480 1.0678 0.6375
H224 H 0.4900 1.0482 0.6080
N13 N 0.36095(5) 0.56001(5) 0.13916(5)
C109 C 0.38483(5) 0.51457(5) 0.12552(4)
C110 C 0.47051(5) 0.48909(5) 0.13981(4)
N14 N 0.49335(5) 0.44239(5) 0.12666(5)
H217 H 0.3120 0.5732 0.1319
H218 H 0.3590 0.5557 0.1559
H219 H 0.3806 0.5277 0.1068
H220 H 0.3467 0.4834 0.1239
H221 H 0.4756 0.4779 0.1588
H222 H 0.5087 0.5198 0.1405
H223 H 0.5480 0.4322 0.1375
H224 H 0.4900 0.4518 0.1080
N13 N 0.63905(5) 0.06001(5) 0.36084(5)
C109 C 0.61517(5) 0.01457(5) 0.37448(4)
C110 C 0.52949(5) -0.01091(5) 0.36019(4)
N14 N 0.50665(5) -0.05761(5) 0.37334(5)
H217 H 0.6880 0.0732 0.3681
H218 H 0.6410 0.0557 0.3441
H219 H 0.6194 0.0277 0.3932
H220 H 0.6533 -0.0166 0.3761
H221 H 0.5244 -0.0221 0.3412
H222 H 0.4913 0.0198 0.3595
H223 H 0.4520 -0.0678 0.3625
H224 H 0.5100 -0.0482 0.3920
N15 N 0.96990(5) 0.44659(5) 0.62595(5)
C111 C 0.90478(5) 0.47641(5) 0.62989(5)
C112 C 0.91804(5) 0.53984(5) 0.63862(5)
N16 N 0.85164(5) 0.57046(5) 0.64113(5)
H225 H 0.9526 0.4085 0.6202
H226 H 0.9870 0.4646 0.6120
H227 H 0.8883 0.4561 0.6438
H228 H 0.8606 0.4756 0.6118
H229 H 0.9353 0.5599 0.6247
H230 H 0.9617 0.5406 0.6569
H231 H 0.8590 0.6051 0.6473
H232 H 0.8223 0.5557 0.6500
N15 N 0.03010(5) -0.05341(5) 0.87405(5)
C111 C 0.09522(5) -0.02359(5) 0.87011(5)
C112 C 0.08196(5) 0.03984(5) 0.86138(5)
N16 N 0.14836(5) 0.07046(5) 0.85887(5)
H225 H 0.0474 -0.0915 0.8798
H226 H 0.0130 -0.0354 0.8880
H227 H 0.1117 -0.0439 0.8562
H228 H 0.1394 -0.0244 0.8882
H229 H 0.0647 0.0599 0.8753
H230 H 0.0383 0.0406 0.8431
H231 H 0.1410 0.1051 0.8527
H232 H 0.1777 0.0557 0.8500
N15 N 0.03010(5) 0.55341(5) 0.37405(5)
C111 C 0.09522(5) 0.52359(5) 0.37011(5)
C112 C 0.08196(5) 0.46016(5) 0.36138(5)
N16 N 0.14836(5) 0.42954(5) 0.35887(5)
H225 H 0.0474 0.5915 0.3798
H226 H 0.0130 0.5354 0.3880
H227 H 0.1117 0.5439 0.3562
H228 H 0.1394 0.5244 0.3882
H229 H 0.0647 0.4401 0.3753
H230 H 0.0383 0.4594 0.3431
H231 H 0.1410 0.3949 0.3527
H232 H 0.1777 0.4443 0.3500
N15 N 0.96990(5) 1.05341(5) 0.12595(5)
C111 C 0.90478(5) 1.02359(5) 0.12989(5)
C112 C 0.91804(5) 0.96016(5) 0.13862(5)
N16 N 0.85164(5) 0.92954(5) 0.14113(5)
H225 H 0.9526 1.0915 0.1202
H226 H 0.9870 1.0354 0.1120
H227 H 0.8883 1.0439 0.1438
H228 H 0.8606 1.0244 0.1118
H229 H 0.9353 0.9401 0.1247
H230 H 0.9617 0.9594 0.1569
H231 H 0.8590 0.8949 0.1473
H232 H 0.8223 0.9443 0.1500
N17? N 0.50210(5) 0.60672(5) 0.49224(5)
C113? C 0.5000 0.5000 0.5000
C114? C 0.47433(5) 0.56121(5) 0.50471(3)
N18? N 0.47482(5) 0.45466(5) 0.51337(4)
H233? H 0.5575 0.6079 0.4884
H234? H 0.4979 0.6412 0.5017
H235? H 0.4191 0.5641 0.5050
H236? H 0.5131 0.5667 0.5237
H237? H 0.5579 0.4945 0.5037
H238? H 0.4704 0.4970 0.4799
H239? H 0.4858 0.4196 0.5058
H240? H 0.4178 0.4578 0.5098
Mn4? Mn 0.5000 0.5000 1.0000
Mn5? Mn 0.76757(5) 0.49740(4) 0.75436(3)
Pb25? Pb 0.68301(3) 0.47442(4) 0.99966(2)
Pb26? Pb 0.56399(6) 0.55358(5) 0.953257(19)
Pb27? Pb 0.51457(5) 0.42398(4) 0.953870(19)
Pb28? Pb 0.44039(5) 0.61415(2) 0.98233(2)
Pb29? Pb 0.36742(5) 0.51147(4) 0.942734(13)
Pb30? Pb 0.36260(5) 0.40720(3) 0.98210(2)
Pb31? Pb 0.79055(7) 0.60342(6) 0.79912(4)
Pb32? Pb 0.90198(7) 0.46918(6) 0.72345(4)
Pb33? Pb 0.72828(7) 0.51793(6) 0.69060(3)
Pb34? Pb 0.74812(7) 0.39039(6) 0.71007(4)
Pb35? Pb 0.63567(7) 0.52431(6) 0.78577(4)
Pb36? Pb 0.80961(8) 0.47498(7) 0.81802(4)
Pb37? Pb 0.93547(6) 0.51731(6) 0.78945(4)
Pb38? Pb 0.83882(6) 0.59866(5) 0.73981(4)
Pb39? Pb 0.65604(6) 0.60479(5) 0.73953(4)
Pb40? Pb 0.60088(6) 0.47862(6) 0.71931(4)
Pb41? Pb 0.69593(7) 0.39588(6) 0.76852(4)
Pb42? Pb 0.88037(7) 0.39052(6) 0.77004(4)
N17? N 0.49790(5) 0.39328(5) 0.50776(5)
C114? C 0.52567(5) 0.43879(5) 0.49529(3)
N18? N 0.52518(5) 0.54534(5) 0.48663(4)
H233? H 0.4425 0.3921 0.5116
H234? H 0.5021 0.3588 0.4983
H235? H 0.5809 0.4359 0.4950
H236? H 0.4869 0.4333 0.4763
H237? H 0.4421 0.5055 0.4963
H238? H 0.5296 0.5030 0.5201
H239? H 0.5142 0.5804 0.4942
H240? H 0.5822 0.5422 0.4902
Mn4? Mn 0.5000 0.5000 0.0000
Mn5? Mn 0.23243(5) 0.50260(4) 0.24564(3)
Pb25? Pb 0.31699(3) 0.52558(4) 0.00034(2)
Pb26? Pb 0.43601(6) 0.44642(5) 0.046743(19)
Pb27? Pb 0.48543(5) 0.57602(4) 0.046130(19)
Pb28? Pb 0.55961(5) 0.38585(2) 0.01767(2)
Pb29? Pb 0.63258(5) 0.48853(4) 0.057266(13)
Pb30? Pb 0.63740(5) 0.59280(3) 0.01790(2)
Pb31? Pb 0.20945(7) 0.39658(6) 0.20088(4)
Pb32? Pb 0.09802(7) 0.53082(6) 0.27655(4)
Pb33? Pb 0.27172(7) 0.48207(6) 0.30940(3)
Pb34? Pb 0.25188(7) 0.60961(6) 0.28993(4)
Pb35? Pb 0.36433(7) 0.47569(6) 0.21423(4)
Pb36? Pb 0.19039(8) 0.52502(7) 0.18198(4)
Pb37? Pb 0.06453(6) 0.48269(6) 0.21055(4)
Pb38? Pb 0.16118(6) 0.40134(5) 0.26019(4)
Pb39? Pb 0.34396(6) 0.39521(5) 0.26047(4)
Pb40? Pb 0.39912(6) 0.52138(6) 0.28069(4)
Pb41? Pb 0.30407(7) 0.60412(6) 0.23148(4)
Pb42? Pb 0.11963(7) 0.60948(6) 0.22996(4)
N17? N 0.49790(5) 0.10672(5) 1.00776(5)
C113? C 0.5000 0.0000 1.0000
C114? C 0.52567(5) 0.06121(5) 0.99529(3)
N18? N 0.52518(5) -0.04534(5) 0.98663(4)
H233? H 0.4425 0.1079 1.0116
H234? H 0.5021 0.1412 0.9983
H235? H 0.5809 0.0641 0.9950
H236? H 0.4869 0.0667 0.9763
H237? H 0.4421 -0.0055 0.9963
H238? H 0.5296 -0.0030 1.0201
H239? H 0.5142 -0.0804 0.9942
H240? H 0.5822 -0.0422 0.9902
Mn4? Mn 0.5000 0.0000 0.5000
Mn5? Mn 0.23243(5) -0.00260(4) 0.74564(3)
Pb25? Pb 0.31699(3) -0.02558(4) 0.50034(2)
Pb26? Pb 0.43601(6) 0.05358(5) 0.546743(19)
Pb27? Pb 0.48543(5) -0.07602(4) 0.546130(19)
Pb28? Pb 0.55961(5) 0.11415(2) 0.51767(2)
Pb29? Pb 0.63258(5) 0.01147(4) 0.557266(13)
Pb30? Pb 0.63740(5) -0.09280(3) 0.51790(2)
Pb31? Pb 0.20945(7) 0.10342(6) 0.70088(4)
Pb32? Pb 0.09802(7) -0.03082(6) 0.77655(4)
Pb33? Pb 0.27172(7) 0.01793(6) 0.80940(3)
Pb34? Pb 0.25188(7) -0.10961(6) 0.78993(4)
Pb35? Pb 0.36433(7) 0.02431(6) 0.71423(4)
Pb36? Pb 0.19039(8) -0.02502(7) 0.68198(4)
Pb37? Pb 0.06453(6) 0.01731(6) 0.71055(4)
Pb38? Pb 0.16118(6) 0.09866(5) 0.76019(4)
Pb39? Pb 0.34396(6) 0.10479(5) 0.76047(4)
Pb40? Pb 0.39912(6) -0.02138(6) 0.78069(4)
Pb41? Pb 0.30407(7) -0.10412(6) 0.73148(4)
Pb42? Pb 0.11963(7) -0.10948(6) 0.72996(4)
N17? N 0.50210(5) 0.89328(5) -0.00776(5)
C113? C 0.5000 1.0000 0.0000
C114? C 0.47433(5) 0.93879(5) 0.00471(3)
N18? N 0.47482(5) 1.04534(5) 0.01337(4)
H233? H 0.5575 0.8921 -0.0116
H234? H 0.4979 0.8588 0.0017
H235? H 0.4191 0.9359 0.0050
H236? H 0.5131 0.9333 0.0237
H237? H 0.5579 1.0055 0.0037
H238? H 0.4704 1.0030 -0.0201
H239? H 0.4858 1.0804 0.0058
H240? H 0.4178 1.0422 0.0098
Mn4? Mn 0.5000 1.0000 0.5000
Mn5? Mn 0.76757(5) 1.00260(4) 0.25436(3)
Pb25? Pb 0.68301(3) 1.02558(4) 0.49966(2)
Pb26? Pb 0.56399(6) 0.94642(5) 0.453257(19)
Pb27? Pb 0.51457(5) 1.07602(4) 0.453870(19)
Pb28? Pb 0.44039(5) 0.88585(2) 0.48233(2)
Pb29? Pb 0.36742(5) 0.98853(4) 0.442734(13)
Pb30? Pb 0.36260(5) 1.09280(3) 0.48210(2)
Pb31? Pb 0.79055(7) 0.89658(6) 0.29912(4)
Pb32? Pb 0.90198(7) 1.03082(6) 0.22345(4)
Pb33? Pb 0.72828(7) 0.98207(6) 0.19060(3)
Pb34? Pb 0.74812(7) 1.10961(6) 0.21007(4)
Pb35? Pb 0.63567(7) 0.97569(6) 0.28577(4)
Pb36? Pb 0.80961(8) 1.02502(7) 0.31802(4)
Pb37? Pb 0.93547(6) 0.98269(6) 0.28945(4)
Pb38? Pb 0.83882(6) 0.90134(5) 0.23981(4)
Pb39? Pb 0.65604(6) 0.89521(5) 0.23953(4)
Pb40? Pb 0.60088(6) 1.02138(6) 0.21931(4)
Pb41? Pb 0.69593(7) 1.10412(6) 0.26852(4)
Pb42? Pb 0.88037(7) 1.10948(6) 0.27004(4)

#END
