
#######################################################################
#
#                 Cambridge Crystallographic Data Centre
#                                CCDC 
#
#######################################################################
#
# If this CIF has been generated from an entry in the Cambridge 
# Structural Database, then it will include bibliographic, chemical, 
# crystal, experimental, refinement or atomic coordinate data resulting 
# from the CCDC's data processing and validation procedures.
#
#######################################################################

data_LIBFUY
_symmetry_cell_setting           triclinic
_symmetry_space_group_name_H-M   'P -1'
_symmetry_Int_Tables_number      2
_space_group_name_Hall           '-P 1'
loop_
_symmetry_equiv_pos_site_id
_symmetry_equiv_pos_as_xyz
1 x,y,z
2 -x,-y,-z
_cell_length_a                   7.6284(10)
_cell_length_b                   8.0215(11)
_cell_length_c                   12.0085(16)
_cell_angle_alpha                77.503(2)
_cell_angle_beta                 80.148(2)
_cell_angle_gamma                66.855(2)
_cell_volume                     656.626
loop_
_atom_site_label
_atom_site_type_symbol
_atom_site_fract_x
_atom_site_fract_y
_atom_site_fract_z
Ir1 Ir 0.85779(2) 0.641516(19) 0.732115(12)
Cl1 Cl 0.9787(2) 0.82492(18) 0.80209(11)
C1 C 0.6809(6) 0.4813(6) 0.7365(4)
C2 C 0.7455(6) 0.4380(6) 0.8497(4)
C3 C 0.6753(6) 0.6004(6) 0.8973(4)
C4 C 0.5605(6) 0.7481(6) 0.8144(4)
C5 C 0.5576(6) 0.6724(6) 0.7192(4)
C6 C 0.7105(9) 0.3447(8) 0.6612(5)
C7 C 0.8619(8) 0.2497(7) 0.9058(5)
C8 C 0.7039(8) 0.6208(7) 1.0123(4)
C9 C 0.4514(9) 0.9416(8) 0.8343(6)
C10 C 0.4464(8) 0.7716(9) 0.6175(5)
O1 O 1.2364(8) 0.3879(8) 0.6572(5)
C11 C 1.1091(8) 0.4757(7) 0.6839(5)
C12 C 0.8646(8) 0.8129(8) 0.5753(4)
H1 H 0.9865 0.8291 0.5597
H2 H 0.7616 0.9315 0.5781
H3 H 0.8490 0.7580 0.5150
H4 H 0.604(10) 0.298(10) 0.685(6)
H5 H 0.815(9) 0.250(9) 0.675(5)
H6 H 0.705(9) 0.406(9) 0.578(6)
H7 H 0.953(10) 0.187(9) 0.859(6)
H8 H 0.793(8) 0.185(8) 0.918(5)
H9 H 0.913(10) 0.236(10) 0.977(7)
H10 H 0.733(7) 0.718(7) 1.010(4)
H11 H 0.597(9) 0.643(8) 1.058(5)
H12 H 0.792(9) 0.518(9) 1.051(5)
H13 H 0.538(10) 0.981(10) 0.880(6)
H14 H 0.434(8) 1.030(9) 0.781(5)
H15 H 0.331(11) 0.945(10) 0.870(6)
H16 H 0.434(8) 0.902(9) 0.607(5)
H17 H 0.507(11) 0.718(11) 0.548(7)
H18 H 0.339(9) 0.760(8) 0.636(5)
Ir1 Ir 0.14221(2) 0.358484(19) 0.267885(12)
Cl1 Cl 0.0213(2) 0.17508(18) 0.19791(11)
C1 C 0.3191(6) 0.5187(6) 0.2635(4)
C2 C 0.2545(6) 0.5620(6) 0.1503(4)
C3 C 0.3247(6) 0.3996(6) 0.1027(4)
C4 C 0.4395(6) 0.2519(6) 0.1856(4)
C5 C 0.4424(6) 0.3276(6) 0.2808(4)
C6 C 0.2895(9) 0.6553(8) 0.3388(5)
C7 C 0.1381(8) 0.7503(7) 0.0942(5)
C8 C 0.2961(8) 0.3792(7) -0.0123(4)
C9 C 0.5486(9) 0.0584(8) 0.1657(6)
C10 C 0.5536(8) 0.2284(9) 0.3825(5)
O1 O -0.2364(8) 0.6121(8) 0.3428(5)
C11 C -0.1091(8) 0.5243(7) 0.3161(5)
C12 C 0.1354(8) 0.1871(8) 0.4247(4)
H1 H 0.0135 0.1709 0.4403
H2 H 0.2384 0.0685 0.4219
H3 H 0.1510 0.2420 0.4850
H4 H 0.396(10) 0.702(10) 0.315(6)
H5 H 0.185(9) 0.750(9) 0.325(5)
H6 H 0.295(9) 0.594(9) 0.422(6)
H7 H 0.047(10) 0.813(9) 0.141(6)
H8 H 0.207(8) 0.815(8) 0.082(5)
H9 H 0.087(10) 0.764(10) 0.023(7)
H10 H 0.267(7) 0.282(7) -0.010(4)
H11 H 0.403(9) 0.357(8) -0.058(5)
H12 H 0.208(9) 0.482(9) -0.051(5)
H13 H 0.462(10) 0.019(10) 0.120(6)
H14 H 0.566(8) -0.030(9) 0.219(5)
H15 H 0.669(11) 0.055(10) 0.130(6)
H16 H 0.566(8) 0.098(9) 0.393(5)
H17 H 0.493(11) 0.282(11) 0.452(7)
H18 H 0.661(9) 0.240(8) 0.364(5)

#END
