./LIBSOG_from_POSCAR.cif_generated_by_CrystalShift
_symmetry_cell_setting triclinic
_symmetry_space_group_name_H-M 'P 1'
loop_
_symmetry_equiv_pos_site_id
_symmetry_equiv_pos_as_xyz
1 x,y,z
_cell_length_a 9.922000
_cell_length_b 11.229000
_cell_length_c 26.423000
_cell_angle_alpha 87.146000
_cell_angle_beta 89.440000
_cell_angle_gamma 73.282000
_cell_volume 2815.934726
loop_
_atom_site_label
_atom_site_type_symbol
_atom_site_fract_x
_atom_site_fract_y
_atom_site_fract_z
H1 H 1.262100 -0.079100 0.431300
H2 H 0.912400 0.642300 0.196900
H3 H 0.415500 1.211900 0.534500
H4 H 0.431100 1.346900 0.535100
H5 H 0.427100 1.270900 0.586200
H6 H 0.926000 0.681600 0.139700
H7 H 0.599500 1.155200 0.472200
H8 H 0.754800 1.151400 0.484800
H9 H 0.642500 1.279100 0.471600
H10 H 0.807600 0.621200 0.156600
H11 H 0.794100 1.231800 0.571100
H12 H 0.670600 1.285300 0.608600
H13 H 0.680100 1.357900 0.557100
H14 H 1.383600 -0.112700 0.391500
H15 H 0.980200 0.420400 0.173500
H16 H 1.398000 -0.037000 0.438400
H17 H 1.055000 0.516500 0.073500
H18 H 0.723800 0.854700 0.590500
H19 H 0.915700 0.478900 0.078900
H20 H 0.530100 0.782900 0.542500
H21 H 1.176200 0.523100 0.130700
H22 H 0.795800 0.383700 0.329000
H23 H 1.192000 0.310700 0.073900
H24 H 0.665000 0.578900 0.554300
H25 H 0.791400 0.625800 0.571600
H26 H 0.960000 0.366200 0.009400
H27 H 0.772300 0.742500 0.482100
H28 H 1.194800 0.380600 0.141200
H29 H 0.531300 0.700200 0.464200
H30 H 0.598700 0.559100 0.479800
H31 H 0.641200 0.615000 0.428600
H32 H 0.819700 0.436400 -0.125000
H33 H 0.945900 0.529100 0.495600
H34 H 0.857200 0.517200 0.448300
H35 H 0.821800 0.469300 0.502100
H36 H 0.944200 0.399500 0.315600
H37 H 0.713500 0.723200 0.655600
H38 H 0.901300 0.489800 -0.084600
H39 H 0.498100 0.690600 0.709200
H40 H 1.097200 0.425700 -0.140900
H41 H 0.870500 0.332000 0.278800
H42 H 1.032700 0.330200 -0.166500
H43 H 0.770600 0.527500 0.732000
H44 H 1.169200 0.202800 -0.125600
H45 H 0.635400 0.577300 0.804200
H46 H 0.651600 0.437800 0.793500
H47 H 0.510900 0.540500 0.779500
H48 H 1.201400 0.300700 -0.091200
H49 H 0.684300 0.469300 0.659700
H50 H 0.541700 0.472900 0.686600
H51 H 0.680600 0.371400 0.703700
H52 H 1.232800 0.181800 0.136700
H53 H 0.420400 0.845400 0.761300
H54 H 1.054800 0.142500 -0.069100
H55 H 0.612000 0.962400 0.793100
H56 H 0.465400 0.254200 0.018100
H57 H 1.017500 0.323900 0.393700
H58 H 0.365500 0.368400 -0.013600
H59 H 0.321000 1.086300 0.769500
H60 H 0.411600 0.221800 -0.074300
H61 H 0.374700 1.264700 0.780300
H62 H 0.532200 1.190900 0.791600
H63 H 0.414100 1.177800 0.829400
H64 H 0.566000 0.158500 -0.053700
H65 H 0.444600 1.032600 0.692000
H66 H 0.556500 1.098500 0.707400
H67 H 0.401400 1.177700 0.695300
H68 H 0.868400 0.307900 0.405600
H69 H 0.472700 0.396200 -0.106300
H70 H 0.433200 0.913200 0.950600
H71 H 0.596800 0.282400 -0.123700
H72 H 1.002900 0.193600 0.412600
H73 H 1.032000 0.083800 0.183600
H74 H 0.627300 0.818200 0.993200
H75 H 0.653500 0.700100 0.961200
H76 H 0.658200 0.443500 -0.071200
H77 H 0.828400 0.744100 0.940200
H78 H 0.766700 0.884200 0.953700
H79 H 0.377000 0.649500 0.082000
H80 H 0.743500 0.783800 0.858100
H81 H 0.744400 0.922400 0.867600
H82 H 0.484400 0.720100 0.097500
H83 H 0.507100 0.647300 0.047600
H84 H 0.281100 0.593600 0.924500
H85 H 0.420600 0.515900 0.164500
H86 H 0.887400 0.180300 0.336500
H87 H 0.572500 0.437100 0.181200
H88 H 0.066700 0.639300 0.974300
H89 H 0.208800 0.629400 1.002500
H90 H 0.528600 0.582600 0.183100
H91 H 0.064900 0.804300 1.024500
H92 H 0.011200 0.841600 0.968300
H93 H 0.664600 0.524700 0.114300
H94 H 0.192600 0.944200 0.964300
H95 H 0.282500 0.853800 1.007800
H96 H 0.457500 0.423600 0.076500
H97 H 0.182400 0.854500 0.862600
H98 H 0.713900 0.279900 0.103900
H99 H -0.038400 0.824700 0.807300
H100 H 1.305400 -0.066900 0.162800
H101 H 0.578100 -0.071500 0.159800
H102 H 0.499900 0.001100 0.111400
H103 H -0.035000 1.030800 0.824000
H104 H 0.120600 1.006500 0.805500
H105 H 0.622500 -0.121900 0.106000
H106 H 0.040100 1.003400 0.721800
H107 H 0.769700 -0.090300 0.062300
H108 H -0.054700 1.233600 0.718200
H109 H 0.068700 1.198800 0.757800
H110 H -0.087700 1.231600 0.776300
H111 H 0.673600 0.042300 0.045100
H112 H -0.188900 1.090200 0.707900
H113 H -0.217000 1.115000 0.765400
H114 H -0.179000 0.978600 0.747100
H115 H 1.155400 0.228700 0.318300
H116 H -0.029900 0.734800 0.737000
H117 H 0.818200 0.027800 0.071800
H118 H 0.214700 0.668000 0.681600
H119 H 0.742600 -0.052700 0.141100
H120 H 0.753600 0.116300 0.152000
H121 H 0.521500 0.101400 0.206500
H122 H -0.009000 0.561600 0.678900
H123 H 1.208400 -0.173500 0.116500
H124 H 0.090600 0.504200 0.751900
H125 H 0.235000 0.442000 0.726100
H126 H 0.106400 0.390200 0.718100
H127 H 0.812400 -0.196200 0.361000
H128 H 0.119300 0.426200 0.623200
H129 H 0.235300 0.495900 0.623700
H130 H 0.083800 0.565700 0.603400
H131 H 0.999900 0.118700 0.258300
H132 H 0.212100 0.790800 0.617000
H133 H 0.915200 -0.246300 0.316400
H134 H -0.031000 0.960300 0.576300
H135 H 0.869200 -0.103900 0.326400
H136 H 1.089000 -0.142400 0.213200
H137 H 0.619900 -0.284400 0.322200
H138 H 0.256000 0.955800 0.554300
H139 H 0.577900 -0.255000 0.264900
H140 H 0.206800 0.987500 0.639500
H141 H 0.066600 1.091800 0.626400
H142 H 0.211900 1.115700 0.614500
H143 H 0.728800 -0.339500 0.279900
H144 H 0.115300 1.050200 0.493100
H145 H 0.157200 1.151400 0.523000
H146 H 0.008800 1.130500 0.531000
H147 H 1.237500 -0.231800 0.200900
H148 H 0.737000 -0.142900 0.254600
H149 H -0.144500 0.925100 0.429300
H150 H -0.050100 0.789800 0.443400
H151 H 0.019800 0.894500 0.427300
H152 H 0.563700 -0.053200 0.336200
H153 H 0.509500 -0.040100 0.280200
H154 H 0.158400 0.553300 0.303100
H155 H 0.136600 0.604300 0.357700
H156 H 0.123900 0.471200 0.348300
H157 H 1.164400 -0.034000 0.096300
H158 H 0.519400 0.517400 0.332400
H159 H 0.392100 0.637800 0.335700
H160 H 0.410300 0.558000 0.287700
H161 H 0.693000 0.078000 0.320200
H162 H 0.410100 0.406500 0.424500
H163 H 0.265300 0.381500 0.414500
H164 H 0.270000 0.515300 0.427000
H165 H 1.223400 -0.129200 0.240400
H166 H 0.426800 0.169700 0.286200
H167 H 1.057900 -0.086500 0.128000
H168 H 1.184500 0.467500 0.186600
C169 C 0.486000 0.281000 0.326700
C170 C 0.625100 0.075500 0.293900
C171 C 0.318000 0.441000 0.410200
C172 C 0.687100 0.091900 0.245200
C173 C 0.422000 0.555000 0.323800
C174 C 0.590700 -0.044100 0.301100
C175 C 0.172500 0.531300 0.338700
C176 C 0.331000 0.475000 0.349600
C177 C 0.705000 -0.157000 0.289000
C178 C -0.058000 0.877000 0.444900
C179 C 0.653000 -0.269000 0.289000
C180 C 0.106000 1.090000 0.524700
C181 C 0.161000 1.054000 0.615800
C182 C 0.160000 1.003000 0.563100
C183 C 0.839000 -0.178000 0.327100
C184 C 0.066000 0.849000 0.523500
C185 C 0.065600 0.912700 0.568500
C186 C 0.137000 0.505000 0.628000
C187 C 0.135000 0.464000 0.722300
C188 C 0.093500 0.545000 0.679700
C189 C 0.658100 0.108200 0.149900
C190 C 1.095500 0.172900 0.318300
C191 C 0.567500 0.227300 0.123900
C192 C 1.155300 -0.090300 0.123800
C193 C 0.666000 0.007000 0.121900
C194 C 0.045000 0.765400 0.639000
C195 C 0.739000 -0.004400 0.070500
C196 C 0.113600 0.676500 0.681900
C197 C -0.162000 1.058000 0.741800
C198 C -0.024000 1.193000 0.750500
C199 C 0.589000 -0.048000 0.124900
C200 C -0.019000 1.046000 0.749300
C201 C 0.032000 0.991000 0.798600
C202 C 1.164200 0.050600 0.345700
C203 C 0.128000 0.779200 0.758600
C204 C 0.053200 0.841000 0.803700
C205 C 0.557500 0.418200 0.079300
C206 C 0.947000 0.236300 0.338300
C207 C 0.614000 0.419000 0.024900
C208 C 1.204700 -0.057400 0.167000
C209 C 0.566500 0.522900 0.113300
C210 C 0.223800 0.859000 0.978100
C211 C 0.518000 0.514000 0.164900
C212 C 0.092200 0.799000 0.989200
C213 C 0.143000 0.677000 0.976800
C214 C 0.123000 0.713000 0.879000
C215 C 0.474000 0.647800 0.081900
C216 C 0.214000 0.676000 0.928200
C217 C 0.960000 0.268000 0.392500
C218 C 0.710600 0.853000 0.879900
C219 C 1.175400 0.115500 0.227900
C220 C 0.649900 0.361600 -0.059800
C221 C 0.746000 0.816000 0.937100
C222 C 0.794100 0.273400 -0.050000
C223 C 0.636000 0.790000 0.958900
C224 C 0.548000 0.324000 -0.094600
C225 C 0.426500 0.751000 0.916100
C226 C 0.496800 0.847800 0.931300
C227 C 0.494000 0.237000 -0.060100
C228 C 0.459400 1.100200 0.709900
C229 C 0.437000 1.188300 0.794400
C230 C 0.458800 0.309600 -0.011700
C231 C 0.419600 1.086500 0.767400
C232 C 0.456000 0.938800 0.845200
C233 C 1.133000 0.074900 0.181100
C234 C 1.054800 0.227700 -0.062600
C235 C 0.513600 0.961800 0.791200
C236 C 1.110400 0.226900 -0.009300
C237 C 0.884900 0.345700 0.313700
C238 C 1.126000 0.273000 -0.105000
C239 C 0.641400 0.456200 0.691400
C240 C 0.611000 0.522600 0.781300
C241 C 1.051000 0.361500 -0.134400
C242 C 0.669000 0.541700 0.729200
C243 C 0.617000 0.779800 0.743800
C244 C 0.901300 0.416800 -0.102800
C245 C 0.599500 0.680600 0.709700
C246 C 0.854000 0.532000 0.483800
C247 C 0.615000 0.632000 0.463200
C248 C 0.746000 0.667000 0.493000
C249 C 1.089700 0.326300 0.073100
C250 C 0.707000 0.647000 0.550700
C251 C 1.043900 0.235000 0.107600
C252 C 0.545600 0.732700 0.621400
C253 C 1.012300 0.458300 0.090800
C254 C 0.608600 0.761000 0.566700
C255 C 1.334000 -0.051000 0.414000
C256 C 1.008000 0.485100 0.153400
C257 C 0.592000 0.989000 0.553300
C258 C 0.903000 0.621000 0.162600
C259 C 0.696000 1.277000 0.573500
C260 C 0.658000 1.198000 0.487900
C261 C 0.458000 1.265000 0.551700
C262 C 1.152000 0.462000 0.152900
C263 C 1.187000 -0.148600 0.209300
C264 C 0.616000 1.213000 0.550300
N265 N 1.037600 0.315000 0.020400
N266 N 1.151700 0.169100 0.140000
N267 N 0.649600 0.866000 0.572200
N268 N 0.908100 0.309100 -0.068300
N269 N 0.631300 0.714000 0.660700
N270 N 0.567500 0.372600 -0.011900
N271 N 0.501200 0.858200 0.764400
N272 N 0.539100 0.893700 0.888000
N273 N 0.623400 0.301800 0.103400
N274 N 0.294600 0.767200 0.938800
N275 N 0.607900 0.100400 0.202500
N276 N 0.132000 0.809400 0.852500
N277 N 0.501700 0.176000 0.300600
N278 N 0.054900 0.732600 0.728900
N279 N 0.122900 0.814200 0.611300
N280 N 1.078500 0.132300 0.265200
O281 O 0.145000 0.762000 0.509000
O282 O -0.056000 0.908000 0.497100
O283 O 0.361800 0.359900 0.326600
O284 O -0.091200 0.792000 0.631900
O285 O 0.588800 0.294600 0.349100
O286 O 0.255400 0.773400 0.750300
O287 O 1.160900 -0.040900 0.345700
O288 O 0.815000 0.080400 0.238400
O289 O 0.047500 0.645500 0.870700
O290 O 0.435300 0.243200 0.124300
O291 O 0.481600 0.665800 0.890100
O292 O 0.719700 0.461600 0.022800
O293 O 0.330000 0.963400 0.852900
O294 O 1.291300 0.127400 0.235900
O295 O 0.741200 0.784500 0.749500
O296 O 0.811500 0.181400 -0.023300
O297 O 0.427000 0.718800 0.623400
O298 O 1.261500 0.077200 0.382100
O299 O 1.222000 0.149900 0.002800
O300 O 0.482800 1.014400 0.526500
O301 O 0.653800 1.077700 0.567000
O302 O 0.927600 0.221400 0.109900

#END
