./LIBXEZ_from_POSCAR.cif_generated_by_CrystalShift
_symmetry_cell_setting triclinic
_symmetry_space_group_name_H-M 'P 1'
loop_
_symmetry_equiv_pos_site_id
_symmetry_equiv_pos_as_xyz
1 x,y,z
_cell_length_a 9.025000
_cell_length_b 5.549000
_cell_length_c 21.878000
_cell_angle_alpha 90.000000
_cell_angle_beta 98.470000
_cell_angle_gamma 90.000000
_cell_volume 1083.694164
loop_
_atom_site_label
_atom_site_type_symbol
_atom_site_fract_x
_atom_site_fract_y
_atom_site_fract_z
H1 H 0.859000 0.597000 0.736000
H2 H 0.367000 1.272000 0.624000
H3 H 0.161000 0.754000 0.395000
H4 H 0.141000 0.097000 0.764000
H5 H 0.282000 0.727000 0.703000
H6 H 0.642000 0.077000 1.038000
H7 H 0.863000 0.826000 0.989000
H8 H 0.322000 0.121000 0.854000
H9 H 0.122000 0.401000 0.692000
H10 H 0.472000 0.750000 0.791000
H11 H 0.718000 1.227000 0.797000
H12 H 0.358000 0.577000 0.462000
H13 H 0.839000 0.254000 1.105000
H14 H 0.633000 0.772000 0.876000
H15 H 0.528000 1.250000 0.709000
H16 H 0.878000 0.901000 0.808000
H17 H 0.141000 0.403000 0.264000
H18 H 0.282000 -0.227000 0.203000
H19 H 0.367000 0.228000 0.124000
H20 H 0.161000 0.746000 -0.105000
H21 H 0.528000 0.250000 0.209000
H22 H 0.878000 0.599000 0.308000
H23 H 0.678000 0.879000 0.146000
H24 H 0.137000 0.174000 0.011000
H25 H 0.358000 0.923000 -0.038000
H26 H 0.718000 0.273000 0.297000
H27 H 0.859000 0.903000 0.236000
H28 H 0.642000 0.423000 0.538000
H29 H 0.863000 -0.326000 0.489000
H30 H 0.322000 0.379000 0.354000
H31 H 0.122000 0.099000 0.192000
H32 H 0.472000 -0.250000 0.291000
H33 H 0.839000 0.246000 0.605000
H34 H 0.633000 -0.272000 0.376000
H35 H 0.678000 0.621000 0.646000
H36 H 0.137000 1.326000 0.511000
C37 C 0.402200 0.618700 0.785700
C38 C 0.698600 -0.069100 0.456500
C39 C 0.637700 0.154500 0.472300
C40 C 0.408900 0.061500 0.329200
C41 C 0.402200 -0.118700 0.285700
C42 C 0.292300 -0.103000 0.234200
C43 C 0.197600 0.088300 0.227300
C44 C 0.208100 0.268400 0.270200
C45 C 0.314300 0.255900 0.322500
C46 C 0.688100 0.274600 0.528100
C47 C 0.800800 0.169200 0.566500
C48 C 0.864200 -0.048200 0.550900
C49 C 0.817100 -0.176100 0.497200
C50 C 0.619600 -0.130400 0.399800
C51 C 0.791900 0.731600 0.729800
C52 C 0.802400 0.911700 0.772700
C53 C 0.685700 0.755900 0.177500
C54 C 0.791900 0.768400 0.229800
C55 C 0.707700 1.103000 0.765800
C56 C 0.597800 1.118700 0.714300
C57 C 0.619600 0.630400 0.899800
C58 C 0.817100 0.676100 0.997200
C59 C 0.864200 0.548200 1.050900
C60 C 0.800800 0.330800 1.066500
C61 C 0.688100 0.225400 1.028100
C62 C 0.637700 0.345500 0.972300
C63 C 0.698600 0.569100 0.956500
C64 C 0.591100 0.938500 0.670800
C65 C 0.802400 0.588300 0.272700
C66 C 0.707700 0.397000 0.265800
C67 C 0.408900 0.438500 0.829200
C68 C 0.685700 0.744100 0.677500
C69 C 0.292300 0.603000 0.734200
C70 C 0.197600 0.411700 0.727300
C71 C 0.208100 0.231600 0.770200
C72 C 0.314300 0.244100 0.822500
C73 C 0.597800 0.381300 0.214300
C74 C 0.591100 0.561500 0.170800
C75 C 0.380400 0.369600 0.100200
C76 C 0.301400 0.430900 0.043500
C77 C 0.362300 0.654500 0.027700
C78 C 0.311900 0.774600 -0.028100
C79 C 0.199200 0.669200 -0.066500
C80 C 0.135800 0.451800 -0.050900
C81 C 0.182900 0.323900 0.002800
C82 C 0.301400 1.069100 0.543500
C83 C 0.362300 0.845500 0.527700
C84 C 0.380400 1.130400 0.600200
C85 C 0.182900 1.176100 0.502800
C86 C 0.135800 1.048200 0.449100
C87 C 0.199200 0.830800 0.433500
C88 C 0.311900 0.725400 0.471900
N89 N 0.479100 0.952300 0.615900
N90 N 0.473200 0.771100 0.573400
N91 N 0.011700 1.151600 0.406700
N92 N 0.011700 0.348400 -0.093300
N93 N 0.479100 0.547700 0.115900
N94 N 0.988300 0.651600 1.093300
N95 N 0.520900 0.452300 0.884100
N96 N 0.526800 0.271100 0.926600
N97 N 0.526800 0.228900 0.426600
N98 N 0.520900 0.047700 0.384100
N99 N 0.988300 -0.151600 0.593300
N100 N 0.473200 0.728900 0.073400
O101 O -0.038900 1.351300 0.417400
O102 O 1.036500 0.534900 1.139400
O103 O 1.038900 0.851300 1.082600
O104 O 1.036500 -0.034900 0.639400
O105 O 1.038900 -0.351300 0.582600
O106 O -0.036500 0.465100 -0.139400
O107 O -0.038900 0.148700 -0.082600
O108 O -0.036500 1.034900 0.360600

#END
