./LABBAS_from_xyz.cif_generated_by_CrystalShift
_symmetry_cell_setting triclinic
_symmetry_space_group_name_H-M 'P 1'
loop_
_symmetry_equiv_pos_site_id
_symmetry_equiv_pos_as_xyz
1 x,y,z
_cell_length_a 9.074000
_cell_length_b 20.222000
_cell_length_c 16.503000
_cell_angle_alpha 90.000000
_cell_angle_beta 104.870000
_cell_angle_gamma 90.000000
_cell_volume 2926.795579
loop_
_atom_site_label
_atom_site_type_symbol
_atom_site_fract_x
_atom_site_fract_y
_atom_site_fract_z
S1 S 0.235370 0.388990 0.190330
S2 S -0.061910 0.318850 0.083360
S3 S -0.280100 0.338210 -0.089890
C4 C 0.365920 0.344740 0.338280
C5 C -0.136930 0.249140 0.026250
C6 C -0.447050 0.246200 -0.174910
C7 C 0.267580 0.293300 0.296160
C8 C 0.189320 0.310160 0.216120
C9 C -0.419680 0.313110 -0.176300
C10 C -0.467200 0.481080 -0.293350
C11 C -0.473500 0.364310 -0.235100
C12 C -0.254960 0.258540 -0.050660
C13 C -0.253000 0.097930 -0.115930
C14 C 0.457300 0.341310 0.427440
C15 C -0.353490 0.214810 -0.102520
C16 C 0.359160 0.399840 0.287820
C17 C -0.360400 0.142400 -0.082440
C18 C 0.361800 0.356150 0.490160
C19 C 0.076430 0.273800 0.153480
C20 C -0.483300 0.417400 -0.268940
C21 C 0.430570 0.462540 0.301630
C22 C 0.253700 0.226520 0.333970
C23 C 0.336200 0.106050 0.338190
C24 C -0.059700 0.194200 0.063220
C25 C 0.368800 0.176580 0.316730
C26 C -0.252100 0.027550 -0.083980
C27 C -0.506900 0.205560 -0.324780
C28 C 0.058700 0.207960 0.134440
C29 C 0.200800 0.439440 0.542290
C30 C -0.677600 0.109530 -0.388300
C31 C -0.561100 0.212630 -0.245110
C32 C -0.628700 0.178940 -0.399400
C33 C 0.322200 0.428000 0.493640
C34 C 0.440800 0.056660 0.311810
C35 C -0.137300 -0.016850 -0.109900
H36 H 0.147000 0.209700 0.308400
H37 H 0.267300 0.230200 0.392600
H38 H -0.467000 0.126700 -0.105100
H39 H -0.338000 0.136500 -0.022800
H40 H 0.365000 0.177700 0.256100
H41 H 0.471000 0.189700 0.349800
H42 H -0.079000 0.151500 0.040700
H43 H -0.587000 0.169800 -0.226700
H44 H -0.150000 0.116400 -0.097700
H45 H 0.121000 0.176400 0.166100
H46 H -0.656000 0.235900 -0.256700
H47 H 0.545000 0.370400 0.434500
H48 H -0.279000 0.098100 -0.174700
H49 H 0.345000 0.102100 0.397800
H50 H -0.418000 0.177400 -0.311400
H51 H 0.228000 0.095700 0.309800
H52 H 0.498000 0.297500 0.440200
H53 H -0.361000 0.007800 -0.103200
H54 H 0.551000 0.065600 0.342000
H55 H 0.237000 0.421200 0.601700
H56 H 0.250000 0.344000 0.483600
H57 H -0.581000 0.179300 -0.446900
H58 H 0.434000 0.059900 0.252000
H59 H -0.467000 0.246800 -0.339900
H60 H 0.425000 0.453500 0.520200
H61 H -0.716000 0.209600 -0.410000
H62 H -0.231000 0.027500 -0.025100
H63 H -0.160000 -0.018500 -0.176000
H64 H -0.584000 0.081400 -0.371400
H65 H -0.029000 0.000800 -0.089500
H66 H 0.111000 0.419000 0.519100
H67 H -0.719000 0.105600 -0.343000
H68 H -0.750000 0.092900 -0.438500
H69 H 0.284000 0.447400 0.429000
H70 H -0.138000 -0.060100 -0.087000
H71 H 0.174000 0.486300 0.545000
H72 H 0.419000 0.342000 0.547700
H73 H 0.419000 0.011000 0.322800
C74 C 0.467200 0.518920 0.293350
C75 C 0.483300 0.582600 0.268940
C76 C 0.473500 0.635690 0.235100
C77 C 0.419680 0.686890 0.176300
S78 S 0.280100 0.661790 0.089890
C79 C 0.254960 0.741460 0.050660
C80 C 0.136930 0.750860 -0.026250
S81 S 0.061910 0.681150 -0.083360
C82 C -0.076430 0.726200 -0.153480
C83 C -0.189320 0.689840 -0.216120
S84 S -0.235370 0.611010 -0.190330
C85 C -0.359160 0.600160 -0.287820
C86 C -0.365920 0.655260 -0.338280
C87 C -0.267580 0.706700 -0.296160
C88 C -0.253700 0.773480 -0.333970
C89 C -0.368800 0.823420 -0.316730
C90 C -0.336200 0.893950 -0.338190
C91 C -0.440800 0.943340 -0.311810
H92 H -0.551000 0.934400 -0.342000
H93 H -0.434000 0.940100 -0.252000
H94 H -0.419000 0.989000 -0.322800
H95 H -0.345000 0.897900 -0.397800
H96 H -0.228000 0.904300 -0.309800
H97 H -0.365000 0.822300 -0.256100
H98 H -0.471000 0.810300 -0.349800
H99 H -0.147000 0.790300 -0.308400
H100 H -0.267300 0.769800 -0.392600
C101 C -0.457300 0.658690 -0.427440
C102 C -0.361800 0.643850 -0.490160
C103 C -0.322200 0.572000 -0.493640
C104 C -0.200800 0.560560 -0.542290
H105 H -0.237000 0.578800 -0.601700
H106 H -0.111000 0.581000 -0.519100
H107 H -0.174000 0.513700 -0.545000
H108 H -0.425000 0.546500 -0.520200
H109 H -0.284000 0.552600 -0.429000
H110 H -0.250000 0.656000 -0.483600
H111 H -0.419000 0.658000 -0.547700
H112 H -0.545000 0.629600 -0.434500
H113 H -0.498000 0.702500 -0.440200
C114 C -0.430570 0.537460 -0.301630
C115 C -0.058700 0.792040 -0.134440
C116 C 0.059700 0.805800 -0.063220
H117 H 0.079000 0.848500 -0.040700
H118 H -0.121000 0.823600 -0.166100
C119 C 0.353490 0.785190 0.102520
C120 C 0.447050 0.753800 0.174910
C121 C 0.561100 0.787370 0.245110
C122 C 0.506900 0.794440 0.324780
C123 C 0.628700 0.821060 0.399400
C124 C 0.677600 0.890470 0.388300
H125 H 0.584000 0.918600 0.371400
H126 H 0.719000 0.894400 0.343000
H127 H 0.750000 0.907100 0.438500
H128 H 0.581000 0.820700 0.446900
H129 H 0.716000 0.790400 0.410000
H130 H 0.418000 0.822600 0.311400
H131 H 0.467000 0.753200 0.339900
H132 H 0.587000 0.830200 0.226700
H133 H 0.656000 0.764100 0.256700
C134 C 0.360400 0.857600 0.082440
C135 C 0.253000 0.902070 0.115930
C136 C 0.252100 0.972450 0.083980
C137 C 0.137300 1.016850 0.109900
H138 H 0.160000 1.018500 0.176000
H139 H 0.029000 0.999200 0.089500
H140 H 0.138000 1.060100 0.087000
H141 H 0.361000 0.992200 0.103200
H142 H 0.231000 0.972500 0.025100
H143 H 0.150000 0.883600 0.097700
H144 H 0.279000 0.901900 0.174700
H145 H 0.467000 0.873300 0.105100
H146 H 0.338000 0.863500 0.022800
S147 S 0.235370 0.388990 1.190330
S148 S -0.061910 0.318850 1.083360
S149 S -0.280100 0.338210 0.910110
C150 C 0.365920 0.344740 1.338280
C151 C -0.136930 0.249140 1.026250
C152 C -0.447050 0.246200 0.825090
C153 C 0.267580 0.293300 1.296160
C154 C 0.189320 0.310160 1.216120
C155 C -0.419680 0.313110 0.823700
C156 C -0.467200 0.481080 0.706650
C157 C -0.473500 0.364310 0.764900
C158 C -0.254960 0.258540 0.949340
C159 C -0.253000 0.097930 0.884070
C160 C 0.457300 0.341310 1.427440
C161 C -0.353490 0.214810 0.897480
C162 C 0.359160 0.399840 1.287820
C163 C -0.360400 0.142400 0.917560
C164 C 0.361800 0.356150 1.490160
C165 C 0.076430 0.273800 1.153480
C166 C -0.483300 0.417400 0.731060
C167 C 0.430570 0.462540 1.301630
C168 C 0.253700 0.226520 1.333970
C169 C 0.336200 0.106050 1.338190
C170 C -0.059700 0.194200 1.063220
C171 C 0.368800 0.176580 1.316730
C172 C -0.252100 0.027550 0.916020
C173 C -0.506900 0.205560 0.675220
C174 C 0.058700 0.207960 1.134440
C175 C 0.200800 0.439440 1.542290
C176 C -0.677600 0.109530 0.611700
C177 C -0.561100 0.212630 0.754890
C178 C -0.628700 0.178940 0.600600
C179 C 0.322200 0.428000 1.493640
C180 C 0.440800 0.056660 1.311810
C181 C -0.137300 -0.016850 0.890100
H182 H 0.147000 0.209700 1.308400
H183 H 0.267300 0.230200 1.392600
H184 H -0.467000 0.126700 0.894900
H185 H -0.338000 0.136500 0.977200
H186 H 0.365000 0.177700 1.256100
H187 H 0.471000 0.189700 1.349800
H188 H -0.079000 0.151500 1.040700
H189 H -0.587000 0.169800 0.773300
H190 H -0.150000 0.116400 0.902300
H191 H 0.121000 0.176400 1.166100
H192 H -0.656000 0.235900 0.743300
H193 H 0.545000 0.370400 1.434500
H194 H -0.279000 0.098100 0.825300
H195 H 0.345000 0.102100 1.397800
H196 H -0.418000 0.177400 0.688600
H197 H 0.228000 0.095700 1.309800
H198 H 0.498000 0.297500 1.440200
H199 H -0.361000 0.007800 0.896800
H200 H 0.551000 0.065600 1.342000
H201 H 0.237000 0.421200 1.601700
H202 H 0.250000 0.344000 1.483600
H203 H -0.581000 0.179300 0.553100
H204 H 0.434000 0.059900 1.252000
H205 H -0.467000 0.246800 0.660100
H206 H 0.425000 0.453500 1.520200
H207 H -0.716000 0.209600 0.590000
H208 H -0.231000 0.027500 0.974900
H209 H -0.160000 -0.018500 0.824000
H210 H -0.584000 0.081400 0.628600
H211 H -0.029000 0.000800 0.910500
H212 H 0.111000 0.419000 1.519100
H213 H -0.719000 0.105600 0.657000
H214 H -0.750000 0.092900 0.561500
H215 H 0.284000 0.447400 1.429000
H216 H -0.138000 -0.060100 0.913000
H217 H 0.174000 0.486300 1.545000
H218 H 0.419000 0.342000 1.547700
H219 H 0.419000 0.011000 1.322800
C220 C 0.467200 0.518920 1.293350
C221 C 0.483300 0.582600 1.268940
C222 C 0.473500 0.635690 1.235100
C223 C 0.419680 0.686890 1.176300
S224 S 0.280100 0.661790 1.089890
C225 C 0.254960 0.741460 1.050660
C226 C 0.136930 0.750860 0.973750
S227 S 0.061910 0.681150 0.916640
C228 C -0.076430 0.726200 0.846520
C229 C -0.189320 0.689840 0.783880
S230 S -0.235370 0.611010 0.809670
C231 C -0.359160 0.600160 0.712180
C232 C -0.365920 0.655260 0.661720
C233 C -0.267580 0.706700 0.703840
C234 C -0.253700 0.773480 0.666030
C235 C -0.368800 0.823420 0.683270
C236 C -0.336200 0.893950 0.661810
C237 C -0.440800 0.943340 0.688190
H238 H -0.551000 0.934400 0.658000
H239 H -0.434000 0.940100 0.748000
H240 H -0.419000 0.989000 0.677200
H241 H -0.345000 0.897900 0.602200
H242 H -0.228000 0.904300 0.690200
H243 H -0.365000 0.822300 0.743900
H244 H -0.471000 0.810300 0.650200
H245 H -0.147000 0.790300 0.691600
H246 H -0.267300 0.769800 0.607400
C247 C -0.457300 0.658690 0.572560
C248 C -0.361800 0.643850 0.509840
C249 C -0.322200 0.572000 0.506360
C250 C -0.200800 0.560560 0.457710
H251 H -0.237000 0.578800 0.398300
H252 H -0.111000 0.581000 0.480900
H253 H -0.174000 0.513700 0.455000
H254 H -0.425000 0.546500 0.479800
H255 H -0.284000 0.552600 0.571000
H256 H -0.250000 0.656000 0.516400
H257 H -0.419000 0.658000 0.452300
H258 H -0.545000 0.629600 0.565500
H259 H -0.498000 0.702500 0.559800
C260 C -0.430570 0.537460 0.698370
C261 C -0.058700 0.792040 0.865560
C262 C 0.059700 0.805800 0.936780
H263 H 0.079000 0.848500 0.959300
H264 H -0.121000 0.823600 0.833900
C265 C 0.353490 0.785190 1.102520
C266 C 0.447050 0.753800 1.174910
C267 C 0.561100 0.787370 1.245110
C268 C 0.506900 0.794440 1.324780
C269 C 0.628700 0.821060 1.399400
C270 C 0.677600 0.890470 1.388300
H271 H 0.584000 0.918600 1.371400
H272 H 0.719000 0.894400 1.343000
H273 H 0.750000 0.907100 1.438500
H274 H 0.581000 0.820700 1.446900
H275 H 0.716000 0.790400 1.410000
H276 H 0.418000 0.822600 1.311400
H277 H 0.467000 0.753200 1.339900
H278 H 0.587000 0.830200 1.226700
H279 H 0.656000 0.764100 1.256700
C280 C 0.360400 0.857600 1.082440
C281 C 0.253000 0.902070 1.115930
C282 C 0.252100 0.972450 1.083980
C283 C 0.137300 1.016850 1.109900
H284 H 0.160000 1.018500 1.176000
H285 H 0.029000 0.999200 1.089500
H286 H 0.138000 1.060100 1.087000
H287 H 0.361000 0.992200 1.103200
H288 H 0.231000 0.972500 1.025100
H289 H 0.150000 0.883600 1.097700
H290 H 0.279000 0.901900 1.174700
H291 H 0.467000 0.873300 1.105100
H292 H 0.338000 0.863500 1.022800
S293 S 1.235370 0.388990 0.190330
S294 S 0.938090 0.318850 0.083360
S295 S 0.719900 0.338210 -0.089890
C296 C 1.365920 0.344740 0.338280
C297 C 0.863070 0.249140 0.026250
C298 C 0.552950 0.246200 -0.174910
C299 C 1.267580 0.293300 0.296160
C300 C 1.189320 0.310160 0.216120
C301 C 0.580320 0.313110 -0.176300
C302 C 0.532800 0.481080 -0.293350
C303 C 0.526500 0.364310 -0.235100
C304 C 0.745040 0.258540 -0.050660
C305 C 0.747000 0.097930 -0.115930
C306 C 1.457300 0.341310 0.427440
C307 C 0.646510 0.214810 -0.102520
C308 C 1.359160 0.399840 0.287820
C309 C 0.639600 0.142400 -0.082440
C310 C 1.361800 0.356150 0.490160
C311 C 1.076430 0.273800 0.153480
C312 C 0.516700 0.417400 -0.268940
C313 C 1.430570 0.462540 0.301630
C314 C 1.253700 0.226520 0.333970
C315 C 1.336200 0.106050 0.338190
C316 C 0.940300 0.194200 0.063220
C317 C 1.368800 0.176580 0.316730
C318 C 0.747900 0.027550 -0.083980
C319 C 0.493100 0.205560 -0.324780
C320 C 1.058700 0.207960 0.134440
C321 C 1.200800 0.439440 0.542290
C322 C 0.322400 0.109530 -0.388300
C323 C 0.438900 0.212630 -0.245110
C324 C 0.371300 0.178940 -0.399400
C325 C 1.322200 0.428000 0.493640
C326 C 1.440800 0.056660 0.311810
C327 C 0.862700 -0.016850 -0.109900
H328 H 1.147000 0.209700 0.308400
H329 H 1.267300 0.230200 0.392600
H330 H 0.533000 0.126700 -0.105100
H331 H 0.662000 0.136500 -0.022800
H332 H 1.365000 0.177700 0.256100
H333 H 1.471000 0.189700 0.349800
H334 H 0.921000 0.151500 0.040700
H335 H 0.413000 0.169800 -0.226700
H336 H 0.850000 0.116400 -0.097700
H337 H 1.121000 0.176400 0.166100
H338 H 0.344000 0.235900 -0.256700
H339 H 1.545000 0.370400 0.434500
H340 H 0.721000 0.098100 -0.174700
H341 H 1.345000 0.102100 0.397800
H342 H 0.582000 0.177400 -0.311400
H343 H 1.228000 0.095700 0.309800
H344 H 1.498000 0.297500 0.440200
H345 H 0.639000 0.007800 -0.103200
H346 H 1.551000 0.065600 0.342000
H347 H 1.237000 0.421200 0.601700
H348 H 1.250000 0.344000 0.483600
H349 H 0.419000 0.179300 -0.446900
H350 H 1.434000 0.059900 0.252000
H351 H 0.533000 0.246800 -0.339900
H352 H 1.425000 0.453500 0.520200
H353 H 0.284000 0.209600 -0.410000
H354 H 0.769000 0.027500 -0.025100
H355 H 0.840000 -0.018500 -0.176000
H356 H 0.416000 0.081400 -0.371400
H357 H 0.971000 0.000800 -0.089500
H358 H 1.111000 0.419000 0.519100
H359 H 0.281000 0.105600 -0.343000
H360 H 0.250000 0.092900 -0.438500
H361 H 1.284000 0.447400 0.429000
H362 H 0.862000 -0.060100 -0.087000
H363 H 1.174000 0.486300 0.545000
H364 H 1.419000 0.342000 0.547700
H365 H 1.419000 0.011000 0.322800
C366 C 1.467200 0.518920 0.293350
C367 C 1.483300 0.582600 0.268940
C368 C 1.473500 0.635690 0.235100
C369 C 1.419680 0.686890 0.176300
S370 S 1.280100 0.661790 0.089890
C371 C 1.254960 0.741460 0.050660
C372 C 1.136930 0.750860 -0.026250
S373 S 1.061910 0.681150 -0.083360
C374 C 0.923570 0.726200 -0.153480
C375 C 0.810680 0.689840 -0.216120
S376 S 0.764630 0.611010 -0.190330
C377 C 0.640840 0.600160 -0.287820
C378 C 0.634080 0.655260 -0.338280
C379 C 0.732420 0.706700 -0.296160
C380 C 0.746300 0.773480 -0.333970
C381 C 0.631200 0.823420 -0.316730
C382 C 0.663800 0.893950 -0.338190
C383 C 0.559200 0.943340 -0.311810
H384 H 0.449000 0.934400 -0.342000
H385 H 0.566000 0.940100 -0.252000
H386 H 0.581000 0.989000 -0.322800
H387 H 0.655000 0.897900 -0.397800
H388 H 0.772000 0.904300 -0.309800
H389 H 0.635000 0.822300 -0.256100
H390 H 0.529000 0.810300 -0.349800
H391 H 0.853000 0.790300 -0.308400
H392 H 0.732700 0.769800 -0.392600
C393 C 0.542700 0.658690 -0.427440
C394 C 0.638200 0.643850 -0.490160
C395 C 0.677800 0.572000 -0.493640
C396 C 0.799200 0.560560 -0.542290
H397 H 0.763000 0.578800 -0.601700
H398 H 0.889000 0.581000 -0.519100
H399 H 0.826000 0.513700 -0.545000
H400 H 0.575000 0.546500 -0.520200
H401 H 0.716000 0.552600 -0.429000
H402 H 0.750000 0.656000 -0.483600
H403 H 0.581000 0.658000 -0.547700
H404 H 0.455000 0.629600 -0.434500
H405 H 0.502000 0.702500 -0.440200
C406 C 0.569430 0.537460 -0.301630
C407 C 0.941300 0.792040 -0.134440
C408 C 1.059700 0.805800 -0.063220
H409 H 1.079000 0.848500 -0.040700
H410 H 0.879000 0.823600 -0.166100
C411 C 1.353490 0.785190 0.102520
C412 C 1.447050 0.753800 0.174910
C413 C 1.561100 0.787370 0.245110
C414 C 1.506900 0.794440 0.324780
C415 C 1.628700 0.821060 0.399400
C416 C 1.677600 0.890470 0.388300
H417 H 1.584000 0.918600 0.371400
H418 H 1.719000 0.894400 0.343000
H419 H 1.750000 0.907100 0.438500
H420 H 1.581000 0.820700 0.446900
H421 H 1.716000 0.790400 0.410000
H422 H 1.418000 0.822600 0.311400
H423 H 1.467000 0.753200 0.339900
H424 H 1.587000 0.830200 0.226700
H425 H 1.656000 0.764100 0.256700
C426 C 1.360400 0.857600 0.082440
C427 C 1.253000 0.902070 0.115930
C428 C 1.252100 0.972450 0.083980
C429 C 1.137300 1.016850 0.109900
H430 H 1.160000 1.018500 0.176000
H431 H 1.029000 0.999200 0.089500
H432 H 1.138000 1.060100 0.087000
H433 H 1.361000 0.992200 0.103200
H434 H 1.231000 0.972500 0.025100
H435 H 1.150000 0.883600 0.097700
H436 H 1.279000 0.901900 0.174700
H437 H 1.467000 0.873300 0.105100
H438 H 1.338000 0.863500 0.022800
S439 S 1.235370 0.388990 1.190330
S440 S 0.938090 0.318850 1.083360
S441 S 0.719900 0.338210 0.910110
C442 C 1.365920 0.344740 1.338280
C443 C 0.863070 0.249140 1.026250
C444 C 0.552950 0.246200 0.825090
C445 C 1.267580 0.293300 1.296160
C446 C 1.189320 0.310160 1.216120
C447 C 0.580320 0.313110 0.823700
C448 C 0.532800 0.481080 0.706650
C449 C 0.526500 0.364310 0.764900
C450 C 0.745040 0.258540 0.949340
C451 C 0.747000 0.097930 0.884070
C452 C 1.457300 0.341310 1.427440
C453 C 0.646510 0.214810 0.897480
C454 C 1.359160 0.399840 1.287820
C455 C 0.639600 0.142400 0.917560
C456 C 1.361800 0.356150 1.490160
C457 C 1.076430 0.273800 1.153480
C458 C 0.516700 0.417400 0.731060
C459 C 1.430570 0.462540 1.301630
C460 C 1.253700 0.226520 1.333970
C461 C 1.336200 0.106050 1.338190
C462 C 0.940300 0.194200 1.063220
C463 C 1.368800 0.176580 1.316730
C464 C 0.747900 0.027550 0.916020
C465 C 0.493100 0.205560 0.675220
C466 C 1.058700 0.207960 1.134440
C467 C 1.200800 0.439440 1.542290
C468 C 0.322400 0.109530 0.611700
C469 C 0.438900 0.212630 0.754890
C470 C 0.371300 0.178940 0.600600
C471 C 1.322200 0.428000 1.493640
C472 C 1.440800 0.056660 1.311810
C473 C 0.862700 -0.016850 0.890100
H474 H 1.147000 0.209700 1.308400
H475 H 1.267300 0.230200 1.392600
H476 H 0.533000 0.126700 0.894900
H477 H 0.662000 0.136500 0.977200
H478 H 1.365000 0.177700 1.256100
H479 H 1.471000 0.189700 1.349800
H480 H 0.921000 0.151500 1.040700
H481 H 0.413000 0.169800 0.773300
H482 H 0.850000 0.116400 0.902300
H483 H 1.121000 0.176400 1.166100
H484 H 0.344000 0.235900 0.743300
H485 H 1.545000 0.370400 1.434500
H486 H 0.721000 0.098100 0.825300
H487 H 1.345000 0.102100 1.397800
H488 H 0.582000 0.177400 0.688600
H489 H 1.228000 0.095700 1.309800
H490 H 1.498000 0.297500 1.440200
H491 H 0.639000 0.007800 0.896800
H492 H 1.551000 0.065600 1.342000
H493 H 1.237000 0.421200 1.601700
H494 H 1.250000 0.344000 1.483600
H495 H 0.419000 0.179300 0.553100
H496 H 1.434000 0.059900 1.252000
H497 H 0.533000 0.246800 0.660100
H498 H 1.425000 0.453500 1.520200
H499 H 0.284000 0.209600 0.590000
H500 H 0.769000 0.027500 0.974900
H501 H 0.840000 -0.018500 0.824000
H502 H 0.416000 0.081400 0.628600
H503 H 0.971000 0.000800 0.910500
H504 H 1.111000 0.419000 1.519100
H505 H 0.281000 0.105600 0.657000
H506 H 0.250000 0.092900 0.561500
H507 H 1.284000 0.447400 1.429000
H508 H 0.862000 -0.060100 0.913000
H509 H 1.174000 0.486300 1.545000
H510 H 1.419000 0.342000 1.547700
H511 H 1.419000 0.011000 1.322800
C512 C 1.467200 0.518920 1.293350
C513 C 1.483300 0.582600 1.268940
C514 C 1.473500 0.635690 1.235100
C515 C 1.419680 0.686890 1.176300
S516 S 1.280100 0.661790 1.089890
C517 C 1.254960 0.741460 1.050660
C518 C 1.136930 0.750860 0.973750
S519 S 1.061910 0.681150 0.916640
C520 C 0.923570 0.726200 0.846520
C521 C 0.810680 0.689840 0.783880
S522 S 0.764630 0.611010 0.809670
C523 C 0.640840 0.600160 0.712180
C524 C 0.634080 0.655260 0.661720
C525 C 0.732420 0.706700 0.703840
C526 C 0.746300 0.773480 0.666030
C527 C 0.631200 0.823420 0.683270
C528 C 0.663800 0.893950 0.661810
C529 C 0.559200 0.943340 0.688190
H530 H 0.449000 0.934400 0.658000
H531 H 0.566000 0.940100 0.748000
H532 H 0.581000 0.989000 0.677200
H533 H 0.655000 0.897900 0.602200
H534 H 0.772000 0.904300 0.690200
H535 H 0.635000 0.822300 0.743900
H536 H 0.529000 0.810300 0.650200
H537 H 0.853000 0.790300 0.691600
H538 H 0.732700 0.769800 0.607400
C539 C 0.542700 0.658690 0.572560
C540 C 0.638200 0.643850 0.509840
C541 C 0.677800 0.572000 0.506360
C542 C 0.799200 0.560560 0.457710
H543 H 0.763000 0.578800 0.398300
H544 H 0.889000 0.581000 0.480900
H545 H 0.826000 0.513700 0.455000
H546 H 0.575000 0.546500 0.479800
H547 H 0.716000 0.552600 0.571000
H548 H 0.750000 0.656000 0.516400
H549 H 0.581000 0.658000 0.452300
H550 H 0.455000 0.629600 0.565500
H551 H 0.502000 0.702500 0.559800
C552 C 0.569430 0.537460 0.698370
C553 C 0.941300 0.792040 0.865560
C554 C 1.059700 0.805800 0.936780
H555 H 1.079000 0.848500 0.959300
H556 H 0.879000 0.823600 0.833900
C557 C 1.353490 0.785190 1.102520
C558 C 1.447050 0.753800 1.174910
C559 C 1.561100 0.787370 1.245110
C560 C 1.506900 0.794440 1.324780
C561 C 1.628700 0.821060 1.399400
C562 C 1.677600 0.890470 1.388300
H563 H 1.584000 0.918600 1.371400
H564 H 1.719000 0.894400 1.343000
H565 H 1.750000 0.907100 1.438500
H566 H 1.581000 0.820700 1.446900
H567 H 1.716000 0.790400 1.410000
H568 H 1.418000 0.822600 1.311400
H569 H 1.467000 0.753200 1.339900
H570 H 1.587000 0.830200 1.226700
H571 H 1.656000 0.764100 1.256700
C572 C 1.360400 0.857600 1.082440
C573 C 1.253000 0.902070 1.115930
C574 C 1.252100 0.972450 1.083980
C575 C 1.137300 1.016850 1.109900
H576 H 1.160000 1.018500 1.176000
H577 H 1.029000 0.999200 1.089500
H578 H 1.138000 1.060100 1.087000
H579 H 1.361000 0.992200 1.103200
H580 H 1.231000 0.972500 1.025100
H581 H 1.150000 0.883600 1.097700
H582 H 1.279000 0.901900 1.174700
H583 H 1.467000 0.873300 1.105100
H584 H 1.338000 0.863500 1.022800
S585 S 0.735370 0.111010 0.190330
S586 S 0.438090 0.181150 0.083360
S587 S 0.219900 0.161790 -0.089890
C588 C 0.865920 0.155260 0.338280
C589 C 0.363070 0.250860 0.026250
C590 C 0.052950 0.253800 -0.174910
C591 C 0.767580 0.206700 0.296160
C592 C 0.689320 0.189840 0.216120
C593 C 0.080320 0.186890 -0.176300
C594 C 0.032800 0.018920 -0.293350
C595 C 0.026500 0.135690 -0.235100
C596 C 0.245040 0.241460 -0.050660
C597 C 0.247000 0.402070 -0.115930
C598 C 0.957300 0.158690 0.427440
C599 C 0.146510 0.285190 -0.102520
C600 C 0.859160 0.100160 0.287820
C601 C 0.139600 0.357600 -0.082440
C602 C 0.861800 0.143850 0.490160
C603 C 0.576430 0.226200 0.153480
C604 C 0.016700 0.082600 -0.268940
C605 C 0.930570 0.037460 0.301630
C606 C 0.753700 0.273480 0.333970
C607 C 0.836200 0.393950 0.338190
C608 C 0.440300 0.305800 0.063220
C609 C 0.868800 0.323420 0.316730
C610 C 0.247900 0.472450 -0.083980
C611 C -0.006900 0.294440 -0.324780
C612 C 0.558700 0.292040 0.134440
C613 C 0.700800 0.060560 0.542290
C614 C -0.177600 0.390470 -0.388300
C615 C -0.061100 0.287370 -0.245110
C616 C -0.128700 0.321060 -0.399400
C617 C 0.822200 0.072000 0.493640
C618 C 0.940800 0.443340 0.311810
C619 C 0.362700 0.516850 -0.109900
H620 H 0.647000 0.290300 0.308400
H621 H 0.767300 0.269800 0.392600
H622 H 0.033000 0.373300 -0.105100
H623 H 0.162000 0.363500 -0.022800
H624 H 0.865000 0.322300 0.256100
H625 H 0.971000 0.310300 0.349800
H626 H 0.421000 0.348500 0.040700
H627 H -0.087000 0.330200 -0.226700
H628 H 0.350000 0.383600 -0.097700
H629 H 0.621000 0.323600 0.166100
H630 H -0.156000 0.264100 -0.256700
H631 H 1.045000 0.129600 0.434500
H632 H 0.221000 0.401900 -0.174700
H633 H 0.845000 0.397900 0.397800
H634 H 0.082000 0.322600 -0.311400
H635 H 0.728000 0.404300 0.309800
H636 H 0.998000 0.202500 0.440200
H637 H 0.139000 0.492200 -0.103200
H638 H 1.051000 0.434400 0.342000
H639 H 0.737000 0.078800 0.601700
H640 H 0.750000 0.156000 0.483600
H641 H -0.081000 0.320700 -0.446900
H642 H 0.934000 0.440100 0.252000
H643 H 0.033000 0.253200 -0.339900
H644 H 0.925000 0.046500 0.520200
H645 H -0.216000 0.290400 -0.410000
H646 H 0.269000 0.472500 -0.025100
H647 H 0.340000 0.518500 -0.176000
H648 H -0.084000 0.418600 -0.371400
H649 H 0.471000 0.499200 -0.089500
H650 H 0.611000 0.081000 0.519100
H651 H -0.219000 0.394400 -0.343000
H652 H -0.250000 0.407100 -0.438500
H653 H 0.784000 0.052600 0.429000
H654 H 0.362000 0.560100 -0.087000
H655 H 0.674000 0.013700 0.545000
H656 H 0.919000 0.158000 0.547700
H657 H 0.919000 0.489000 0.322800
C658 C 0.967200 -0.018920 0.293350
C659 C 0.983300 -0.082600 0.268940
C660 C 0.973500 -0.135690 0.235100
C661 C 0.919680 -0.186890 0.176300
S662 S 0.780100 -0.161790 0.089890
C663 C 0.754960 -0.241460 0.050660
C664 C 0.636930 -0.250860 -0.026250
S665 S 0.561910 -0.181150 -0.083360
C666 C 0.423570 -0.226200 -0.153480
C667 C 0.310680 -0.189840 -0.216120
S668 S 0.264630 -0.111010 -0.190330
C669 C 0.140840 -0.100160 -0.287820
C670 C 0.134080 -0.155260 -0.338280
C671 C 0.232420 -0.206700 -0.296160
C672 C 0.246300 -0.273480 -0.333970
C673 C 0.131200 -0.323420 -0.316730
C674 C 0.163800 -0.393950 -0.338190
C675 C 0.059200 -0.443340 -0.311810
H676 H -0.051000 -0.434400 -0.342000
H677 H 0.066000 -0.440100 -0.252000
H678 H 0.081000 -0.489000 -0.322800
H679 H 0.155000 -0.397900 -0.397800
H680 H 0.272000 -0.404300 -0.309800
H681 H 0.135000 -0.322300 -0.256100
H682 H 0.029000 -0.310300 -0.349800
H683 H 0.353000 -0.290300 -0.308400
H684 H 0.232700 -0.269800 -0.392600
C685 C 0.042700 -0.158690 -0.427440
C686 C 0.138200 -0.143850 -0.490160
C687 C 0.177800 -0.072000 -0.493640
C688 C 0.299200 -0.060560 -0.542290
H689 H 0.263000 -0.078800 -0.601700
H690 H 0.389000 -0.081000 -0.519100
H691 H 0.326000 -0.013700 -0.545000
H692 H 0.075000 -0.046500 -0.520200
H693 H 0.216000 -0.052600 -0.429000
H694 H 0.250000 -0.156000 -0.483600
H695 H 0.081000 -0.158000 -0.547700
H696 H -0.045000 -0.129600 -0.434500
H697 H 0.002000 -0.202500 -0.440200
C698 C 0.069430 -0.037460 -0.301630
C699 C 0.441300 -0.292040 -0.134440
C700 C 0.559700 -0.305800 -0.063220
H701 H 0.579000 -0.348500 -0.040700
H702 H 0.379000 -0.323600 -0.166100
C703 C 0.853490 -0.285190 0.102520
C704 C 0.947050 -0.253800 0.174910
C705 C 1.061100 -0.287370 0.245110
C706 C 1.006900 -0.294440 0.324780
C707 C 1.128700 -0.321060 0.399400
C708 C 1.177600 -0.390470 0.388300
H709 H 1.084000 -0.418600 0.371400
H710 H 1.219000 -0.394400 0.343000
H711 H 1.250000 -0.407100 0.438500
H712 H 1.081000 -0.320700 0.446900
H713 H 1.216000 -0.290400 0.410000
H714 H 0.918000 -0.322600 0.311400
H715 H 0.967000 -0.253200 0.339900
H716 H 1.087000 -0.330200 0.226700
H717 H 1.156000 -0.264100 0.256700
C718 C 0.860400 -0.357600 0.082440
C719 C 0.753000 -0.402070 0.115930
C720 C 0.752100 -0.472450 0.083980
C721 C 0.637300 -0.516850 0.109900
H722 H 0.660000 -0.518500 0.176000
H723 H 0.529000 -0.499200 0.089500
H724 H 0.638000 -0.560100 0.087000
H725 H 0.861000 -0.492200 0.103200
H726 H 0.731000 -0.472500 0.025100
H727 H 0.650000 -0.383600 0.097700
H728 H 0.779000 -0.401900 0.174700
H729 H 0.967000 -0.373300 0.105100
H730 H 0.838000 -0.363500 0.022800
S731 S 0.735370 0.111010 1.190330
S732 S 0.438090 0.181150 1.083360
S733 S 0.219900 0.161790 0.910110
C734 C 0.865920 0.155260 1.338280
C735 C 0.363070 0.250860 1.026250
C736 C 0.052950 0.253800 0.825090
C737 C 0.767580 0.206700 1.296160
C738 C 0.689320 0.189840 1.216120
C739 C 0.080320 0.186890 0.823700
C740 C 0.032800 0.018920 0.706650
C741 C 0.026500 0.135690 0.764900
C742 C 0.245040 0.241460 0.949340
C743 C 0.247000 0.402070 0.884070
C744 C 0.957300 0.158690 1.427440
C745 C 0.146510 0.285190 0.897480
C746 C 0.859160 0.100160 1.287820
C747 C 0.139600 0.357600 0.917560
C748 C 0.861800 0.143850 1.490160
C749 C 0.576430 0.226200 1.153480
C750 C 0.016700 0.082600 0.731060
C751 C 0.930570 0.037460 1.301630
C752 C 0.753700 0.273480 1.333970
C753 C 0.836200 0.393950 1.338190
C754 C 0.440300 0.305800 1.063220
C755 C 0.868800 0.323420 1.316730
C756 C 0.247900 0.472450 0.916020
C757 C -0.006900 0.294440 0.675220
C758 C 0.558700 0.292040 1.134440
C759 C 0.700800 0.060560 1.542290
C760 C -0.177600 0.390470 0.611700
C761 C -0.061100 0.287370 0.754890
C762 C -0.128700 0.321060 0.600600
C763 C 0.822200 0.072000 1.493640
C764 C 0.940800 0.443340 1.311810
C765 C 0.362700 0.516850 0.890100
H766 H 0.647000 0.290300 1.308400
H767 H 0.767300 0.269800 1.392600
H768 H 0.033000 0.373300 0.894900
H769 H 0.162000 0.363500 0.977200
H770 H 0.865000 0.322300 1.256100
H771 H 0.971000 0.310300 1.349800
H772 H 0.421000 0.348500 1.040700
H773 H -0.087000 0.330200 0.773300
H774 H 0.350000 0.383600 0.902300
H775 H 0.621000 0.323600 1.166100
H776 H -0.156000 0.264100 0.743300
H777 H 1.045000 0.129600 1.434500
H778 H 0.221000 0.401900 0.825300
H779 H 0.845000 0.397900 1.397800
H780 H 0.082000 0.322600 0.688600
H781 H 0.728000 0.404300 1.309800
H782 H 0.998000 0.202500 1.440200
H783 H 0.139000 0.492200 0.896800
H784 H 1.051000 0.434400 1.342000
H785 H 0.737000 0.078800 1.601700
H786 H 0.750000 0.156000 1.483600
H787 H -0.081000 0.320700 0.553100
H788 H 0.934000 0.440100 1.252000
H789 H 0.033000 0.253200 0.660100
H790 H 0.925000 0.046500 1.520200
H791 H -0.216000 0.290400 0.590000
H792 H 0.269000 0.472500 0.974900
H793 H 0.340000 0.518500 0.824000
H794 H -0.084000 0.418600 0.628600
H795 H 0.471000 0.499200 0.910500
H796 H 0.611000 0.081000 1.519100
H797 H -0.219000 0.394400 0.657000
H798 H -0.250000 0.407100 0.561500
H799 H 0.784000 0.052600 1.429000
H800 H 0.362000 0.560100 0.913000
H801 H 0.674000 0.013700 1.545000
H802 H 0.919000 0.158000 1.547700
H803 H 0.919000 0.489000 1.322800
C804 C 0.967200 -0.018920 1.293350
C805 C 0.983300 -0.082600 1.268940
C806 C 0.973500 -0.135690 1.235100
C807 C 0.919680 -0.186890 1.176300
S808 S 0.780100 -0.161790 1.089890
C809 C 0.754960 -0.241460 1.050660
C810 C 0.636930 -0.250860 0.973750
S811 S 0.561910 -0.181150 0.916640
C812 C 0.423570 -0.226200 0.846520
C813 C 0.310680 -0.189840 0.783880
S814 S 0.264630 -0.111010 0.809670
C815 C 0.140840 -0.100160 0.712180
C816 C 0.134080 -0.155260 0.661720
C817 C 0.232420 -0.206700 0.703840
C818 C 0.246300 -0.273480 0.666030
C819 C 0.131200 -0.323420 0.683270
C820 C 0.163800 -0.393950 0.661810
C821 C 0.059200 -0.443340 0.688190
H822 H -0.051000 -0.434400 0.658000
H823 H 0.066000 -0.440100 0.748000
H824 H 0.081000 -0.489000 0.677200
H825 H 0.155000 -0.397900 0.602200
H826 H 0.272000 -0.404300 0.690200
H827 H 0.135000 -0.322300 0.743900
H828 H 0.029000 -0.310300 0.650200
H829 H 0.353000 -0.290300 0.691600
H830 H 0.232700 -0.269800 0.607400
C831 C 0.042700 -0.158690 0.572560
C832 C 0.138200 -0.143850 0.509840
C833 C 0.177800 -0.072000 0.506360
C834 C 0.299200 -0.060560 0.457710
H835 H 0.263000 -0.078800 0.398300
H836 H 0.389000 -0.081000 0.480900
H837 H 0.326000 -0.013700 0.455000
H838 H 0.075000 -0.046500 0.479800
H839 H 0.216000 -0.052600 0.571000
H840 H 0.250000 -0.156000 0.516400
H841 H 0.081000 -0.158000 0.452300
H842 H -0.045000 -0.129600 0.565500
H843 H 0.002000 -0.202500 0.559800
C844 C 0.069430 -0.037460 0.698370
C845 C 0.441300 -0.292040 0.865560
C846 C 0.559700 -0.305800 0.936780
H847 H 0.579000 -0.348500 0.959300
H848 H 0.379000 -0.323600 0.833900
C849 C 0.853490 -0.285190 1.102520
C850 C 0.947050 -0.253800 1.174910
C851 C 1.061100 -0.287370 1.245110
C852 C 1.006900 -0.294440 1.324780
C853 C 1.128700 -0.321060 1.399400
C854 C 1.177600 -0.390470 1.388300
H855 H 1.084000 -0.418600 1.371400
H856 H 1.219000 -0.394400 1.343000
H857 H 1.250000 -0.407100 1.438500
H858 H 1.081000 -0.320700 1.446900
H859 H 1.216000 -0.290400 1.410000
H860 H 0.918000 -0.322600 1.311400
H861 H 0.967000 -0.253200 1.339900
H862 H 1.087000 -0.330200 1.226700
H863 H 1.156000 -0.264100 1.256700
C864 C 0.860400 -0.357600 1.082440
C865 C 0.753000 -0.402070 1.115930
C866 C 0.752100 -0.472450 1.083980
C867 C 0.637300 -0.516850 1.109900
H868 H 0.660000 -0.518500 1.176000
H869 H 0.529000 -0.499200 1.089500
H870 H 0.638000 -0.560100 1.087000
H871 H 0.861000 -0.492200 1.103200
H872 H 0.731000 -0.472500 1.025100
H873 H 0.650000 -0.383600 1.097700
H874 H 0.779000 -0.401900 1.174700
H875 H 0.967000 -0.373300 1.105100
H876 H 0.838000 -0.363500 1.022800
S877 S 0.735370 1.111010 0.190330
S878 S 0.438090 1.181150 0.083360
S879 S 0.219900 1.161790 -0.089890
C880 C 0.865920 1.155260 0.338280
C881 C 0.363070 1.250860 0.026250
C882 C 0.052950 1.253800 -0.174910
C883 C 0.767580 1.206700 0.296160
C884 C 0.689320 1.189840 0.216120
C885 C 0.080320 1.186890 -0.176300
C886 C 0.032800 1.018920 -0.293350
C887 C 0.026500 1.135690 -0.235100
C888 C 0.245040 1.241460 -0.050660
C889 C 0.247000 1.402070 -0.115930
C890 C 0.957300 1.158690 0.427440
C891 C 0.146510 1.285190 -0.102520
C892 C 0.859160 1.100160 0.287820
C893 C 0.139600 1.357600 -0.082440
C894 C 0.861800 1.143850 0.490160
C895 C 0.576430 1.226200 0.153480
C896 C 0.016700 1.082600 -0.268940
C897 C 0.930570 1.037460 0.301630
C898 C 0.753700 1.273480 0.333970
C899 C 0.836200 1.393950 0.338190
C900 C 0.440300 1.305800 0.063220
C901 C 0.868800 1.323420 0.316730
C902 C 0.247900 1.472450 -0.083980
C903 C -0.006900 1.294440 -0.324780
C904 C 0.558700 1.292040 0.134440
C905 C 0.700800 1.060560 0.542290
C906 C -0.177600 1.390470 -0.388300
C907 C -0.061100 1.287370 -0.245110
C908 C -0.128700 1.321060 -0.399400
C909 C 0.822200 1.072000 0.493640
C910 C 0.940800 1.443340 0.311810
C911 C 0.362700 1.516850 -0.109900
H912 H 0.647000 1.290300 0.308400
H913 H 0.767300 1.269800 0.392600
H914 H 0.033000 1.373300 -0.105100
H915 H 0.162000 1.363500 -0.022800
H916 H 0.865000 1.322300 0.256100
H917 H 0.971000 1.310300 0.349800
H918 H 0.421000 1.348500 0.040700
H919 H -0.087000 1.330200 -0.226700
H920 H 0.350000 1.383600 -0.097700
H921 H 0.621000 1.323600 0.166100
H922 H -0.156000 1.264100 -0.256700
H923 H 1.045000 1.129600 0.434500
H924 H 0.221000 1.401900 -0.174700
H925 H 0.845000 1.397900 0.397800
H926 H 0.082000 1.322600 -0.311400
H927 H 0.728000 1.404300 0.309800
H928 H 0.998000 1.202500 0.440200
H929 H 0.139000 1.492200 -0.103200
H930 H 1.051000 1.434400 0.342000
H931 H 0.737000 1.078800 0.601700
H932 H 0.750000 1.156000 0.483600
H933 H -0.081000 1.320700 -0.446900
H934 H 0.934000 1.440100 0.252000
H935 H 0.033000 1.253200 -0.339900
H936 H 0.925000 1.046500 0.520200
H937 H -0.216000 1.290400 -0.410000
H938 H 0.269000 1.472500 -0.025100
H939 H 0.340000 1.518500 -0.176000
H940 H -0.084000 1.418600 -0.371400
H941 H 0.471000 1.499200 -0.089500
H942 H 0.611000 1.081000 0.519100
H943 H -0.219000 1.394400 -0.343000
H944 H -0.250000 1.407100 -0.438500
H945 H 0.784000 1.052600 0.429000
H946 H 0.362000 1.560100 -0.087000
H947 H 0.674000 1.013700 0.545000
H948 H 0.919000 1.158000 0.547700
H949 H 0.919000 1.489000 0.322800
C950 C 0.967200 0.981080 0.293350
C951 C 0.983300 0.917400 0.268940
C952 C 0.973500 0.864310 0.235100
C953 C 0.919680 0.813110 0.176300
S954 S 0.780100 0.838210 0.089890
C955 C 0.754960 0.758540 0.050660
C956 C 0.636930 0.749140 -0.026250
S957 S 0.561910 0.818850 -0.083360
C958 C 0.423570 0.773800 -0.153480
C959 C 0.310680 0.810160 -0.216120
S960 S 0.264630 0.888990 -0.190330
C961 C 0.140840 0.899840 -0.287820
C962 C 0.134080 0.844740 -0.338280
C963 C 0.232420 0.793300 -0.296160
C964 C 0.246300 0.726520 -0.333970
C965 C 0.131200 0.676580 -0.316730
C966 C 0.163800 0.606050 -0.338190
C967 C 0.059200 0.556660 -0.311810
H968 H -0.051000 0.565600 -0.342000
H969 H 0.066000 0.559900 -0.252000
H970 H 0.081000 0.511000 -0.322800
H971 H 0.155000 0.602100 -0.397800
H972 H 0.272000 0.595700 -0.309800
H973 H 0.135000 0.677700 -0.256100
H974 H 0.029000 0.689700 -0.349800
H975 H 0.353000 0.709700 -0.308400
H976 H 0.232700 0.730200 -0.392600
C977 C 0.042700 0.841310 -0.427440
C978 C 0.138200 0.856150 -0.490160
C979 C 0.177800 0.928000 -0.493640
C980 C 0.299200 0.939440 -0.542290
H981 H 0.263000 0.921200 -0.601700
H982 H 0.389000 0.919000 -0.519100
H983 H 0.326000 0.986300 -0.545000
H984 H 0.075000 0.953500 -0.520200
H985 H 0.216000 0.947400 -0.429000
H986 H 0.250000 0.844000 -0.483600
H987 H 0.081000 0.842000 -0.547700
H988 H -0.045000 0.870400 -0.434500
H989 H 0.002000 0.797500 -0.440200
C990 C 0.069430 0.962540 -0.301630
C991 C 0.441300 0.707960 -0.134440
C992 C 0.559700 0.694200 -0.063220
H993 H 0.579000 0.651500 -0.040700
H994 H 0.379000 0.676400 -0.166100
C995 C 0.853490 0.714810 0.102520
C996 C 0.947050 0.746200 0.174910
C997 C 1.061100 0.712630 0.245110
C998 C 1.006900 0.705560 0.324780
C999 C 1.128700 0.678940 0.399400
C1000 C 1.177600 0.609530 0.388300
H1001 H 1.084000 0.581400 0.371400
H1002 H 1.219000 0.605600 0.343000
H1003 H 1.250000 0.592900 0.438500
H1004 H 1.081000 0.679300 0.446900
H1005 H 1.216000 0.709600 0.410000
H1006 H 0.918000 0.677400 0.311400
H1007 H 0.967000 0.746800 0.339900
H1008 H 1.087000 0.669800 0.226700
H1009 H 1.156000 0.735900 0.256700
C1010 C 0.860400 0.642400 0.082440
C1011 C 0.753000 0.597930 0.115930
C1012 C 0.752100 0.527550 0.083980
C1013 C 0.637300 0.483150 0.109900
H1014 H 0.660000 0.481500 0.176000
H1015 H 0.529000 0.500800 0.089500
H1016 H 0.638000 0.439900 0.087000
H1017 H 0.861000 0.507800 0.103200
H1018 H 0.731000 0.527500 0.025100
H1019 H 0.650000 0.616400 0.097700
H1020 H 0.779000 0.598100 0.174700
H1021 H 0.967000 0.626700 0.105100
H1022 H 0.838000 0.636500 0.022800
S1023 S 0.735370 1.111010 1.190330
S1024 S 0.438090 1.181150 1.083360
S1025 S 0.219900 1.161790 0.910110
C1026 C 0.865920 1.155260 1.338280
C1027 C 0.363070 1.250860 1.026250
C1028 C 0.052950 1.253800 0.825090
C1029 C 0.767580 1.206700 1.296160
C1030 C 0.689320 1.189840 1.216120
C1031 C 0.080320 1.186890 0.823700
C1032 C 0.032800 1.018920 0.706650
C1033 C 0.026500 1.135690 0.764900
C1034 C 0.245040 1.241460 0.949340
C1035 C 0.247000 1.402070 0.884070
C1036 C 0.957300 1.158690 1.427440
C1037 C 0.146510 1.285190 0.897480
C1038 C 0.859160 1.100160 1.287820
C1039 C 0.139600 1.357600 0.917560
C1040 C 0.861800 1.143850 1.490160
C1041 C 0.576430 1.226200 1.153480
C1042 C 0.016700 1.082600 0.731060
C1043 C 0.930570 1.037460 1.301630
C1044 C 0.753700 1.273480 1.333970
C1045 C 0.836200 1.393950 1.338190
C1046 C 0.440300 1.305800 1.063220
C1047 C 0.868800 1.323420 1.316730
C1048 C 0.247900 1.472450 0.916020
C1049 C -0.006900 1.294440 0.675220
C1050 C 0.558700 1.292040 1.134440
C1051 C 0.700800 1.060560 1.542290
C1052 C -0.177600 1.390470 0.611700
C1053 C -0.061100 1.287370 0.754890
C1054 C -0.128700 1.321060 0.600600
C1055 C 0.822200 1.072000 1.493640
C1056 C 0.940800 1.443340 1.311810
C1057 C 0.362700 1.516850 0.890100
H1058 H 0.647000 1.290300 1.308400
H1059 H 0.767300 1.269800 1.392600
H1060 H 0.033000 1.373300 0.894900
H1061 H 0.162000 1.363500 0.977200
H1062 H 0.865000 1.322300 1.256100
H1063 H 0.971000 1.310300 1.349800
H1064 H 0.421000 1.348500 1.040700
H1065 H -0.087000 1.330200 0.773300
H1066 H 0.350000 1.383600 0.902300
H1067 H 0.621000 1.323600 1.166100
H1068 H -0.156000 1.264100 0.743300
H1069 H 1.045000 1.129600 1.434500
H1070 H 0.221000 1.401900 0.825300
H1071 H 0.845000 1.397900 1.397800
H1072 H 0.082000 1.322600 0.688600
H1073 H 0.728000 1.404300 1.309800
H1074 H 0.998000 1.202500 1.440200
H1075 H 0.139000 1.492200 0.896800
H1076 H 1.051000 1.434400 1.342000
H1077 H 0.737000 1.078800 1.601700
H1078 H 0.750000 1.156000 1.483600
H1079 H -0.081000 1.320700 0.553100
H1080 H 0.934000 1.440100 1.252000
H1081 H 0.033000 1.253200 0.660100
H1082 H 0.925000 1.046500 1.520200
H1083 H -0.216000 1.290400 0.590000
H1084 H 0.269000 1.472500 0.974900
H1085 H 0.340000 1.518500 0.824000
H1086 H -0.084000 1.418600 0.628600
H1087 H 0.471000 1.499200 0.910500
H1088 H 0.611000 1.081000 1.519100
H1089 H -0.219000 1.394400 0.657000
H1090 H -0.250000 1.407100 0.561500
H1091 H 0.784000 1.052600 1.429000
H1092 H 0.362000 1.560100 0.913000
H1093 H 0.674000 1.013700 1.545000
H1094 H 0.919000 1.158000 1.547700
H1095 H 0.919000 1.489000 1.322800
C1096 C 0.967200 0.981080 1.293350
C1097 C 0.983300 0.917400 1.268940
C1098 C 0.973500 0.864310 1.235100
C1099 C 0.919680 0.813110 1.176300
S1100 S 0.780100 0.838210 1.089890
C1101 C 0.754960 0.758540 1.050660
C1102 C 0.636930 0.749140 0.973750
S1103 S 0.561910 0.818850 0.916640
C1104 C 0.423570 0.773800 0.846520
C1105 C 0.310680 0.810160 0.783880
S1106 S 0.264630 0.888990 0.809670
C1107 C 0.140840 0.899840 0.712180
C1108 C 0.134080 0.844740 0.661720
C1109 C 0.232420 0.793300 0.703840
C1110 C 0.246300 0.726520 0.666030
C1111 C 0.131200 0.676580 0.683270
C1112 C 0.163800 0.606050 0.661810
C1113 C 0.059200 0.556660 0.688190
H1114 H -0.051000 0.565600 0.658000
H1115 H 0.066000 0.559900 0.748000
H1116 H 0.081000 0.511000 0.677200
H1117 H 0.155000 0.602100 0.602200
H1118 H 0.272000 0.595700 0.690200
H1119 H 0.135000 0.677700 0.743900
H1120 H 0.029000 0.689700 0.650200
H1121 H 0.353000 0.709700 0.691600
H1122 H 0.232700 0.730200 0.607400
C1123 C 0.042700 0.841310 0.572560
C1124 C 0.138200 0.856150 0.509840
C1125 C 0.177800 0.928000 0.506360
C1126 C 0.299200 0.939440 0.457710
H1127 H 0.263000 0.921200 0.398300
H1128 H 0.389000 0.919000 0.480900
H1129 H 0.326000 0.986300 0.455000
H1130 H 0.075000 0.953500 0.479800
H1131 H 0.216000 0.947400 0.571000
H1132 H 0.250000 0.844000 0.516400
H1133 H 0.081000 0.842000 0.452300
H1134 H -0.045000 0.870400 0.565500
H1135 H 0.002000 0.797500 0.559800
C1136 C 0.069430 0.962540 0.698370
C1137 C 0.441300 0.707960 0.865560
C1138 C 0.559700 0.694200 0.936780
H1139 H 0.579000 0.651500 0.959300
H1140 H 0.379000 0.676400 0.833900
C1141 C 0.853490 0.714810 1.102520
C1142 C 0.947050 0.746200 1.174910
C1143 C 1.061100 0.712630 1.245110
C1144 C 1.006900 0.705560 1.324780
C1145 C 1.128700 0.678940 1.399400
C1146 C 1.177600 0.609530 1.388300
H1147 H 1.084000 0.581400 1.371400
H1148 H 1.219000 0.605600 1.343000
H1149 H 1.250000 0.592900 1.438500
H1150 H 1.081000 0.679300 1.446900
H1151 H 1.216000 0.709600 1.410000
H1152 H 0.918000 0.677400 1.311400
H1153 H 0.967000 0.746800 1.339900
H1154 H 1.087000 0.669800 1.226700
H1155 H 1.156000 0.735900 1.256700
C1156 C 0.860400 0.642400 1.082440
C1157 C 0.753000 0.597930 1.115930
C1158 C 0.752100 0.527550 1.083980
C1159 C 0.637300 0.483150 1.109900
H1160 H 0.660000 0.481500 1.176000
H1161 H 0.529000 0.500800 1.089500
H1162 H 0.638000 0.439900 1.087000
H1163 H 0.861000 0.507800 1.103200
H1164 H 0.731000 0.527500 1.025100
H1165 H 0.650000 0.616400 1.097700
H1166 H 0.779000 0.598100 1.174700
H1167 H 0.967000 0.626700 1.105100
H1168 H 0.838000 0.636500 1.022800

#END
