./LABDUQ_from_xyz.cif_generated_by_CrystalShift
_symmetry_cell_setting triclinic
_symmetry_space_group_name_H-M 'P 1'
loop_
_symmetry_equiv_pos_site_id
_symmetry_equiv_pos_as_xyz
1 x,y,z
_cell_length_a 9.575000
_cell_length_b 7.204700
_cell_length_c 16.026000
_cell_angle_alpha 90.000000
_cell_angle_beta 105.980000
_cell_angle_gamma 90.000000
_cell_volume 1062.832687
loop_
_atom_site_label
_atom_site_type_symbol
_atom_site_fract_x
_atom_site_fract_y
_atom_site_fract_z
Br1 Br 0.843750 0.423210 0.367850
Br2 Br 0.887810 0.722560 0.232670
S3 S 0.869820 0.841830 0.407460
O4 O 0.571000 0.679400 0.217300
O5 O 0.814900 1.016700 0.369600
O6 O 1.022000 0.816800 0.442200
C7 C 0.554400 0.702200 0.360800
C8 C 0.402900 0.674700 0.333300
H9 H 0.358500 0.643800 0.275700
C10 C 0.320400 0.693000 0.390000
H11 H 0.220700 0.673100 0.370900
C12 C 0.382900 0.740100 0.474600
H13 H 0.326000 0.754300 0.512700
C14 C 0.531300 0.766400 0.503100
H15 H 0.573900 0.797100 0.560900
C16 C 0.617600 0.748000 0.447100
C17 C 0.780500 0.774500 0.484700
H18 H 0.822500 0.659100 0.511400
H19 H 0.797200 0.868100 0.530000
C20 C 0.798500 0.671500 0.323300
C21 C 0.631400 0.685600 0.293000
Br22 Br 0.156250 -0.076790 0.132150
Br23 Br 0.112190 0.222560 0.267330
S24 S 0.130180 0.341830 0.092540
O25 O 0.429000 0.179400 0.282700
O26 O 0.185100 0.516700 0.130400
O27 O -0.022000 0.316800 0.057800
C28 C 0.445600 0.202200 0.139200
C29 C 0.597100 0.174700 0.166700
H30 H 0.641500 0.143800 0.224300
C31 C 0.679600 0.193000 0.110000
H32 H 0.779300 0.173100 0.129100
C33 C 0.617100 0.240100 0.025400
H34 H 0.674000 0.254300 -0.012700
C35 C 0.468700 0.266400 -0.003100
H36 H 0.426100 0.297100 -0.060900
C37 C 0.382400 0.248000 0.052900
C38 C 0.219500 0.274500 0.015300
H39 H 0.177500 0.159100 -0.011400
H40 H 0.202800 0.368100 -0.030000
C41 C 0.201500 0.171500 0.176700
C42 C 0.368600 0.185600 0.207000
Br43 Br 0.156250 0.576790 0.632150
Br44 Br 0.112190 0.277440 0.767330
S45 S 0.130180 0.158170 0.592540
O46 O 0.429000 0.320600 0.782700
O47 O 0.185100 -0.016700 0.630400
O48 O -0.022000 0.183200 0.557800
C49 C 0.445600 0.297800 0.639200
C50 C 0.597100 0.325300 0.666700
H51 H 0.641500 0.356200 0.724300
C52 C 0.679600 0.307000 0.610000
H53 H 0.779300 0.326900 0.629100
C54 C 0.617100 0.259900 0.525400
H55 H 0.674000 0.245700 0.487300
C56 C 0.468700 0.233600 0.496900
H57 H 0.426100 0.202900 0.439100
C58 C 0.382400 0.252000 0.552900
C59 C 0.219500 0.225500 0.515300
H60 H 0.177500 0.340900 0.488600
H61 H 0.202800 0.131900 0.470000
C62 C 0.201500 0.328500 0.676700
C63 C 0.368600 0.314400 0.707000
Br64 Br 0.843750 1.076790 0.867850
Br65 Br 0.887810 0.777440 0.732670
S66 S 0.869820 0.658170 0.907460
O67 O 0.571000 0.820600 0.717300
O68 O 0.814900 0.483300 0.869600
O69 O 1.022000 0.683200 0.942200
C70 C 0.554400 0.797800 0.860800
C71 C 0.402900 0.825300 0.833300
H72 H 0.358500 0.856200 0.775700
C73 C 0.320400 0.807000 0.890000
H74 H 0.220700 0.826900 0.870900
C75 C 0.382900 0.759900 0.974600
H76 H 0.326000 0.745700 1.012700
C77 C 0.531300 0.733600 1.003100
H78 H 0.573900 0.702900 1.060900
C79 C 0.617600 0.752000 0.947100
C80 C 0.780500 0.725500 0.984700
H81 H 0.822500 0.840900 1.011400
H82 H 0.797200 0.631900 1.030000
C83 C 0.798500 0.828500 0.823300
C84 C 0.631400 0.814400 0.793000

#END
