./LABDEA_from_xyz.cif_generated_by_CrystalShift
_symmetry_cell_setting triclinic
_symmetry_space_group_name_H-M 'P 1'
loop_
_symmetry_equiv_pos_site_id
_symmetry_equiv_pos_as_xyz
1 x,y,z
_cell_length_a 11.832000
_cell_length_b 6.365000
_cell_length_c 15.531000
_cell_angle_alpha 90.000000
_cell_angle_beta 95.350000
_cell_angle_gamma 90.000000
_cell_volume 1164.554801
loop_
_atom_site_label
_atom_site_type_symbol
_atom_site_fract_x
_atom_site_fract_y
_atom_site_fract_z
C1 C 0.420080 1.108600 0.577840
H2 H 0.459200 1.132900 0.524300
C3 C 0.411410 1.314900 0.628400
H4 H 0.452100 1.302000 0.686800
H5 H 0.445600 1.431900 0.597700
C6 C 0.287740 1.355800 0.634930
H7 H 0.271100 1.358800 0.696200
H8 H 0.265100 1.492200 0.607900
C9 C 0.225860 1.179800 0.588100
C10 C 0.082030 0.975200 0.532740
H11 H 0.003000 0.945600 0.526000
C12 C 0.150840 0.841400 0.496580
H13 H 0.119800 0.725200 0.464000
C14 C 0.271460 0.873000 0.506910
C15 C 0.479380 0.932200 0.632660
C16 C 0.672870 0.783100 0.665930
C17 C 0.646010 0.617700 0.717990
H18 H 0.570800 0.603000 0.733900
C19 C 0.729060 0.472700 0.747190
H20 H 0.709100 0.359000 0.782400
C21 C 0.840030 0.489600 0.726320
C22 C 0.866870 0.661400 0.676470
H23 H 0.942900 0.679700 0.662900
C24 C 0.785210 0.806000 0.646360
H25 H 0.805600 0.921500 0.612200
C26 C 0.926330 0.321400 0.755570
H27 H 0.941400 0.235300 0.704800
H28 H 0.892600 0.227900 0.797200
C29 C 1.038740 0.404300 0.797560
H30 H 1.076800 0.489500 0.754500
C31 C 1.120090 0.231900 0.834380
H32 H 1.171500 0.187300 0.791100
H33 H 1.077400 0.108000 0.852300
C34 C 1.187740 0.335600 0.913440
H35 H 1.174700 0.260200 0.967400
H36 H 1.270100 0.335500 0.906600
C37 C 1.142110 0.560100 0.915140
H38 H 1.185600 0.651100 0.877400
C39 C 1.143470 0.660000 1.004280
H40 H 1.097000 0.572900 1.041300
C41 C 1.265160 0.674300 1.046650
C42 C 1.309520 0.516200 1.101570
H43 H 1.263100 0.400800 1.114400
C44 C 1.421790 0.525800 1.138070
H45 H 1.451800 0.416400 1.175000
C46 C 1.488910 0.694600 1.120250
H47 H 1.565200 0.701600 1.145400
C48 C 1.445690 0.854300 1.065810
H49 H 1.492000 0.970600 1.053800
C50 C 1.333960 0.842800 1.028860
H51 H 1.304500 0.951200 0.991100
N52 N 0.301300 1.049700 0.555440
N53 N 0.116110 1.151700 0.578710
N54 N 0.593130 0.930700 0.628010
H55 H 0.620800 1.032900 0.598100
N56 N 1.025010 0.533400 0.874360
H57 H 0.990200 0.664100 0.863400
O58 O 0.345550 0.763200 0.478760
O59 O 0.426030 0.815900 0.675890
O60 O 1.092210 0.860790 0.991070
H61 H 1.063100 0.897600 1.036000
C62 C 0.579920 0.608600 0.422160
H63 H 0.540800 0.632900 0.475700
C64 C 0.588590 0.814900 0.371600
H65 H 0.547900 0.802000 0.313200
H66 H 0.554400 0.931900 0.402300
C67 C 0.712260 0.855800 0.365070
H68 H 0.728900 0.858800 0.303800
H69 H 0.734900 0.992200 0.392100
C70 C 0.774140 0.679800 0.411900
C71 C 0.917970 0.475200 0.467260
H72 H 0.997000 0.445600 0.474000
C73 C 0.849160 0.341400 0.503420
H74 H 0.880200 0.225200 0.536000
C75 C 0.728540 0.373000 0.493090
C76 C 0.520620 0.432200 0.367340
C77 C 0.327130 0.283100 0.334070
C78 C 0.353990 0.117700 0.282010
H79 H 0.429200 0.103000 0.266100
C80 C 0.270940 -0.027300 0.252810
H81 H 0.290900 -0.141000 0.217600
C82 C 0.159970 -0.010400 0.273680
C83 C 0.133130 0.161400 0.323530
H84 H 0.057100 0.179700 0.337100
C85 C 0.214790 0.306000 0.353640
H86 H 0.194400 0.421500 0.387800
C87 C 0.073670 -0.178600 0.244430
H88 H 0.058600 -0.264700 0.295200
H89 H 0.107400 -0.272100 0.202800
C90 C -0.038740 -0.095700 0.202440
H91 H -0.076800 -0.010500 0.245500
C92 C -0.120090 -0.268100 0.165620
H93 H -0.171500 -0.312700 0.208900
H94 H -0.077400 -0.392000 0.147700
C95 C -0.187740 -0.164400 0.086560
H96 H -0.174700 -0.239800 0.032600
H97 H -0.270100 -0.164500 0.093400
C98 C -0.142110 0.060100 0.084860
H99 H -0.185600 0.151100 0.122600
C100 C -0.143470 0.160000 -0.004280
H101 H -0.097000 0.072900 -0.041300
C102 C -0.265160 0.174300 -0.046650
C103 C -0.309520 0.016200 -0.101570
H104 H -0.263100 -0.099200 -0.114400
C105 C -0.421790 0.025800 -0.138070
H106 H -0.451800 -0.083600 -0.175000
C107 C -0.488910 0.194600 -0.120250
H108 H -0.565200 0.201600 -0.145400
C109 C -0.445690 0.354300 -0.065810
H110 H -0.492000 0.470600 -0.053800
C111 C -0.333960 0.342800 -0.028860
H112 H -0.304500 0.451200 0.008900
N113 N 0.698700 0.549700 0.444560
N114 N 0.883890 0.651700 0.421290
N115 N 0.406870 0.430700 0.371990
H116 H 0.379200 0.532900 0.401900
N117 N -0.025010 0.033400 0.125640
H118 H 0.009800 0.164100 0.136600
O119 O 0.654450 0.263200 0.521240
O120 O 0.573970 0.315900 0.324110
O121 O -0.092210 0.360790 0.008930
H122 H -0.063100 0.397600 -0.036000

#END
