
#######################################################################
#
#                 Cambridge Crystallographic Data Centre
#                                CCDC 
#
#######################################################################
#
# If this CIF has been generated from an entry in the Cambridge 
# Structural Database, then it will include bibliographic, chemical, 
# crystal, experimental, refinement or atomic coordinate data resulting 
# from the CCDC's data processing and validation procedures.
#
#######################################################################

data_LABJON01
_symmetry_cell_setting           triclinic
_symmetry_space_group_name_H-M   'P -1'
_symmetry_Int_Tables_number      2
_space_group_name_Hall           '-P 1'
loop_
_symmetry_equiv_pos_site_id
_symmetry_equiv_pos_as_xyz
1 x,y,z
2 -x,-y,-z
_cell_length_a                   6.774(1)
_cell_length_b                   7.795(1)
_cell_length_c                   9.803(2)
_cell_angle_alpha                106.68(1)
_cell_angle_beta                 104.09(2)
_cell_angle_gamma                92.29(1)
_cell_volume                     477.56
loop_
_atom_site_label
_atom_site_type_symbol
_atom_site_fract_x
_atom_site_fract_y
_atom_site_fract_z
O1 O 0.6294(2) 0.1798(2) 0.6495(1)
C1 C 0.7483(3) 0.2117(2) 0.5625(2)
C2 C 0.9454(3) 0.1837(3) 0.6168(2)
C3 C 0.9518(3) 0.1302(3) 0.7435(2)
C4 C 0.7591(3) 0.1312(2) 0.7565(2)
N1 N 0.6679(3) 0.0927(2) 0.8630(2)
O2 O 0.7485(3) 0.0564(3) 0.9755(2)
O3 O 0.4837(3) 0.0981(2) 0.8464(2)
C5 C 0.6488(3) 0.2672(2) 0.4376(2)
N2 N 0.4560(2) 0.2806(2) 0.4142(2)
N3 N 0.3643(2) 0.3324(2) 0.2954(2)
C6 C 0.1579(3) 0.3475(2) 0.2678(2)
N4 N 0.1098(2) 0.4079(2) 0.1449(2)
C7 C 0.2733(3) 0.4355(2) 0.0939(2)
C8 C 0.4563(3) 0.3841(3) 0.1908(2)
O4 O 0.0420(2) 0.3167(2) 0.3353(2)
O5 O 0.2703(2) 0.4919(2) -0.0096(2)
H1 H 1.0632(3) 0.1983(3) 0.5747(2)
H2 H 1.0732(3) 0.0987(3) 0.8090(2)
H3 H 0.7277(3) 0.2944(2) 0.3708(2)
H4 H -0.0160(32) 0.4286(26) 0.1041(23)
H5 H 0.5657(3) 0.4886(3) 0.2420(2)
H6 H 0.5147(3) 0.2809(3) 0.1328(2)
O1 O 0.3706(2) 0.8202(2) 0.3505(1)
C1 C 0.2517(3) 0.7883(2) 0.4375(2)
C2 C 0.0546(3) 0.8163(3) 0.3832(2)
C3 C 0.0482(3) 0.8698(3) 0.2565(2)
C4 C 0.2409(3) 0.8688(2) 0.2435(2)
N1 N 0.3321(3) 0.9073(2) 0.1370(2)
O2 O 0.2515(3) 0.9436(3) 0.0245(2)
O3 O 0.5163(3) 0.9019(2) 0.1536(2)
C5 C 0.3512(3) 0.7328(2) 0.5624(2)
N2 N 0.5440(2) 0.7194(2) 0.5858(2)
N3 N 0.6357(2) 0.6676(2) 0.7046(2)
C6 C 0.8421(3) 0.6525(2) 0.7322(2)
N4 N 0.8902(2) 0.5921(2) 0.8551(2)
C7 C 0.7267(3) 0.5645(2) 0.9061(2)
C8 C 0.5437(3) 0.6159(3) 0.8092(2)
O4 O 0.9580(2) 0.6833(2) 0.6647(2)
O5 O 0.7297(2) 0.5081(2) 1.0096(2)
H1 H -0.0632(3) 0.8017(3) 0.4253(2)
H2 H -0.0732(3) 0.9013(3) 0.1910(2)
H3 H 0.2723(3) 0.7056(2) 0.6292(2)
H4 H 1.0160(32) 0.5714(26) 0.8959(23)
H5 H 0.4343(3) 0.5114(3) 0.7580(2)
H6 H 0.4853(3) 0.7191(3) 0.8672(2)

#END
