
#######################################################################
#
#                 Cambridge Crystallographic Data Centre
#                                CCDC 
#
#######################################################################
#
# If this CIF has been generated from an entry in the Cambridge 
# Structural Database, then it will include bibliographic, chemical, 
# crystal, experimental, refinement or atomic coordinate data resulting 
# from the CCDC's data processing and validation procedures.
#
#######################################################################

data_LABLUV
_symmetry_cell_setting           triclinic
_symmetry_space_group_name_H-M   'P -1'
_symmetry_Int_Tables_number      2
_space_group_name_Hall           '-P 1'
loop_
_symmetry_equiv_pos_site_id
_symmetry_equiv_pos_as_xyz
1 x,y,z
2 -x,-y,-z
_cell_length_a                   6.981(7)
_cell_length_b                   11.443(9)
_cell_length_c                   9.255(11)
_cell_angle_alpha                76.15(8)
_cell_angle_beta                 85.75(9)
_cell_angle_gamma                74.13(7)
_cell_volume                     690.437
loop_
_atom_site_label
_atom_site_type_symbol
_atom_site_fract_x
_atom_site_fract_y
_atom_site_fract_z
Br1 Br 1.0095(1) 0.71221(8) -0.20705(9)
N1 N 0.1800(8) 0.8674(5) 0.2099(5)
N2 N 0.2758(8) 0.6485(5) 0.3031(6)
C1 C 0.7718(10) 0.7222(6) -0.0922(7)
C2 C 0.6551(11) 0.8362(7) -0.0845(8)
C3 C 0.4868(11) 0.8439(6) -0.0005(7)
C4 C 0.4352(9) 0.7392(6) 0.0782(6)
C5 C 0.5610(12) 0.6253(7) 0.0670(8)
C6 C 0.7272(11) 0.6159(7) -0.0171(8)
C7 C 0.2463(10) 0.7483(6) 0.1654(7)
C8 C 0.2715(9) 0.8365(5) 0.3503(7)
C9 C 0.2973(12) 0.9136(7) 0.4343(8)
C10 C 0.3836(12) 0.8633(8) 0.5686(8)
C11 C 0.4402(11) 0.7372(8) 0.6218(8)
C12 C 0.4091(11) 0.6578(7) 0.5411(8)
C13 C 0.3262(10) 0.7098(6) 0.4035(7)
C14 C 0.1014(13) 0.6023(8) 0.3522(9)
C15 C -0.0939(15) 0.6933(10) 0.3168(14)
C16 C -0.1318(15) 0.8182(10) 0.3325(15)
C17 C -0.0365(12) 0.9086(9) 0.2222(10)
H1 H 0.690(12) 0.907(8) -0.135(9)
H2 H 0.392(11) 0.926(7) 0.011(8)
H3 H 0.529(9) 0.562(6) 0.117(7)
H4 H 0.801(9) 0.540(6) -0.039(7)
H5 H 0.158(10) 0.735(6) 0.103(8)
H6 H 0.242(11) 0.993(8) 0.407(8)
H7 H 0.413(10) 0.913(6) 0.637(8)
H8 H 0.499(11) 0.694(7) 0.732(10)
H9 H 0.440(8) 0.575(6) 0.574(7)
H10 H 0.106(10) 0.577(6) 0.461(9)
H11 H 0.116(11) 0.533(7) 0.307(8)
H12 H -0.195(9) 0.664(5) 0.350(6)
H13 H -0.115(27) 0.718(17) 0.201(20)
H14 H -0.074(16) 0.802(10) 0.455(12)
H15 H -0.273(13) 0.862(7) 0.326(8)
H16 H -0.069(9) 0.915(6) 0.129(8)
H17 H -0.059(12) 0.970(8) 0.260(9)
Br1 Br -0.0095(1) 0.28779(8) 1.20705(9)
N1 N 0.8200(8) 0.1326(5) 0.7901(5)
N2 N 0.7242(8) 0.3515(5) 0.6969(6)
C1 C 0.2282(10) 0.2778(6) 1.0922(7)
C2 C 0.3449(11) 0.1638(7) 1.0845(8)
C3 C 0.5132(11) 0.1561(6) 1.0005(7)
C4 C 0.5648(9) 0.2608(6) 0.9218(6)
C5 C 0.4390(12) 0.3747(7) 0.9330(8)
C6 C 0.2728(11) 0.3841(7) 1.0171(8)
C7 C 0.7537(10) 0.2517(6) 0.8346(7)
C8 C 0.7285(9) 0.1635(5) 0.6497(7)
C9 C 0.7027(12) 0.0864(7) 0.5657(8)
C10 C 0.6164(12) 0.1367(8) 0.4314(8)
C11 C 0.5598(11) 0.2628(8) 0.3782(8)
C12 C 0.5909(11) 0.3422(7) 0.4589(8)
C13 C 0.6738(10) 0.2902(6) 0.5965(7)
C14 C 0.8986(13) 0.3977(8) 0.6478(9)
C15 C 1.0939(15) 0.3067(10) 0.6832(14)
C16 C 1.1318(15) 0.1818(10) 0.6675(15)
C17 C 1.0365(12) 0.0914(9) 0.7778(10)
H1 H 0.310(12) 0.093(8) 1.135(9)
H2 H 0.608(11) 0.074(7) 0.989(8)
H3 H 0.471(9) 0.438(6) 0.883(7)
H4 H 0.199(9) 0.460(6) 1.039(7)
H5 H 0.842(10) 0.265(6) 0.897(8)
H6 H 0.758(11) 0.007(8) 0.593(8)
H7 H 0.587(10) 0.087(6) 0.363(8)
H8 H 0.501(11) 0.306(7) 0.268(10)
H9 H 0.560(8) 0.425(6) 0.426(7)
H10 H 0.894(10) 0.423(6) 0.539(9)
H11 H 0.884(11) 0.467(7) 0.693(8)
H12 H 1.195(9) 0.336(5) 0.650(6)
H13 H 1.115(27) 0.282(17) 0.799(20)
H14 H 1.074(16) 0.198(10) 0.545(12)
H15 H 1.273(13) 0.138(7) 0.674(8)
H16 H 1.069(9) 0.085(6) 0.871(8)
H17 H 1.059(12) 0.030(8) 0.740(9)

#END
