./LABQEK_from_xyz.cif_generated_by_CrystalShift
_symmetry_cell_setting triclinic
_symmetry_space_group_name_H-M 'P 1'
loop_
_symmetry_equiv_pos_site_id
_symmetry_equiv_pos_as_xyz
1 x,y,z
_cell_length_a 11.381000
_cell_length_b 8.915000
_cell_length_c 18.918000
_cell_angle_alpha 90.000000
_cell_angle_beta 96.220000
_cell_angle_gamma 90.000000
_cell_volume 1908.151458
loop_
_atom_site_label
_atom_site_type_symbol
_atom_site_fract_x
_atom_site_fract_y
_atom_site_fract_z
C1 C 0.485100 0.501300 0.179500
C2 C 0.419200 0.626500 0.180500
N3 N 0.448900 0.726000 0.127900
C4 C 0.537700 0.658000 0.092100
C5 C 0.595900 0.707400 0.035400
C6 C 0.679200 0.610800 0.013000
C7 C 0.704900 0.470800 0.043800
C8 C 0.797500 0.372400 0.014300
C9 C 0.845600 0.251900 0.067200
C10 C 0.741700 0.166100 0.094300
C11 C 0.666300 0.270500 0.134400
C12 C 0.645300 0.421000 0.099500
C13 C 0.561000 0.517900 0.123600
C14 C 0.400000 0.865700 0.112400
O15 O 0.427600 0.946600 0.066380
O16 O 0.318400 0.893000 0.156830
C17 C 0.250400 1.035600 0.152400
C18 C 0.333300 1.168000 0.162500
C19 C 0.172100 1.040700 0.082300
C20 C 0.178300 1.020700 0.214800
C21 C 0.928800 0.311300 0.129000
O22 O 0.938100 0.257300 0.187820
O23 O 0.993800 0.426200 0.110450
C24 C 1.078100 0.486800 0.166300
C25 C 0.775200 0.027200 0.136500
O26 O 0.735600 -0.010500 0.190320
O27 O 0.851600 -0.057800 0.104500
C28 C 0.881600 -0.199900 0.137700
H29 H 0.481700 0.415900 0.210100
H30 H 0.360800 0.645200 0.212400
H31 H 0.578600 0.802800 0.013100
H32 H 0.722000 0.641100 -0.025600
H33 H 0.861400 0.434100 0.002100
H34 H 0.762400 0.324900 -0.028400
H35 H 0.889300 0.181400 0.041900
H36 H 0.691900 0.133500 0.053000
H37 H 0.705200 0.284600 0.181500
H38 H 0.591300 0.223800 0.138400
H39 H 0.371300 1.185000 0.120400
H40 H 0.390800 1.148300 0.202400
H41 H 0.289100 1.254800 0.173800
H42 H 0.218500 1.047900 0.043000
H43 H 0.119900 1.125100 0.083300
H44 H 0.124100 0.951900 0.078700
H45 H 0.228200 1.019000 0.259100
H46 H 0.132600 0.930300 0.208500
H47 H 0.123900 1.103200 0.213400
H48 H 1.126600 0.408100 0.188500
H49 H 1.035800 0.536300 0.200900
H50 H 1.126300 0.560300 0.146200
H51 H 0.810900 -0.248800 0.149100
H52 H 0.933900 -0.184700 0.180400
H53 H 0.920900 -0.262400 0.106200
C54 C 0.514900 0.001300 0.320500
C55 C 0.580800 0.126500 0.319500
N56 N 0.551100 0.226000 0.372100
C57 C 0.462300 0.158000 0.407900
C58 C 0.404100 0.207400 0.464600
C59 C 0.320800 0.110800 0.487000
C60 C 0.295100 -0.029200 0.456200
C61 C 0.202500 -0.127600 0.485700
C62 C 0.154400 -0.248100 0.432800
C63 C 0.258300 -0.333900 0.405700
C64 C 0.333700 -0.229500 0.365600
C65 C 0.354700 -0.079000 0.400500
C66 C 0.439000 0.017900 0.376400
C67 C 0.600000 0.365700 0.387600
O68 O 0.572400 0.446600 0.433620
O69 O 0.681600 0.393000 0.343170
C70 C 0.749600 0.535600 0.347600
C71 C 0.666700 0.668000 0.337500
C72 C 0.827900 0.540700 0.417700
C73 C 0.821700 0.520700 0.285200
C74 C 0.071200 -0.188700 0.371000
O75 O 0.061900 -0.242700 0.312180
O76 O 0.006200 -0.073800 0.389550
C77 C -0.078100 -0.013200 0.333700
C78 C 0.224800 -0.472800 0.363500
O79 O 0.264400 -0.510500 0.309680
O80 O 0.148400 -0.557800 0.395500
C81 C 0.118400 -0.699900 0.362300
H82 H 0.518300 -0.084100 0.289900
H83 H 0.639200 0.145200 0.287600
H84 H 0.421400 0.302800 0.486900
H85 H 0.278000 0.141100 0.525600
H86 H 0.138600 -0.065900 0.497900
H87 H 0.237600 -0.175100 0.528400
H88 H 0.110700 -0.318600 0.458100
H89 H 0.308100 -0.366500 0.447000
H90 H 0.294800 -0.215400 0.318500
H91 H 0.408700 -0.276200 0.361600
H92 H 0.628700 0.685000 0.379600
H93 H 0.609200 0.648300 0.297600
H94 H 0.710900 0.754800 0.326200
H95 H 0.781500 0.547900 0.457000
H96 H 0.880100 0.625100 0.416700
H97 H 0.875900 0.451900 0.421300
H98 H 0.771800 0.519000 0.240900
H99 H 0.867400 0.430300 0.291500
H100 H 0.876100 0.603200 0.286600
H101 H -0.126600 -0.091900 0.311500
H102 H -0.035800 0.036300 0.299100
H103 H -0.126300 0.060300 0.353800
H104 H 0.189100 -0.748800 0.350900
H105 H 0.066100 -0.684700 0.319600
H106 H 0.079100 -0.762400 0.393800
C107 C 0.514900 0.498700 0.820500
C108 C 0.580800 0.373500 0.819500
N109 N 0.551100 0.274000 0.872100
C110 C 0.462300 0.342000 0.907900
C111 C 0.404100 0.292600 0.964600
C112 C 0.320800 0.389200 0.987000
C113 C 0.295100 0.529200 0.956200
C114 C 0.202500 0.627600 0.985700
C115 C 0.154400 0.748100 0.932800
C116 C 0.258300 0.833900 0.905700
C117 C 0.333700 0.729500 0.865600
C118 C 0.354700 0.579000 0.900500
C119 C 0.439000 0.482100 0.876400
C120 C 0.600000 0.134300 0.887600
O121 O 0.572400 0.053400 0.933620
O122 O 0.681600 0.107000 0.843170
C123 C 0.749600 -0.035600 0.847600
C124 C 0.666700 -0.168000 0.837500
C125 C 0.827900 -0.040700 0.917700
C126 C 0.821700 -0.020700 0.785200
C127 C 0.071200 0.688700 0.871000
O128 O 0.061900 0.742700 0.812180
O129 O 0.006200 0.573800 0.889550
C130 C -0.078100 0.513200 0.833700
C131 C 0.224800 0.972800 0.863500
O132 O 0.264400 1.010500 0.809680
O133 O 0.148400 1.057800 0.895500
C134 C 0.118400 1.199900 0.862300
H135 H 0.518300 0.584100 0.789900
H136 H 0.639200 0.354800 0.787600
H137 H 0.421400 0.197200 0.986900
H138 H 0.278000 0.358900 1.025600
H139 H 0.138600 0.565900 0.997900
H140 H 0.237600 0.675100 1.028400
H141 H 0.110700 0.818600 0.958100
H142 H 0.308100 0.866500 0.947000
H143 H 0.294800 0.715400 0.818500
H144 H 0.408700 0.776200 0.861600
H145 H 0.628700 -0.185000 0.879600
H146 H 0.609200 -0.148300 0.797600
H147 H 0.710900 -0.254800 0.826200
H148 H 0.781500 -0.047900 0.957000
H149 H 0.880100 -0.125100 0.916700
H150 H 0.875900 0.048100 0.921300
H151 H 0.771800 -0.019000 0.740900
H152 H 0.867400 0.069700 0.791500
H153 H 0.876100 -0.103200 0.786600
H154 H -0.126600 0.591900 0.811500
H155 H -0.035800 0.463700 0.799100
H156 H -0.126300 0.439700 0.853800
H157 H 0.189100 1.248800 0.850900
H158 H 0.066100 1.184700 0.819600
H159 H 0.079100 1.262400 0.893800
C160 C 0.485100 0.998700 0.679500
C161 C 0.419200 0.873500 0.680500
N162 N 0.448900 0.774000 0.627900
C163 C 0.537700 0.842000 0.592100
C164 C 0.595900 0.792600 0.535400
C165 C 0.679200 0.889200 0.513000
C166 C 0.704900 1.029200 0.543800
C167 C 0.797500 1.127600 0.514300
C168 C 0.845600 1.248100 0.567200
C169 C 0.741700 1.333900 0.594300
C170 C 0.666300 1.229500 0.634400
C171 C 0.645300 1.079000 0.599500
C172 C 0.561000 0.982100 0.623600
C173 C 0.400000 0.634300 0.612400
O174 O 0.427600 0.553400 0.566380
O175 O 0.318400 0.607000 0.656830
C176 C 0.250400 0.464400 0.652400
C177 C 0.333300 0.332000 0.662500
C178 C 0.172100 0.459300 0.582300
C179 C 0.178300 0.479300 0.714800
C180 C 0.928800 1.188700 0.629000
O181 O 0.938100 1.242700 0.687820
O182 O 0.993800 1.073800 0.610450
C183 C 1.078100 1.013200 0.666300
C184 C 0.775200 1.472800 0.636500
O185 O 0.735600 1.510500 0.690320
O186 O 0.851600 1.557800 0.604500
C187 C 0.881600 1.699900 0.637700
H188 H 0.481700 1.084100 0.710100
H189 H 0.360800 0.854800 0.712400
H190 H 0.578600 0.697200 0.513100
H191 H 0.722000 0.858900 0.474400
H192 H 0.861400 1.065900 0.502100
H193 H 0.762400 1.175100 0.471600
H194 H 0.889300 1.318600 0.541900
H195 H 0.691900 1.366500 0.553000
H196 H 0.705200 1.215400 0.681500
H197 H 0.591300 1.276200 0.638400
H198 H 0.371300 0.315000 0.620400
H199 H 0.390800 0.351700 0.702400
H200 H 0.289100 0.245200 0.673800
H201 H 0.218500 0.452100 0.543000
H202 H 0.119900 0.374900 0.583300
H203 H 0.124100 0.548100 0.578700
H204 H 0.228200 0.481000 0.759100
H205 H 0.132600 0.569700 0.708500
H206 H 0.123900 0.396800 0.713400
H207 H 1.126600 1.091900 0.688500
H208 H 1.035800 0.963700 0.700900
H209 H 1.126300 0.939700 0.646200
H210 H 0.810900 1.748800 0.649100
H211 H 0.933900 1.684700 0.680400
H212 H 0.920900 1.762400 0.606200

#END
