
#######################################################################
#
#                 Cambridge Crystallographic Data Centre
#                                CCDC 
#
#######################################################################
#
# If this CIF has been generated from an entry in the Cambridge 
# Structural Database, then it will include bibliographic, chemical, 
# crystal, experimental, refinement or atomic coordinate data resulting 
# from the CCDC's data processing and validation procedures.
#
#######################################################################

data_LABVEP
_symmetry_cell_setting           monoclinic
_symmetry_space_group_name_H-M   'P 21/a'
_symmetry_Int_Tables_number      14
_space_group_name_Hall           '-P 2yab'
loop_
_symmetry_equiv_pos_site_id
_symmetry_equiv_pos_as_xyz
1 x,y,z
2 1/2-x,1/2+y,-z
3 -x,-y,-z
4 1/2+x,1/2-y,z
_cell_length_a                   27.729(5)
_cell_length_b                   5.0311(7)
_cell_length_c                   6.105(1)
_cell_angle_alpha                90
_cell_angle_beta                 99.57(2)
_cell_angle_gamma                90
_cell_volume                     839.84
loop_
_atom_site_label
_atom_site_type_symbol
_atom_site_fract_x
_atom_site_fract_y
_atom_site_fract_z
O1 O 0.50023(4) 1.3330(2) 0.2491(2)
O2 O 0.45399(4) 1.2762(2) -0.0802(2)
O3 O 0.30860(4) -0.0074(2) 0.6531(2)
O4 O 0.26096(4) -0.0400(2) 0.3379(2)
N1 N 0.29527(4) 0.0591(2) 0.4595(2)
C1 C 0.32246(5) 0.2730(3) 0.3712(2)
C2 C 0.36232(5) 0.3803(3) 0.5065(2)
C3 C 0.38838(5) 0.5765(3) 0.4236(2)
C4 C 0.37501(5) 0.6666(3) 0.2051(2)
C5 C 0.33429(5) 0.5554(3) 0.0745(2)
C6 C 0.30776(5) 0.3572(3) 0.1563(2)
C7 C 0.40240(5) 0.8759(3) 0.1126(2)
C8 C 0.44095(5) 1.0036(3) 0.2189(2)
C9 C 0.46586(5) 1.2160(3) 0.1198(2)
H1 H 0.3721(6) 0.320(3) 0.660(3)
H2 H 0.4163(6) 0.641(3) 0.530(3)
H3 H 0.3246(5) 0.616(3) -0.081(2)
H4 H 0.2810(6) 0.277(3) 0.067(3)
H5 H 0.3896(5) 0.921(3) -0.034(2)
H6 H 0.4542(6) 0.971(3) 0.375(3)
H7 H 0.517(1) 1.493(5) 0.191(4)
O1 O -0.00023(4) 0.8330(2) 0.7509(2)
O2 O 0.04601(4) 0.7762(2) 1.0802(2)
O3 O 0.19140(4) -0.5074(2) 0.3469(2)
O4 O 0.23904(4) -0.5400(2) 0.6621(2)
N1 N 0.20473(4) -0.4409(2) 0.5405(2)
C1 C 0.17754(5) -0.2270(3) 0.6288(2)
C2 C 0.13768(5) -0.1197(3) 0.4935(2)
C3 C 0.11162(5) 0.0765(3) 0.5764(2)
C4 C 0.12499(5) 0.1666(3) 0.7949(2)
C5 C 0.16571(5) 0.0554(3) 0.9255(2)
C6 C 0.19224(5) -0.1428(3) 0.8437(2)
C7 C 0.09760(5) 0.3759(3) 0.8874(2)
C8 C 0.05905(5) 0.5036(3) 0.7811(2)
C9 C 0.03414(5) 0.7160(3) 0.8802(2)
H1 H 0.1279(6) -0.180(3) 0.340(3)
H2 H 0.0837(6) 0.141(3) 0.470(3)
H3 H 0.1754(5) 0.116(3) 1.081(2)
H4 H 0.2190(6) -0.223(3) 0.933(3)
H5 H 0.1104(5) 0.421(3) 1.034(2)
H6 H 0.0458(6) 0.471(3) 0.625(3)
H7 H -0.017(1) 0.993(5) 0.809(4)
O1 O 0.49977(4) -0.3330(2) 0.7509(2)
O2 O 0.54601(4) -0.2762(2) 1.0802(2)
O3 O 0.69140(4) 1.0074(2) 0.3469(2)
O4 O 0.73904(4) 1.0400(2) 0.6621(2)
N1 N 0.70473(4) 0.9409(2) 0.5405(2)
C1 C 0.67754(5) 0.7270(3) 0.6288(2)
C2 C 0.63768(5) 0.6197(3) 0.4935(2)
C3 C 0.61162(5) 0.4235(3) 0.5764(2)
C4 C 0.62499(5) 0.3334(3) 0.7949(2)
C5 C 0.66571(5) 0.4446(3) 0.9255(2)
C6 C 0.69224(5) 0.6428(3) 0.8437(2)
C7 C 0.59760(5) 0.1241(3) 0.8874(2)
C8 C 0.55905(5) -0.0036(3) 0.7811(2)
C9 C 0.53414(5) -0.2160(3) 0.8802(2)
H1 H 0.6279(6) 0.680(3) 0.340(3)
H2 H 0.5837(6) 0.359(3) 0.470(3)
H3 H 0.6754(5) 0.384(3) 1.081(2)
H4 H 0.7190(6) 0.723(3) 0.933(3)
H5 H 0.6104(5) 0.079(3) 1.034(2)
H6 H 0.5458(6) 0.029(3) 0.625(3)
H7 H 0.483(1) -0.493(5) 0.809(4)
O1 O 1.00023(4) 0.1670(2) 0.2491(2)
O2 O 0.95399(4) 0.2238(2) -0.0802(2)
O3 O 0.80860(4) 1.5074(2) 0.6531(2)
O4 O 0.76096(4) 1.5400(2) 0.3379(2)
N1 N 0.79527(4) 1.4409(2) 0.4595(2)
C1 C 0.82246(5) 1.2270(3) 0.3712(2)
C2 C 0.86232(5) 1.1197(3) 0.5065(2)
C3 C 0.88838(5) 0.9235(3) 0.4236(2)
C4 C 0.87501(5) 0.8334(3) 0.2051(2)
C5 C 0.83429(5) 0.9446(3) 0.0745(2)
C6 C 0.80776(5) 1.1428(3) 0.1563(2)
C7 C 0.90240(5) 0.6241(3) 0.1126(2)
C8 C 0.94095(5) 0.4964(3) 0.2189(2)
C9 C 0.96586(5) 0.2840(3) 0.1198(2)
H1 H 0.8721(6) 1.180(3) 0.660(3)
H2 H 0.9163(6) 0.859(3) 0.530(3)
H3 H 0.8246(5) 0.884(3) -0.081(2)
H4 H 0.7810(6) 1.223(3) 0.067(3)
H5 H 0.8896(5) 0.579(3) -0.034(2)
H6 H 0.9542(6) 0.529(3) 0.375(3)
H7 H 1.017(1) 0.007(5) 0.191(4)

#END
