
#######################################################################
#
#                 Cambridge Crystallographic Data Centre
#                                CCDC 
#
#######################################################################
#
# If this CIF has been generated from an entry in the Cambridge 
# Structural Database, then it will include bibliographic, chemical, 
# crystal, experimental, refinement or atomic coordinate data resulting 
# from the CCDC's data processing and validation procedures.
#
#######################################################################

data_LABVAO
_symmetry_cell_setting           orthorhombic
_symmetry_space_group_name_H-M   'P n a 21'
_symmetry_Int_Tables_number      33
_space_group_name_Hall           'P 2c -2n'
loop_
_symmetry_equiv_pos_site_id
_symmetry_equiv_pos_as_xyz
1 x,y,z
2 -x,-y,1/2+z
3 1/2+x,1/2-y,z
4 1/2-x,1/2+y,1/2+z
_cell_length_a                   23.420(3)
_cell_length_b                   4.9710(5)
_cell_length_c                   11.6351(13)
_cell_angle_alpha                90
_cell_angle_beta                 90
_cell_angle_gamma                90
_cell_volume                     1354.57
loop_
_atom_site_label
_atom_site_type_symbol
_atom_site_fract_x
_atom_site_fract_y
_atom_site_fract_z
O1 O 0.44440(11) 1.3868(4) 0.5985(2)
H1 H 0.4149 1.3372 0.6335
O2 O 0.36234(10) 1.0716(4) 0.6480(2)
O3 O 0.26371(8) 0.2986(4) 0.40259(19)
O4 O 0.16996(9) 0.2205(4) 0.69826(19)
C1 C 0.45116(13) 1.2354(6) 0.5024(3)
C2 C 0.49562(14) 1.3054(7) 0.4274(4)
H2 H 0.5196 1.4544 0.4443
C3 C 0.50445(14) 1.1565(7) 0.3285(3)
H3 H 0.5343 1.2063 0.2775
C4 C 0.47068(14) 0.9362(7) 0.3027(3)
H4 H 0.4778 0.8324 0.2356
C5 C 0.42636(13) 0.8698(6) 0.3761(3)
H5 H 0.4027 0.7206 0.3579
C6 C 0.41550(13) 1.0160(6) 0.4763(3)
C7 C 0.36806(13) 0.9446(6) 0.5557(3)
C8 C 0.32784(12) 0.7274(6) 0.5266(3)
H6 H 0.3303 0.6390 0.4543
C9 C 0.28747(12) 0.6551(6) 0.6033(3)
H7 H 0.2871 0.7548 0.6730
C10 C 0.24440(12) 0.4445(6) 0.5936(3)
C11 C 0.23503(13) 0.2783(6) 0.4911(3)
C12 C 0.18817(13) 0.0805(6) 0.5026(3)
C13 C 0.15789(12) 0.0579(6) 0.6058(3)
C14 C 0.11480(13) -0.1298(6) 0.6212(3)
H8 H 0.0953 -0.1420 0.6926
C15 C 0.10074(13) -0.2981(6) 0.5317(3)
H9 H 0.0713 -0.4278 0.5413
C16 C 0.12964(13) -0.2789(6) 0.4265(3)
H10 H 0.1195 -0.3942 0.3647
C17 C 0.17260(12) -0.0934(6) 0.4129(3)
H11 H 0.1921 -0.0826 0.3415
C18 C 0.21097(12) 0.4062(6) 0.6878(3)
H12 H 0.2173 0.5213 0.7517
O1 O 0.55560(11) -0.3868(4) 0.0985(2)
H1 H 0.5851 -0.3372 0.1335
O2 O 0.63766(10) -0.0716(4) 0.1480(2)
O3 O 0.73629(8) 0.7014(4) -0.09741(19)
O4 O 0.83004(9) 0.7795(4) 0.19826(19)
C1 C 0.54884(13) -0.2354(6) 0.0024(3)
C2 C 0.50438(14) -0.3054(7) -0.0726(4)
H2 H 0.4804 -0.4544 -0.0557
C3 C 0.49555(14) -0.1565(7) -0.1715(3)
H3 H 0.4657 -0.2063 -0.2225
C4 C 0.52932(14) 0.0638(7) -0.1973(3)
H4 H 0.5222 0.1676 -0.2644
C5 C 0.57364(13) 0.1302(6) -0.1239(3)
H5 H 0.5973 0.2794 -0.1421
C6 C 0.58450(13) -0.0160(6) -0.0237(3)
C7 C 0.63194(13) 0.0554(6) 0.0557(3)
C8 C 0.67216(12) 0.2726(6) 0.0266(3)
H6 H 0.6697 0.3610 -0.0457
C9 C 0.71253(12) 0.3449(6) 0.1033(3)
H7 H 0.7129 0.2452 0.1730
C10 C 0.75560(12) 0.5555(6) 0.0936(3)
C11 C 0.76497(13) 0.7217(6) -0.0089(3)
C12 C 0.81183(13) 0.9195(6) 0.0026(3)
C13 C 0.84211(12) 0.9421(6) 0.1058(3)
C14 C 0.88520(13) 1.1298(6) 0.1212(3)
H8 H 0.9047 1.1420 0.1926
C15 C 0.89926(13) 1.2981(6) 0.0317(3)
H9 H 0.9287 1.4278 0.0413
C16 C 0.87036(13) 1.2789(6) -0.0735(3)
H10 H 0.8805 1.3942 -0.1353
C17 C 0.82740(12) 1.0934(6) -0.0871(3)
H11 H 0.8079 1.0826 -0.1585
C18 C 0.78903(12) 0.5938(6) 0.1878(3)
H12 H 0.7827 0.4787 0.2517
O1 O 0.94440(11) 0.1132(4) 0.5985(2)
H1 H 0.9149 0.1628 0.6335
O2 O 0.86234(10) 0.4284(4) 0.6480(2)
O3 O 0.76371(8) 1.2014(4) 0.40259(19)
O4 O 0.66996(9) 1.2795(4) 0.69826(19)
C1 C 0.95116(13) 0.2646(6) 0.5024(3)
C2 C 0.99562(14) 0.1946(7) 0.4274(4)
H2 H 1.0196 0.0456 0.4443
C3 C 1.00445(14) 0.3435(7) 0.3285(3)
H3 H 1.0343 0.2937 0.2775
C4 C 0.97068(14) 0.5638(7) 0.3027(3)
H4 H 0.9778 0.6676 0.2356
C5 C 0.92636(13) 0.6302(6) 0.3761(3)
H5 H 0.9027 0.7794 0.3579
C6 C 0.91550(13) 0.4840(6) 0.4763(3)
C7 C 0.86806(13) 0.5554(6) 0.5557(3)
C8 C 0.82784(12) 0.7726(6) 0.5266(3)
H6 H 0.8303 0.8610 0.4543
C9 C 0.78747(12) 0.8449(6) 0.6033(3)
H7 H 0.7871 0.7452 0.6730
C10 C 0.74440(12) 1.0555(6) 0.5936(3)
C11 C 0.73503(13) 1.2217(6) 0.4911(3)
C12 C 0.68817(13) 1.4195(6) 0.5026(3)
C13 C 0.65789(12) 1.4421(6) 0.6058(3)
C14 C 0.61480(13) 1.6298(6) 0.6212(3)
H8 H 0.5953 1.6420 0.6926
C15 C 0.60074(13) 1.7981(6) 0.5317(3)
H9 H 0.5713 1.9278 0.5413
C16 C 0.62964(13) 1.7789(6) 0.4265(3)
H10 H 0.6195 1.8942 0.3647
C17 C 0.67260(12) 1.5934(6) 0.4129(3)
H11 H 0.6921 1.5826 0.3415
C18 C 0.71097(12) 1.0938(6) 0.6878(3)
H12 H 0.7173 0.9787 0.7517
O1 O 0.05560(11) 0.8868(4) 0.0985(2)
H1 H 0.0851 0.8372 0.1335
O2 O 0.13766(10) 0.5716(4) 0.1480(2)
O3 O 0.23629(8) -0.2014(4) -0.09741(19)
O4 O 0.33004(9) -0.2795(4) 0.19826(19)
C1 C 0.04884(13) 0.7354(6) 0.0024(3)
C2 C 0.00438(14) 0.8054(7) -0.0726(4)
H2 H -0.0196 0.9544 -0.0557
C3 C -0.00445(14) 0.6565(7) -0.1715(3)
H3 H -0.0343 0.7063 -0.2225
C4 C 0.02932(14) 0.4362(7) -0.1973(3)
H4 H 0.0222 0.3324 -0.2644
C5 C 0.07364(13) 0.3698(6) -0.1239(3)
H5 H 0.0973 0.2206 -0.1421
C6 C 0.08450(13) 0.5160(6) -0.0237(3)
C7 C 0.13194(13) 0.4446(6) 0.0557(3)
C8 C 0.17216(12) 0.2274(6) 0.0266(3)
H6 H 0.1697 0.1390 -0.0457
C9 C 0.21253(12) 0.1551(6) 0.1033(3)
H7 H 0.2129 0.2548 0.1730
C10 C 0.25560(12) -0.0555(6) 0.0936(3)
C11 C 0.26497(13) -0.2217(6) -0.0089(3)
C12 C 0.31183(13) -0.4195(6) 0.0026(3)
C13 C 0.34211(12) -0.4421(6) 0.1058(3)
C14 C 0.38520(13) -0.6298(6) 0.1212(3)
H8 H 0.4047 -0.6420 0.1926
C15 C 0.39926(13) -0.7981(6) 0.0317(3)
H9 H 0.4287 -0.9278 0.0413
C16 C 0.37036(13) -0.7789(6) -0.0735(3)
H10 H 0.3805 -0.8942 -0.1353
C17 C 0.32740(12) -0.5934(6) -0.0871(3)
H11 H 0.3079 -0.5826 -0.1585
C18 C 0.28903(12) -0.0938(6) 0.1878(3)
H12 H 0.2827 0.0213 0.2517

#END
