./LABWIX_from_xyz.cif_generated_by_CrystalShift
_symmetry_cell_setting triclinic
_symmetry_space_group_name_H-M 'P 1'
loop_
_symmetry_equiv_pos_site_id
_symmetry_equiv_pos_as_xyz
1 x,y,z
_cell_length_a 7.414600
_cell_length_b 7.152600
_cell_length_c 10.000000
_cell_angle_alpha 90.000000
_cell_angle_beta 107.240000
_cell_angle_gamma 90.000000
_cell_volume 506.509554
loop_
_atom_site_label
_atom_site_type_symbol
_atom_site_fract_x
_atom_site_fract_y
_atom_site_fract_z
Cl1 Cl 1.086340 0.256120 0.336060
N2 N 0.500500 0.534900 0.420000
N3 N 0.995200 0.219900 0.663600
C4 C 0.719000 0.137300 0.308200
H5 H 0.785800 0.019700 0.340100
C6 C 0.844900 0.294900 0.300200
H7 H 0.790900 0.387300 0.226900
C8 C 0.760400 0.293800 0.423000
C9 C 0.527600 0.112100 0.207300
C10 C 0.433000 -0.052900 0.212200
H11 H 0.487500 -0.142700 0.279300
C12 C 0.257200 -0.084800 0.117400
H13 H 0.193900 -0.195900 0.121400
C14 C 0.176100 0.045600 0.017900
H15 H 0.058700 0.022300 -0.046000
C16 C 0.266900 0.209600 0.012100
H17 H 0.211000 0.298800 -0.055100
C18 C 0.442400 0.243400 0.106500
H19 H 0.503900 0.355500 0.102200
C20 C 0.615000 0.428800 0.420800
C21 C 0.887700 0.250600 0.558500
Cl22 Cl -0.086340 0.756120 0.663940
N23 N 0.499500 1.034900 0.580000
N24 N 0.004800 0.719900 0.336400
C25 C 0.281000 0.637300 0.691800
H26 H 0.214200 0.519700 0.659900
C27 C 0.155100 0.794900 0.699800
H28 H 0.209100 0.887300 0.773100
C29 C 0.239600 0.793800 0.577000
C30 C 0.472400 0.612100 0.792700
C31 C 0.567000 0.447100 0.787800
H32 H 0.512500 0.357300 0.720700
C33 C 0.742800 0.415200 0.882600
H34 H 0.806100 0.304100 0.878600
C35 C 0.823900 0.545600 0.982100
H36 H 0.941300 0.522300 1.046000
C37 C 0.733100 0.709600 0.987900
H38 H 0.789000 0.798800 1.055100
C39 C 0.557600 0.743400 0.893500
H40 H 0.496100 0.855500 0.897800
C41 C 0.385000 0.928800 0.579200
C42 C 0.112300 0.750600 0.441500

#END
