
#######################################################################
#
#                 Cambridge Crystallographic Data Centre
#                                CCDC 
#
#######################################################################
#
# If this CIF has been generated from an entry in the Cambridge 
# Structural Database, then it will include bibliographic, chemical, 
# crystal, experimental, refinement or atomic coordinate data resulting 
# from the CCDC's data processing and validation procedures.
#
#######################################################################

data_LABWIX
_symmetry_cell_setting           monoclinic
_symmetry_space_group_name_H-M   'P 21'
_symmetry_Int_Tables_number      4
_space_group_name_Hall           'P 2yb'
loop_
_symmetry_equiv_pos_site_id
_symmetry_equiv_pos_as_xyz
1 x,y,z
2 -x,1/2+y,-z
_cell_length_a                   7.4146(15)
_cell_length_b                   7.1526(14)
_cell_length_c                   10.000(2)
_cell_angle_alpha                90
_cell_angle_beta                 107.24(3)
_cell_angle_gamma                90
_cell_volume                     506.51
loop_
_atom_site_label
_atom_site_type_symbol
_atom_site_fract_x
_atom_site_fract_y
_atom_site_fract_z
Cl1 Cl 1.08634(8) 0.25612(14) 0.33606(7)
N1 N 0.5005(3) 0.5349(4) 0.4200(3)
N2 N 0.9952(4) 0.2199(4) 0.6636(2)
C1 C 0.7190(3) 0.1373(3) 0.3082(2)
H1 H 0.7858 0.0197 0.3401
C2 C 0.8449(3) 0.2949(3) 0.3002(2)
H2 H 0.7909 0.3873 0.2269
C3 C 0.7604(3) 0.2938(3) 0.4230(2)
C4 C 0.5276(3) 0.1121(4) 0.2073(2)
C5 C 0.4330(4) -0.0529(4) 0.2122(3)
H3 H 0.4875 -0.1427 0.2793
C6 C 0.2572(5) -0.0848(5) 0.1174(3)
H4 H 0.1939 -0.1959 0.1214
C7 C 0.1761(4) 0.0456(6) 0.0179(3)
H5 H 0.0587 0.0223 -0.0460
C8 C 0.2669(4) 0.2096(6) 0.0121(3)
H6 H 0.2110 0.2988 -0.0551
C9 C 0.4424(4) 0.2434(5) 0.1065(2)
H7 H 0.5039 0.3555 0.1022
C10 C 0.6150(3) 0.4288(3) 0.4208(2)
C11 C 0.8877(3) 0.2506(4) 0.5585(2)
Cl1 Cl -0.08634(8) 0.75612(14) 0.66394(7)
N1 N 0.4995(3) 1.0349(4) 0.5800(3)
N2 N 0.0048(4) 0.7199(4) 0.3364(2)
C1 C 0.2810(3) 0.6373(3) 0.6918(2)
H1 H 0.2142 0.5197 0.6599
C2 C 0.1551(3) 0.7949(3) 0.6998(2)
H2 H 0.2091 0.8873 0.7731
C3 C 0.2396(3) 0.7938(3) 0.5770(2)
C4 C 0.4724(3) 0.6121(4) 0.7927(2)
C5 C 0.5670(4) 0.4471(4) 0.7878(3)
H3 H 0.5125 0.3573 0.7207
C6 C 0.7428(5) 0.4152(5) 0.8826(3)
H4 H 0.8061 0.3041 0.8786
C7 C 0.8239(4) 0.5456(6) 0.9821(3)
H5 H 0.9413 0.5223 1.0460
C8 C 0.7331(4) 0.7096(6) 0.9879(3)
H6 H 0.7890 0.7988 1.0551
C9 C 0.5576(4) 0.7434(5) 0.8935(2)
H7 H 0.4961 0.8555 0.8978
C10 C 0.3850(3) 0.9288(3) 0.5792(2)
C11 C 0.1123(3) 0.7506(4) 0.4415(2)

#END
