
#######################################################################
#
#                 Cambridge Crystallographic Data Centre
#                                CCDC 
#
#######################################################################
#
# If this CIF has been generated from an entry in the Cambridge 
# Structural Database, then it will include bibliographic, chemical, 
# crystal, experimental, refinement or atomic coordinate data resulting 
# from the CCDC's data processing and validation procedures.
#
#######################################################################

data_LABZAS
_symmetry_cell_setting           triclinic
_symmetry_space_group_name_H-M   'P -1'
_symmetry_Int_Tables_number      2
_space_group_name_Hall           '-P 1'
loop_
_symmetry_equiv_pos_site_id
_symmetry_equiv_pos_as_xyz
1 x,y,z
2 -x,-y,-z
_cell_length_a                   8.7580(18)
_cell_length_b                   9.0190(18)
_cell_length_c                   10.089(2)
_cell_angle_alpha                93.78(3)
_cell_angle_beta                 98.83(3)
_cell_angle_gamma                107.13(3)
_cell_volume                     747.306
loop_
_atom_site_label
_atom_site_type_symbol
_atom_site_fract_x
_atom_site_fract_y
_atom_site_fract_z
N1 N 0.4079(9) 0.1576(9) 0.3291(7)
Br1 Br 0.97404(13) 0.74526(12) 0.38823(10)
O1 O 0.4698(9) 0.1762(9) 0.8844(6)
C1 C 0.5328(10) 0.2992(9) 0.3260(8)
Br2 Br 0.71933(15) 0.42815(15) 0.79312(12)
O2 O 0.3062(7) 0.0128(8) 0.4909(6)
C2 C 0.5752(10) 0.3645(11) 0.2160(8)
H1 H 0.5196 0.3191 0.1299
C3 C 0.7070(11) 0.5042(11) 0.2349(9)
H2 H 0.7363 0.5547 0.1609
C4 C 0.7900(11) 0.5641(10) 0.3606(10)
C5 C 0.7441(10) 0.4934(11) 0.4728(8)
H3 H 0.8023 0.5361 0.5587
C6 C 0.6128(9) 0.3606(10) 0.4568(8)
C7 C 0.5340(9) 0.2599(10) 0.5512(8)
C8 C 0.4007(11) 0.1239(11) 0.4576(9)
C9 C 0.5557(10) 0.2718(10) 0.6859(8)
C10 C 0.4445(12) 0.1658(12) 0.7654(11)
H4 H 0.3524 0.0893 0.7182
C11 C 0.2877(11) 0.0645(11) 0.2096(8)
H5 H 0.3426 0.0592 0.1338
H6 H 0.2410 -0.0412 0.2301
C12 C 0.1559(10) 0.1343(10) 0.1718(9)
C13 C 0.0515(11) 0.1443(11) 0.2502(9)
H7 H 0.0648 0.1107 0.3351
C14 C -0.0754(11) 0.2013(12) 0.2140(9)
H8 H -0.1480 0.2037 0.2719
C15 C -0.0933(12) 0.2564(12) 0.0867(10)
H9 H -0.1749 0.3008 0.0607
C16 C 0.0092(12) 0.2438(11) 0.0037(9)
H10 H -0.0046 0.2760 -0.0818
C17 C 0.1303(12) 0.1860(11) 0.0418(9)
H11 H 0.1999 0.1791 -0.0177
N1 N 0.5921(9) 0.8424(9) 0.6709(7)
Br1 Br 0.02596(13) 0.25474(12) 0.61177(10)
O1 O 0.5302(9) 0.8238(9) 0.1156(6)
C1 C 0.4672(10) 0.7008(9) 0.6740(8)
Br2 Br 0.28067(15) 0.57185(15) 0.20688(12)
O2 O 0.6938(7) 0.9872(8) 0.5091(6)
C2 C 0.4248(10) 0.6355(11) 0.7840(8)
H1 H 0.4804 0.6809 0.8701
C3 C 0.2930(11) 0.4958(11) 0.7651(9)
H2 H 0.2637 0.4453 0.8391
C4 C 0.2100(11) 0.4359(10) 0.6394(10)
C5 C 0.2559(10) 0.5066(11) 0.5272(8)
H3 H 0.1977 0.4639 0.4413
C6 C 0.3872(9) 0.6394(10) 0.5432(8)
C7 C 0.4660(9) 0.7401(10) 0.4488(8)
C8 C 0.5993(11) 0.8761(11) 0.5424(9)
C9 C 0.4443(10) 0.7282(10) 0.3141(8)
C10 C 0.5555(12) 0.8342(12) 0.2346(11)
H4 H 0.6476 0.9107 0.2818
C11 C 0.7123(11) 0.9355(11) 0.7904(8)
H5 H 0.6574 0.9408 0.8662
H6 H 0.7590 1.0412 0.7699
C12 C 0.8441(10) 0.8657(10) 0.8282(9)
C13 C 0.9485(11) 0.8557(11) 0.7498(9)
H7 H 0.9352 0.8893 0.6649
C14 C 1.0754(11) 0.7987(12) 0.7860(9)
H8 H 1.1480 0.7963 0.7281
C15 C 1.0933(12) 0.7436(12) 0.9133(10)
H9 H 1.1749 0.6992 0.9393
C16 C 0.9908(12) 0.7562(11) 0.9963(9)
H10 H 1.0046 0.7240 1.0818
C17 C 0.8697(12) 0.8140(11) 0.9582(9)
H11 H 0.8001 0.8209 1.0177

#END
