
#######################################################################
#
#                 Cambridge Crystallographic Data Centre
#                                CCDC 
#
#######################################################################
#
# If this CIF has been generated from an entry in the Cambridge 
# Structural Database, then it will include bibliographic, chemical, 
# crystal, experimental, refinement or atomic coordinate data resulting 
# from the CCDC's data processing and validation procedures.
#
#######################################################################

data_LACBIA
_symmetry_cell_setting           triclinic
_symmetry_space_group_name_H-M   'P -1'
_symmetry_Int_Tables_number      2
_space_group_name_Hall           '-P 1'
loop_
_symmetry_equiv_pos_site_id
_symmetry_equiv_pos_as_xyz
1 x,y,z
2 -x,-y,-z
_cell_length_a                   6.843(3)
_cell_length_b                   6.997(3)
_cell_length_c                   9.837(4)
_cell_angle_alpha                89.72(3)
_cell_angle_beta                 87.78(4)
_cell_angle_gamma                75.69(4)
_cell_volume                     456.038
loop_
_atom_site_label
_atom_site_type_symbol
_atom_site_fract_x
_atom_site_fract_y
_atom_site_fract_z
O1 O 0.3658(2) 0.7037(2) 1.2406(1)
N1 N 0.1821(2) 0.7197(2) 0.6871(1)
N2 N 0.3420(2) 0.7261(2) 1.0993(1)
C1 C 0.3269(3) 0.7491(3) 0.5771(2)
C2 C -0.0284(3) 0.8387(2) 0.6658(2)
C3 C -0.1728(3) 0.7754(3) 0.7663(2)
C4 C -0.0938(3) 0.7508(2) 0.9062(2)
C5 C 0.0966(2) 0.7457(2) 0.9326(1)
C6 C 0.2515(2) 0.7597(2) 0.8236(1)
C7 C 0.1622(2) 0.7253(2) 1.0724(2)
H1 H 0.17538 0.59836 0.68797
H2 H 0.27434 0.71682 0.49311
H3 H 0.32163 0.89020 0.57907
H4 H 0.45756 0.65258 0.58986
H5 H -0.06149 0.8224 0.56943
H6 H -0.02814 0.97964 0.67930
H7 H -0.2996 0.87827 0.76879
H8 H -0.19636 0.65015 0.73137
H9 H -0.17560 0.72834 0.97788
H10 H 0.2773 0.89027 0.82291
H11 H 0.37649 0.65641 0.84029
H12 H 0.07515 0.71060 1.14066
H13 H 0.48604 0.71967 1.25382
O1 O 0.6342(2) 0.2963(2) -0.2406(1)
N1 N 0.8179(2) 0.2803(2) 0.3129(1)
N2 N 0.6580(2) 0.2739(2) -0.0993(1)
C1 C 0.6731(3) 0.2509(3) 0.4229(2)
C2 C 1.0284(3) 0.1613(2) 0.3342(2)
C3 C 1.1728(3) 0.2246(3) 0.2337(2)
C4 C 1.0938(3) 0.2492(2) 0.0938(2)
C5 C 0.9034(2) 0.2543(2) 0.0674(1)
C6 C 0.7485(2) 0.2403(2) 0.1764(1)
C7 C 0.8378(2) 0.2747(2) -0.0724(2)
H1 H 0.82462 0.40164 0.31203
H2 H 0.72566 0.28318 0.50689
H3 H 0.67837 0.10980 0.42093
H4 H 0.54244 0.34742 0.41014
H5 H 1.06149 0.1776 0.43057
H6 H 1.02814 0.02036 0.32070
H7 H 1.2996 0.12173 0.23121
H8 H 1.19636 0.34985 0.26863
H9 H 1.17560 0.27166 0.02212
H10 H 0.7227 0.10973 0.17709
H11 H 0.62351 0.34359 0.15971
H12 H 0.92485 0.28940 -0.14066
H13 H 0.51396 0.28033 -0.25382
Cl1 Cl 0.22435(6) 0.27513(5) 0.66177(4)
Cl1 Cl 0.77565(6) 0.72487(5) 0.33823(4)

#END
