./LACDAV_from_xyz.cif_generated_by_CrystalShift
_symmetry_cell_setting triclinic
_symmetry_space_group_name_H-M 'P 1'
loop_
_symmetry_equiv_pos_site_id
_symmetry_equiv_pos_as_xyz
1 x,y,z
_cell_length_a 5.786000
_cell_length_b 9.157000
_cell_length_c 11.801000
_cell_angle_alpha 104.360000
_cell_angle_beta 95.180000
_cell_angle_gamma 104.400000
_cell_volume 578.935947
loop_
_atom_site_label
_atom_site_type_symbol
_atom_site_fract_x
_atom_site_fract_y
_atom_site_fract_z
I1 I 0.360030 0.223440 0.467430
S2 S 0.229300 0.075480 0.125680
O3 O 0.980300 0.467100 0.320300
O4 O 1.095500 0.752100 0.310100
O5 O 0.825000 0.836100 0.219100
N6 N 0.613700 0.301800 0.228500
N7 N -0.103400 0.310200 0.003100
C8 C 0.474000 0.019500 0.196600
C9 C 0.665700 0.169300 0.268000
C10 C 0.396700 0.267700 0.159100
C11 C 0.327200 0.385000 0.121600
C12 C 0.484700 0.534500 0.153400
C13 C 0.709100 0.569500 0.219600
C14 C 0.782600 0.449400 0.260400
C15 C 0.684700 0.200300 0.401300
C16 C 0.088800 0.344700 0.053800
C17 C 0.877000 0.731100 0.249000
H18 H 1.095000 0.649000 0.318000
H19 H 0.410800 -0.046100 0.250100
H20 H 0.545500 -0.045400 0.134400
H21 H 0.828000 0.156500 0.251000
H22 H 0.433700 0.621000 0.127100
H23 H 0.722900 0.110300 0.426300
H24 H 0.822200 0.298600 0.442100
I25 I 0.639970 0.776560 0.532570
S26 S 0.770700 0.924520 0.874320
O27 O 0.019700 0.532900 0.679700
O28 O -0.095500 0.247900 0.689900
O29 O 0.175000 0.163900 0.780900
N30 N 0.386300 0.698200 0.771500
N31 N 1.103400 0.689800 0.996900
C32 C 0.526000 0.980500 0.803400
C33 C 0.334300 0.830700 0.732000
C34 C 0.603300 0.732300 0.840900
C35 C 0.672800 0.615000 0.878400
C36 C 0.515300 0.465500 0.846600
C37 C 0.290900 0.430500 0.780400
C38 C 0.217400 0.550600 0.739600
C39 C 0.315300 0.799700 0.598700
C40 C 0.911200 0.655300 0.946200
C41 C 0.123000 0.268900 0.751000
H42 H -0.095000 0.351000 0.682000
H43 H 0.589200 1.046100 0.749900
H44 H 0.454500 1.045400 0.865600
H45 H 0.172000 0.843500 0.749000
H46 H 0.566300 0.379000 0.872900
H47 H 0.277100 0.889700 0.573700
H48 H 0.177800 0.701400 0.557900

#END
