./LACGAA_from_xyz.cif_generated_by_CrystalShift
_symmetry_cell_setting triclinic
_symmetry_space_group_name_H-M 'P 1'
loop_
_symmetry_equiv_pos_site_id
_symmetry_equiv_pos_as_xyz
1 x,y,z
_cell_length_a 10.535000
_cell_length_b 13.002000
_cell_length_c 11.096100
_cell_angle_alpha 90.000000
_cell_angle_beta 96.168000
_cell_angle_gamma 90.000000
_cell_volume 1511.101649
loop_
_atom_site_label
_atom_site_type_symbol
_atom_site_fract_x
_atom_site_fract_y
_atom_site_fract_z
Zn1 Zn 0.731470 0.098160 0.260860
O2 O 1.110190 0.178440 0.595360
O3 O 0.752290 -0.054830 0.248920
H4 H 0.796300 -0.093300 0.300900
H5 H 0.721100 -0.091000 0.193800
O6 O 0.355440 0.182040 -0.074890
N7 N 0.818000 0.096310 0.444010
N8 N 0.932840 0.149190 0.452850
N9 N 0.649990 0.106160 0.077650
N10 N 0.890000 0.181500 0.250850
H11 H 0.915500 0.219100 0.189000
N12 N 0.527150 0.144980 0.071670
N13 N 1.075800 0.246900 0.357500
H14 H 1.122800 0.246900 0.427000
H15 H 1.103900 0.276300 0.291600
N16 N 0.555890 0.151130 0.278090
H17 H 0.519400 0.176100 0.343300
N18 N 0.365800 0.213300 0.174400
H19 H 0.322800 0.220300 0.104800
H20 H 0.345400 0.242700 0.248200
C21 C 0.967500 0.193700 0.347400
C22 C 0.702700 -0.012700 0.573100
H23 H 0.646000 -0.018000 0.499600
H24 H 0.658900 0.019000 0.634900
H25 H 0.730700 -0.080200 0.599100
C26 C 0.481800 0.170860 0.180400
C27 C 0.815500 0.050800 0.550700
C28 C 0.792800 0.042100 -0.063000
H29 H 0.849400 0.037300 0.010600
H30 H 0.829400 0.086700 -0.118900
H31 H 0.780300 -0.025100 -0.098200
C32 C 0.925500 0.072300 0.628400
H33 H 0.948400 0.044300 0.707400
C34 C 0.667600 0.084500 -0.035700
C35 C 1.002600 0.135260 0.566390
C36 C 0.559300 0.107300 -0.115300
H37 H 0.550200 0.100500 -0.202200
C38 C 0.468200 0.147190 -0.047500
Zn39 Zn 0.268530 0.598160 0.239140
O40 O -0.110190 0.678440 -0.095360
O41 O 0.247710 0.445170 0.251080
H42 H 0.203700 0.406700 0.199100
H43 H 0.278900 0.409000 0.306200
O44 O 0.644560 0.682040 0.574890
N45 N 0.182000 0.596310 0.055990
N46 N 0.067160 0.649190 0.047150
N47 N 0.350010 0.606160 0.422350
N48 N 0.110000 0.681500 0.249150
H49 H 0.084500 0.719100 0.311000
N50 N 0.472850 0.644980 0.428330
N51 N -0.075800 0.746900 0.142500
H52 H -0.122800 0.746900 0.073000
H53 H -0.103900 0.776300 0.208400
N54 N 0.444110 0.651130 0.221910
H55 H 0.480600 0.676100 0.156700
N56 N 0.634200 0.713300 0.325600
H57 H 0.677200 0.720300 0.395200
H58 H 0.654600 0.742700 0.251800
C59 C 0.032500 0.693700 0.152600
C60 C 0.297300 0.487300 -0.073100
H61 H 0.354000 0.482000 0.000400
H62 H 0.341100 0.519000 -0.134900
H63 H 0.269300 0.419800 -0.099100
C64 C 0.518200 0.670860 0.319600
C65 C 0.184500 0.550800 -0.050700
C66 C 0.207200 0.542100 0.563000
H67 H 0.150600 0.537300 0.489400
H68 H 0.170600 0.586700 0.618900
H69 H 0.219700 0.474900 0.598200
C70 C 0.074500 0.572300 -0.128400
H71 H 0.051600 0.544300 -0.207400
C72 C 0.332400 0.584500 0.535700
C73 C -0.002600 0.635260 -0.066390
C74 C 0.440700 0.607300 0.615300
H75 H 0.449800 0.600500 0.702200
C76 C 0.531800 0.647190 0.547500
Zn77 Zn 0.268530 0.901840 0.739140
O78 O -0.110190 0.821560 0.404640
O79 O 0.247710 1.054830 0.751080
H80 H 0.203700 1.093300 0.699100
H81 H 0.278900 1.091000 0.806200
O82 O 0.644560 0.817960 1.074890
N83 N 0.182000 0.903690 0.555990
N84 N 0.067160 0.850810 0.547150
N85 N 0.350010 0.893840 0.922350
N86 N 0.110000 0.818500 0.749150
H87 H 0.084500 0.780900 0.811000
N88 N 0.472850 0.855020 0.928330
N89 N -0.075800 0.753100 0.642500
H90 H -0.122800 0.753100 0.573000
H91 H -0.103900 0.723700 0.708400
N92 N 0.444110 0.848870 0.721910
H93 H 0.480600 0.823900 0.656700
N94 N 0.634200 0.786700 0.825600
H95 H 0.677200 0.779700 0.895200
H96 H 0.654600 0.757300 0.751800
C97 C 0.032500 0.806300 0.652600
C98 C 0.297300 1.012700 0.426900
H99 H 0.354000 1.018000 0.500400
H100 H 0.341100 0.981000 0.365100
H101 H 0.269300 1.080200 0.400900
C102 C 0.518200 0.829140 0.819600
C103 C 0.184500 0.949200 0.449300
C104 C 0.207200 0.957900 1.063000
H105 H 0.150600 0.962700 0.989400
H106 H 0.170600 0.913300 1.118900
H107 H 0.219700 1.025100 1.098200
C108 C 0.074500 0.927700 0.371600
H109 H 0.051600 0.955700 0.292600
C110 C 0.332400 0.915500 1.035700
C111 C -0.002600 0.864740 0.433610
C112 C 0.440700 0.892700 1.115300
H113 H 0.449800 0.899500 1.202200
C114 C 0.531800 0.852810 1.047500
Zn115 Zn 0.731470 0.401840 0.760860
O116 O 1.110190 0.321560 1.095360
O117 O 0.752290 0.554830 0.748920
H118 H 0.796300 0.593300 0.800900
H119 H 0.721100 0.591000 0.693800
O120 O 0.355440 0.317960 0.425110
N121 N 0.818000 0.403690 0.944010
N122 N 0.932840 0.350810 0.952850
N123 N 0.649990 0.393840 0.577650
N124 N 0.890000 0.318500 0.750850
H125 H 0.915500 0.280900 0.689000
N126 N 0.527150 0.355020 0.571670
N127 N 1.075800 0.253100 0.857500
H128 H 1.122800 0.253100 0.927000
H129 H 1.103900 0.223700 0.791600
N130 N 0.555890 0.348870 0.778090
H131 H 0.519400 0.323900 0.843300
N132 N 0.365800 0.286700 0.674400
H133 H 0.322800 0.279700 0.604800
H134 H 0.345400 0.257300 0.748200
C135 C 0.967500 0.306300 0.847400
C136 C 0.702700 0.512700 1.073100
H137 H 0.646000 0.518000 0.999600
H138 H 0.658900 0.481000 1.134900
H139 H 0.730700 0.580200 1.099100
C140 C 0.481800 0.329140 0.680400
C141 C 0.815500 0.449200 1.050700
C142 C 0.792800 0.457900 0.437000
H143 H 0.849400 0.462700 0.510600
H144 H 0.829400 0.413300 0.381100
H145 H 0.780300 0.525100 0.401800
C146 C 0.925500 0.427700 1.128400
H147 H 0.948400 0.455700 1.207400
C148 C 0.667600 0.415500 0.464300
C149 C 1.002600 0.364740 1.066390
C150 C 0.559300 0.392700 0.384700
H151 H 0.550200 0.399500 0.297800
C152 C 0.468200 0.352810 0.452500

#END
