./LACGUR_from_xyz.cif_generated_by_CrystalShift
_symmetry_cell_setting triclinic
_symmetry_space_group_name_H-M 'P 1'
loop_
_symmetry_equiv_pos_site_id
_symmetry_equiv_pos_as_xyz
1 x,y,z
_cell_length_a 4.829000
_cell_length_b 6.040000
_cell_length_c 14.047000
_cell_angle_alpha 97.730000
_cell_angle_beta 98.370000
_cell_angle_gamma 94.340000
_cell_volume 399.763281
loop_
_atom_site_label
_atom_site_type_symbol
_atom_site_fract_x
_atom_site_fract_y
_atom_site_fract_z
F1 F 0.859000 -0.573700 -0.426200
F2 F 0.898900 -0.904800 -0.401200
F3 F 0.496800 -0.786500 -0.425900
O4 O 0.779800 -0.673300 -0.290700
N5 N 0.080000 -0.085900 -0.017400
C6 C 0.755500 -0.734400 -0.383400
C7 C 0.606200 -0.519000 -0.249400
C8 C 0.520400 -0.338700 -0.292100
C9 C 0.358800 -0.194400 -0.242300
C10 C 0.287400 -0.229900 -0.154400
C11 C 0.375600 -0.417100 -0.114900
C12 C 0.535700 -0.560900 -0.163000
C13 C 0.125400 -0.072200 -0.103000
H14 H 0.568000 -0.303000 -0.353000
H15 H 0.290000 -0.056000 -0.276000
H16 H 0.319000 -0.454000 -0.064000
H17 H 0.577000 -0.685000 -0.137000
H18 H 0.079000 0.040000 -0.126000
N19 N -0.080000 0.085900 0.017400
C20 C -0.125400 0.072200 0.103000
C21 C -0.287400 0.229900 0.154400
H22 H -0.079000 -0.040000 0.126000
C23 C -0.358800 0.194400 0.242300
C24 C -0.375600 0.417100 0.114900
C25 C -0.520400 0.338700 0.292100
H26 H -0.290000 0.056000 0.276000
C27 C -0.535700 0.560900 0.163000
H28 H -0.319000 0.454000 0.064000
C29 C -0.606200 0.519000 0.249400
H30 H -0.568000 0.303000 0.353000
H31 H -0.577000 0.685000 0.137000
O32 O -0.779800 0.673300 0.290700
C33 C -0.755500 0.734400 0.383400
F34 F -0.859000 0.573700 0.426200
F35 F -0.898900 0.904800 0.401200
F36 F -0.496800 0.786500 0.425900
F37 F 0.859000 -0.573700 0.573800
F38 F 0.898900 -0.904800 0.598800
F39 F 0.496800 -0.786500 0.574100
O40 O 0.779800 -0.673300 0.709300
N41 N 0.080000 -0.085900 0.982600
C42 C 0.755500 -0.734400 0.616600
C43 C 0.606200 -0.519000 0.750600
C44 C 0.520400 -0.338700 0.707900
C45 C 0.358800 -0.194400 0.757700
C46 C 0.287400 -0.229900 0.845600
C47 C 0.375600 -0.417100 0.885100
C48 C 0.535700 -0.560900 0.837000
C49 C 0.125400 -0.072200 0.897000
H50 H 0.568000 -0.303000 0.647000
H51 H 0.290000 -0.056000 0.724000
H52 H 0.319000 -0.454000 0.936000
H53 H 0.577000 -0.685000 0.863000
H54 H 0.079000 0.040000 0.874000
N55 N -0.080000 0.085900 1.017400
C56 C -0.125400 0.072200 1.103000
C57 C -0.287400 0.229900 1.154400
H58 H -0.079000 -0.040000 1.126000
C59 C -0.358800 0.194400 1.242300
C60 C -0.375600 0.417100 1.114900
C61 C -0.520400 0.338700 1.292100
H62 H -0.290000 0.056000 1.276000
C63 C -0.535700 0.560900 1.163000
H64 H -0.319000 0.454000 1.064000
C65 C -0.606200 0.519000 1.249400
H66 H -0.568000 0.303000 1.353000
H67 H -0.577000 0.685000 1.137000
O68 O -0.779800 0.673300 1.290700
C69 C -0.755500 0.734400 1.383400
F70 F -0.859000 0.573700 1.426200
F71 F -0.898900 0.904800 1.401200
F72 F -0.496800 0.786500 1.425900
F73 F 0.859000 0.426300 -0.426200
F74 F 0.898900 0.095200 -0.401200
F75 F 0.496800 0.213500 -0.425900
O76 O 0.779800 0.326700 -0.290700
N77 N 0.080000 0.914100 -0.017400
C78 C 0.755500 0.265600 -0.383400
C79 C 0.606200 0.481000 -0.249400
C80 C 0.520400 0.661300 -0.292100
C81 C 0.358800 0.805600 -0.242300
C82 C 0.287400 0.770100 -0.154400
C83 C 0.375600 0.582900 -0.114900
C84 C 0.535700 0.439100 -0.163000
C85 C 0.125400 0.927800 -0.103000
H86 H 0.568000 0.697000 -0.353000
H87 H 0.290000 0.944000 -0.276000
H88 H 0.319000 0.546000 -0.064000
H89 H 0.577000 0.315000 -0.137000
H90 H 0.079000 1.040000 -0.126000
N91 N -0.080000 1.085900 0.017400
C92 C -0.125400 1.072200 0.103000
C93 C -0.287400 1.229900 0.154400
H94 H -0.079000 0.960000 0.126000
C95 C -0.358800 1.194400 0.242300
C96 C -0.375600 1.417100 0.114900
C97 C -0.520400 1.338700 0.292100
H98 H -0.290000 1.056000 0.276000
C99 C -0.535700 1.560900 0.163000
H100 H -0.319000 1.454000 0.064000
C101 C -0.606200 1.519000 0.249400
H102 H -0.568000 1.303000 0.353000
H103 H -0.577000 1.685000 0.137000
O104 O -0.779800 1.673300 0.290700
C105 C -0.755500 1.734400 0.383400
F106 F -0.859000 1.573700 0.426200
F107 F -0.898900 1.904800 0.401200
F108 F -0.496800 1.786500 0.425900
F109 F 0.859000 0.426300 0.573800
F110 F 0.898900 0.095200 0.598800
F111 F 0.496800 0.213500 0.574100
O112 O 0.779800 0.326700 0.709300
N113 N 0.080000 0.914100 0.982600
C114 C 0.755500 0.265600 0.616600
C115 C 0.606200 0.481000 0.750600
C116 C 0.520400 0.661300 0.707900
C117 C 0.358800 0.805600 0.757700
C118 C 0.287400 0.770100 0.845600
C119 C 0.375600 0.582900 0.885100
C120 C 0.535700 0.439100 0.837000
C121 C 0.125400 0.927800 0.897000
H122 H 0.568000 0.697000 0.647000
H123 H 0.290000 0.944000 0.724000
H124 H 0.319000 0.546000 0.936000
H125 H 0.577000 0.315000 0.863000
H126 H 0.079000 1.040000 0.874000
N127 N -0.080000 1.085900 1.017400
C128 C -0.125400 1.072200 1.103000
C129 C -0.287400 1.229900 1.154400
H130 H -0.079000 0.960000 1.126000
C131 C -0.358800 1.194400 1.242300
C132 C -0.375600 1.417100 1.114900
C133 C -0.520400 1.338700 1.292100
H134 H -0.290000 1.056000 1.276000
C135 C -0.535700 1.560900 1.163000
H136 H -0.319000 1.454000 1.064000
C137 C -0.606200 1.519000 1.249400
H138 H -0.568000 1.303000 1.353000
H139 H -0.577000 1.685000 1.137000
O140 O -0.779800 1.673300 1.290700
C141 C -0.755500 1.734400 1.383400
F142 F -0.859000 1.573700 1.426200
F143 F -0.898900 1.904800 1.401200
F144 F -0.496800 1.786500 1.425900
F145 F 1.859000 -0.573700 -0.426200
F146 F 1.898900 -0.904800 -0.401200
F147 F 1.496800 -0.786500 -0.425900
O148 O 1.779800 -0.673300 -0.290700
N149 N 1.080000 -0.085900 -0.017400
C150 C 1.755500 -0.734400 -0.383400
C151 C 1.606200 -0.519000 -0.249400
C152 C 1.520400 -0.338700 -0.292100
C153 C 1.358800 -0.194400 -0.242300
C154 C 1.287400 -0.229900 -0.154400
C155 C 1.375600 -0.417100 -0.114900
C156 C 1.535700 -0.560900 -0.163000
C157 C 1.125400 -0.072200 -0.103000
H158 H 1.568000 -0.303000 -0.353000
H159 H 1.290000 -0.056000 -0.276000
H160 H 1.319000 -0.454000 -0.064000
H161 H 1.577000 -0.685000 -0.137000
H162 H 1.079000 0.040000 -0.126000
N163 N 0.920000 0.085900 0.017400
C164 C 0.874600 0.072200 0.103000
C165 C 0.712600 0.229900 0.154400
H166 H 0.921000 -0.040000 0.126000
C167 C 0.641200 0.194400 0.242300
C168 C 0.624400 0.417100 0.114900
C169 C 0.479600 0.338700 0.292100
H170 H 0.710000 0.056000 0.276000
C171 C 0.464300 0.560900 0.163000
H172 H 0.681000 0.454000 0.064000
C173 C 0.393800 0.519000 0.249400
H174 H 0.432000 0.303000 0.353000
H175 H 0.423000 0.685000 0.137000
O176 O 0.220200 0.673300 0.290700
C177 C 0.244500 0.734400 0.383400
F178 F 0.141000 0.573700 0.426200
F179 F 0.101100 0.904800 0.401200
F180 F 0.503200 0.786500 0.425900
F181 F 1.859000 -0.573700 0.573800
F182 F 1.898900 -0.904800 0.598800
F183 F 1.496800 -0.786500 0.574100
O184 O 1.779800 -0.673300 0.709300
N185 N 1.080000 -0.085900 0.982600
C186 C 1.755500 -0.734400 0.616600
C187 C 1.606200 -0.519000 0.750600
C188 C 1.520400 -0.338700 0.707900
C189 C 1.358800 -0.194400 0.757700
C190 C 1.287400 -0.229900 0.845600
C191 C 1.375600 -0.417100 0.885100
C192 C 1.535700 -0.560900 0.837000
C193 C 1.125400 -0.072200 0.897000
H194 H 1.568000 -0.303000 0.647000
H195 H 1.290000 -0.056000 0.724000
H196 H 1.319000 -0.454000 0.936000
H197 H 1.577000 -0.685000 0.863000
H198 H 1.079000 0.040000 0.874000
N199 N 0.920000 0.085900 1.017400
C200 C 0.874600 0.072200 1.103000
C201 C 0.712600 0.229900 1.154400
H202 H 0.921000 -0.040000 1.126000
C203 C 0.641200 0.194400 1.242300
C204 C 0.624400 0.417100 1.114900
C205 C 0.479600 0.338700 1.292100
H206 H 0.710000 0.056000 1.276000
C207 C 0.464300 0.560900 1.163000
H208 H 0.681000 0.454000 1.064000
C209 C 0.393800 0.519000 1.249400
H210 H 0.432000 0.303000 1.353000
H211 H 0.423000 0.685000 1.137000
O212 O 0.220200 0.673300 1.290700
C213 C 0.244500 0.734400 1.383400
F214 F 0.141000 0.573700 1.426200
F215 F 0.101100 0.904800 1.401200
F216 F 0.503200 0.786500 1.425900
F217 F 1.859000 0.426300 -0.426200
F218 F 1.898900 0.095200 -0.401200
F219 F 1.496800 0.213500 -0.425900
O220 O 1.779800 0.326700 -0.290700
N221 N 1.080000 0.914100 -0.017400
C222 C 1.755500 0.265600 -0.383400
C223 C 1.606200 0.481000 -0.249400
C224 C 1.520400 0.661300 -0.292100
C225 C 1.358800 0.805600 -0.242300
C226 C 1.287400 0.770100 -0.154400
C227 C 1.375600 0.582900 -0.114900
C228 C 1.535700 0.439100 -0.163000
C229 C 1.125400 0.927800 -0.103000
H230 H 1.568000 0.697000 -0.353000
H231 H 1.290000 0.944000 -0.276000
H232 H 1.319000 0.546000 -0.064000
H233 H 1.577000 0.315000 -0.137000
H234 H 1.079000 1.040000 -0.126000
N235 N 0.920000 1.085900 0.017400
C236 C 0.874600 1.072200 0.103000
C237 C 0.712600 1.229900 0.154400
H238 H 0.921000 0.960000 0.126000
C239 C 0.641200 1.194400 0.242300
C240 C 0.624400 1.417100 0.114900
C241 C 0.479600 1.338700 0.292100
H242 H 0.710000 1.056000 0.276000
C243 C 0.464300 1.560900 0.163000
H244 H 0.681000 1.454000 0.064000
C245 C 0.393800 1.519000 0.249400
H246 H 0.432000 1.303000 0.353000
H247 H 0.423000 1.685000 0.137000
O248 O 0.220200 1.673300 0.290700
C249 C 0.244500 1.734400 0.383400
F250 F 0.141000 1.573700 0.426200
F251 F 0.101100 1.904800 0.401200
F252 F 0.503200 1.786500 0.425900
F253 F 1.859000 0.426300 0.573800
F254 F 1.898900 0.095200 0.598800
F255 F 1.496800 0.213500 0.574100
O256 O 1.779800 0.326700 0.709300
N257 N 1.080000 0.914100 0.982600
C258 C 1.755500 0.265600 0.616600
C259 C 1.606200 0.481000 0.750600
C260 C 1.520400 0.661300 0.707900
C261 C 1.358800 0.805600 0.757700
C262 C 1.287400 0.770100 0.845600
C263 C 1.375600 0.582900 0.885100
C264 C 1.535700 0.439100 0.837000
C265 C 1.125400 0.927800 0.897000
H266 H 1.568000 0.697000 0.647000
H267 H 1.290000 0.944000 0.724000
H268 H 1.319000 0.546000 0.936000
H269 H 1.577000 0.315000 0.863000
H270 H 1.079000 1.040000 0.874000
N271 N 0.920000 1.085900 1.017400
C272 C 0.874600 1.072200 1.103000
C273 C 0.712600 1.229900 1.154400
H274 H 0.921000 0.960000 1.126000
C275 C 0.641200 1.194400 1.242300
C276 C 0.624400 1.417100 1.114900
C277 C 0.479600 1.338700 1.292100
H278 H 0.710000 1.056000 1.276000
C279 C 0.464300 1.560900 1.163000
H280 H 0.681000 1.454000 1.064000
C281 C 0.393800 1.519000 1.249400
H282 H 0.432000 1.303000 1.353000
H283 H 0.423000 1.685000 1.137000
O284 O 0.220200 1.673300 1.290700
C285 C 0.244500 1.734400 1.383400
F286 F 0.141000 1.573700 1.426200
F287 F 0.101100 1.904800 1.401200
F288 F 0.503200 1.786500 1.425900

#END
