./LACHUS_from_xyz.cif_generated_by_CrystalShift
_symmetry_cell_setting triclinic
_symmetry_space_group_name_H-M 'P 1'
loop_
_symmetry_equiv_pos_site_id
_symmetry_equiv_pos_as_xyz
1 x,y,z
_cell_length_a 9.517000
_cell_length_b 6.238000
_cell_length_c 9.273000
_cell_angle_alpha 90.000000
_cell_angle_beta 105.920000
_cell_angle_gamma 90.000000
_cell_volume 529.396134
loop_
_atom_site_label
_atom_site_type_symbol
_atom_site_fract_x
_atom_site_fract_y
_atom_site_fract_z
Cl1 Cl 0.269500 0.614600 0.458400
Cl2 Cl 0.049400 0.290900 0.368200
O3 O 0.355200 0.150300 0.380200
N4 N 0.400800 0.123600 0.630200
C5 C 0.329600 0.200100 0.499300
C6 C 0.211200 0.361300 0.501200
H7 H 0.373000 0.160000 0.707000
H8 H 0.480000 0.052000 0.643000
H9 H 0.188000 0.368000 0.603000
Cl10 Cl 0.730500 1.114600 1.041600
Cl11 Cl 0.950600 0.790900 1.131800
O12 O 0.644800 0.650300 1.119800
N13 N 0.599200 0.623600 0.869800
C14 C 0.670400 0.700100 1.000700
C15 C 0.788800 0.861300 0.998800
H16 H 0.627000 0.660000 0.793000
H17 H 0.520000 0.552000 0.857000
H18 H 0.812000 0.868000 0.897000
Cl19 Cl 0.730500 0.385400 0.541600
Cl20 Cl 0.950600 0.709100 0.631800
O21 O 0.644800 0.849700 0.619800
N22 N 0.599200 0.876400 0.369800
C23 C 0.670400 0.799900 0.500700
C24 C 0.788800 0.638700 0.498800
H25 H 0.627000 0.840000 0.293000
H26 H 0.520000 0.948000 0.357000
H27 H 0.812000 0.632000 0.397000
Cl28 Cl 0.269500 -0.114600 -0.041600
Cl29 Cl 0.049400 0.209100 -0.131800
O30 O 0.355200 0.349700 -0.119800
N31 N 0.400800 0.376400 0.130200
C32 C 0.329600 0.299900 -0.000700
C33 C 0.211200 0.138700 0.001200
H34 H 0.373000 0.340000 0.207000
H35 H 0.480000 0.448000 0.143000
H36 H 0.188000 0.132000 0.103000

#END
