./LACLAC_from_xyz.cif_generated_by_CrystalShift
_symmetry_cell_setting triclinic
_symmetry_space_group_name_H-M 'P 1'
loop_
_symmetry_equiv_pos_site_id
_symmetry_equiv_pos_as_xyz
1 x,y,z
_cell_length_a 13.499000
_cell_length_b 6.289000
_cell_length_c 11.151000
_cell_angle_alpha 90.000000
_cell_angle_beta 93.500000
_cell_angle_gamma 90.000000
_cell_volume 944.900762
loop_
_atom_site_label
_atom_site_type_symbol
_atom_site_fract_x
_atom_site_fract_y
_atom_site_fract_z
O1 O 0.091200 1.293700 0.166400
O2 O 0.237400 1.432200 0.166200
O3 O 0.507600 0.797700 0.436900
O4 O 0.509900 0.975900 0.273700
O5 O 0.102000 0.495500 0.400900
N6 N 0.179900 1.294100 0.195300
N7 N 0.465200 0.895600 0.354700
N8 N 0.075700 0.740600 0.542400
C9 C 0.320600 1.090700 0.281900
C10 C 0.155200 0.985500 0.326400
C11 C 0.194100 0.816800 0.394200
C12 C 0.219900 1.119100 0.271100
C13 C 0.356800 0.920500 0.349800
C14 C 0.296500 0.777200 0.408100
C15 C 0.120600 0.668500 0.447800
C16 C 0.334700 0.589100 0.479700
H17 H 0.088000 0.867000 0.573000
H18 H 0.016000 0.661000 0.569000
H19 H 0.363000 1.184000 0.245000
H20 H 0.080000 1.007000 0.316000
H21 H 0.388000 0.511000 0.443000
H22 H 0.372000 0.662000 0.549000
H23 H 0.282000 0.498000 0.494000
O24 O 0.908800 0.793700 0.333600
O25 O 0.762600 0.932200 0.333800
O26 O 0.492400 0.297700 0.063100
O27 O 0.490100 0.475900 0.226300
O28 O 0.898000 -0.004500 0.099100
N29 N 0.820100 0.794100 0.304700
N30 N 0.534800 0.395600 0.145300
N31 N 0.924300 0.240600 -0.042400
C32 C 0.679400 0.590700 0.218100
C33 C 0.844800 0.485500 0.173600
C34 C 0.805900 0.316800 0.105800
C35 C 0.780100 0.619100 0.228900
C36 C 0.643200 0.420500 0.150200
C37 C 0.703500 0.277200 0.091900
C38 C 0.879400 0.168500 0.052200
C39 C 0.665300 0.089100 0.020300
H40 H 0.912000 0.367000 -0.073000
H41 H 0.984000 0.161000 -0.069000
H42 H 0.637000 0.684000 0.255000
H43 H 0.920000 0.507000 0.184000
H44 H 0.612000 0.011000 0.057000
H45 H 0.628000 0.162000 -0.049000
H46 H 0.718000 -0.002000 0.006000
O47 O 0.908800 -0.293700 0.833600
O48 O 0.762600 -0.432200 0.833800
O49 O 0.492400 0.202300 0.563100
O50 O 0.490100 0.024100 0.726300
O51 O 0.898000 0.504500 0.599100
N52 N 0.820100 -0.294100 0.804700
N53 N 0.534800 0.104400 0.645300
N54 N 0.924300 0.259400 0.457600
C55 C 0.679400 -0.090700 0.718100
C56 C 0.844800 0.014500 0.673600
C57 C 0.805900 0.183200 0.605800
C58 C 0.780100 -0.119100 0.728900
C59 C 0.643200 0.079500 0.650200
C60 C 0.703500 0.222800 0.591900
C61 C 0.879400 0.331500 0.552200
C62 C 0.665300 0.410900 0.520300
H63 H 0.912000 0.133000 0.427000
H64 H 0.984000 0.339000 0.431000
H65 H 0.637000 -0.184000 0.755000
H66 H 0.920000 -0.007000 0.684000
H67 H 0.612000 0.489000 0.557000
H68 H 0.628000 0.338000 0.451000
H69 H 0.718000 0.502000 0.506000
O70 O 0.091200 0.206300 0.666400
O71 O 0.237400 0.067800 0.666200
O72 O 0.507600 0.702300 0.936900
O73 O 0.509900 0.524100 0.773700
O74 O 0.102000 1.004500 0.900900
N75 N 0.179900 0.205900 0.695300
N76 N 0.465200 0.604400 0.854700
N77 N 0.075700 0.759400 1.042400
C78 C 0.320600 0.409300 0.781900
C79 C 0.155200 0.514500 0.826400
C80 C 0.194100 0.683200 0.894200
C81 C 0.219900 0.380900 0.771100
C82 C 0.356800 0.579500 0.849800
C83 C 0.296500 0.722800 0.908100
C84 C 0.120600 0.831500 0.947800
C85 C 0.334700 0.910900 0.979700
H86 H 0.088000 0.633000 1.073000
H87 H 0.016000 0.839000 1.069000
H88 H 0.363000 0.316000 0.745000
H89 H 0.080000 0.493000 0.816000
H90 H 0.388000 0.989000 0.943000
H91 H 0.372000 0.838000 1.049000
H92 H 0.282000 1.002000 0.994000

#END
