./LACROZ_from_xyz.cif_generated_by_CrystalShift
_symmetry_cell_setting triclinic
_symmetry_space_group_name_H-M 'P 1'
loop_
_symmetry_equiv_pos_site_id
_symmetry_equiv_pos_as_xyz
1 x,y,z
_cell_length_a 15.320300
_cell_length_b 15.592500
_cell_length_c 19.831500
_cell_angle_alpha 87.283800
_cell_angle_beta 81.255400
_cell_angle_gamma 82.760400
_cell_volume 4643.062114
loop_
_atom_site_label
_atom_site_type_symbol
_atom_site_fract_x
_atom_site_fract_y
_atom_site_fract_z
Br1 Br 0.684460 0.933500 0.287640
Br2 Br 0.053530 0.797640 0.540770
Br3 Br 0.860320 0.028910 -0.067890
Br4 Br 0.285010 -0.166820 0.218570
N5 N 0.402840 0.687430 0.358490
N6 N 0.539890 0.105880 0.152380
C7 C 0.457530 0.438460 0.272960
C8 C 0.520270 0.473030 0.304560
H9 H 0.576300 0.440000 0.307000
C10 C 0.502630 0.554580 0.332600
H11 H 0.546500 0.576600 0.353700
C12 C 0.421020 0.603910 0.329850
C13 C 0.357720 0.570420 0.298740
H14 H 0.301600 0.603300 0.296600
C15 C 0.376400 0.488770 0.270700
H16 H 0.332500 0.466900 0.249500
C17 C 0.478480 0.352510 0.241370
C18 C 0.566330 0.316520 0.221570
H19 H 0.613300 0.348600 0.227400
C20 C 0.586980 0.235250 0.193650
H21 H 0.647400 0.211400 0.182600
C22 C 0.519250 0.188330 0.181730
C23 C 0.431120 0.224080 0.199780
H24 H 0.384200 0.193300 0.191600
C25 C 0.411320 0.304280 0.229670
H26 H 0.350800 0.327000 0.242500
C27 C 0.468360 0.745380 0.341830
C28 C 0.489970 0.795910 0.392380
H29 H 0.461200 0.791200 0.438100
C30 C 0.553220 0.852640 0.375580
H31 H 0.567200 0.887600 0.409500
C32 C 0.595840 0.857890 0.309150
C33 C 0.575900 0.808200 0.258300
H34 H 0.605800 0.812300 0.212900
C35 C 0.511170 0.752370 0.275310
H36 H 0.496200 0.718700 0.241000
C37 C 0.321710 0.712160 0.399460
C38 C 0.287780 0.799940 0.406570
H39 H 0.319800 0.843000 0.382400
C40 C 0.208730 0.824430 0.448090
H41 H 0.186700 0.883900 0.452600
C42 C 0.161520 0.761970 0.483260
C43 C 0.192220 0.674590 0.476690
H44 H 0.158900 0.632000 0.500200
C45 C 0.272080 0.650480 0.435330
H46 H 0.293700 0.590800 0.431200
C47 C 0.614250 0.088680 0.101310
C48 C 0.664800 0.007530 0.099390
H49 H 0.649000 -0.036100 0.132500
C50 C 0.737900 -0.009650 0.049500
H51 H 0.772300 -0.064800 0.048300
C52 C 0.760300 0.053900 0.001610
C53 C 0.711200 0.135190 0.002120
H54 H 0.727400 0.178400 -0.031200
C55 C 0.638100 0.151910 0.052090
H56 H 0.603800 0.207100 0.052900
C57 C 0.479380 0.043330 0.168510
C58 C 0.445500 0.024580 0.235970
H59 H 0.463000 0.053900 0.271700
C60 C 0.386300 -0.036450 0.251670
H61 H 0.362500 -0.048600 0.297700
C62 C 0.362700 -0.079510 0.198500
C63 C 0.394700 -0.061080 0.131660
H64 H 0.376900 -0.090500 0.096100
C65 C 0.452900 0.000580 0.116220
H66 H 0.474900 0.013800 0.070000
Br67 Br 0.315540 0.066500 0.712360
Br68 Br 0.946470 0.202360 0.459230
Br69 Br 0.139680 0.971090 1.067890
Br70 Br 0.714990 1.166820 0.781430
N71 N 0.597160 0.312570 0.641510
N72 N 0.460110 0.894120 0.847620
C73 C 0.542470 0.561540 0.727040
C74 C 0.479730 0.526970 0.695440
H75 H 0.423700 0.560000 0.693000
C76 C 0.497370 0.445420 0.667400
H77 H 0.453500 0.423400 0.646300
C78 C 0.578980 0.396090 0.670150
C79 C 0.642280 0.429580 0.701260
H80 H 0.698400 0.396700 0.703400
C81 C 0.623600 0.511230 0.729300
H82 H 0.667500 0.533100 0.750500
C83 C 0.521520 0.647490 0.758630
C84 C 0.433670 0.683480 0.778430
H85 H 0.386700 0.651400 0.772600
C86 C 0.413020 0.764750 0.806350
H87 H 0.352600 0.788600 0.817400
C88 C 0.480750 0.811670 0.818270
C89 C 0.568880 0.775920 0.800220
H90 H 0.615800 0.806700 0.808400
C91 C 0.588680 0.695720 0.770330
H92 H 0.649200 0.673000 0.757500
C93 C 0.531640 0.254620 0.658170
C94 C 0.510030 0.204090 0.607620
H95 H 0.538800 0.208800 0.561900
C96 C 0.446780 0.147360 0.624420
H97 H 0.432800 0.112400 0.590500
C98 C 0.404160 0.142110 0.690850
C99 C 0.424100 0.191800 0.741700
H100 H 0.394200 0.187700 0.787100
C101 C 0.488830 0.247630 0.724690
H102 H 0.503800 0.281300 0.759000
C103 C 0.678290 0.287840 0.600540
C104 C 0.712220 0.200060 0.593430
H105 H 0.680200 0.157000 0.617600
C106 C 0.791270 0.175570 0.551910
H107 H 0.813300 0.116100 0.547400
C108 C 0.838480 0.238030 0.516740
C109 C 0.807780 0.325410 0.523310
H110 H 0.841100 0.368000 0.499800
C111 C 0.727920 0.349520 0.564670
H112 H 0.706300 0.409200 0.568800
C113 C 0.385750 0.911320 0.898690
C114 C 0.335200 0.992470 0.900610
H115 H 0.351000 1.036100 0.867500
C116 C 0.262100 1.009650 0.950500
H117 H 0.227700 1.064800 0.951700
C118 C 0.239700 0.946100 0.998390
C119 C 0.288800 0.864810 0.997880
H120 H 0.272600 0.821600 1.031200
C121 C 0.361900 0.848090 0.947910
H122 H 0.396200 0.792900 0.947100
C123 C 0.520620 0.956670 0.831490
C124 C 0.554500 0.975420 0.764030
H125 H 0.537000 0.946100 0.728300
C126 C 0.613700 1.036450 0.748330
H127 H 0.637500 1.048600 0.702300
C128 C 0.637300 1.079510 0.801500
C129 C 0.605300 1.061080 0.868340
H130 H 0.623100 1.090500 0.903900
C131 C 0.547100 0.999420 0.883780
H132 H 0.525100 0.986200 0.930000
Br133 Br -0.379880 0.975290 0.539910
Br134 Br 0.232240 1.168340 0.309980
Br135 Br -0.173240 0.076590 0.218730
Br136 Br 0.447150 0.189320 -0.045417
N137 N -0.029820 0.900880 0.348980
N138 N 0.112920 0.317280 0.146660
C139 C 0.034510 0.658050 0.253820
C140 C -0.047400 0.706000 0.254500
H141 H -0.091000 0.683300 0.233500
C142 C -0.069100 0.785900 0.284300
H143 H -0.126200 0.817100 0.282700
C144 C -0.008170 0.820300 0.316240
C145 C 0.074800 0.774400 0.315800
H146 H 0.118300 0.797400 0.336800
C147 C 0.095400 0.694800 0.284800
H148 H 0.153300 0.664500 0.284900
C149 C 0.056180 0.571910 0.222760
C150 C -0.007530 0.531760 0.196720
H151 H -0.065500 0.561700 0.196800
C152 C 0.011640 0.449300 0.170760
H153 H -0.033000 0.424300 0.152800
C154 C 0.094840 0.403100 0.170690
C155 C 0.160170 0.442460 0.195080
H156 H 0.218200 0.412500 0.194500
C157 C 0.140600 0.525650 0.220230
H158 H 0.186200 0.551700 0.236200
C159 C -0.110520 0.917510 0.393630
C160 C -0.154220 1.001700 0.400200
H161 H -0.129100 1.048000 0.374700
C162 C -0.233810 1.018060 0.443590
H163 H -0.262900 1.075500 0.448100
C164 C -0.270500 0.951260 0.479950
C165 C -0.228800 0.866960 0.474010
H166 H -0.255100 0.820900 0.499000
C167 C -0.148900 0.850770 0.431500
H168 H -0.119600 0.793300 0.428000
C169 C 0.033190 0.961210 0.339650
C170 C 0.053010 1.001520 0.395920
H171 H 0.025200 0.987400 0.440500
C172 C 0.113130 1.062140 0.387100
H173 H 0.126200 1.089900 0.425400
C174 C 0.153500 1.081610 0.322300
C175 C 0.137000 1.040700 0.266000
H176 H 0.166700 1.053500 0.221700
C177 C 0.076100 0.980420 0.275260
H178 H 0.063900 0.952200 0.236900
C179 C 0.046890 0.260210 0.164230
C180 C 0.024480 0.210010 0.114070
H181 H 0.053200 0.214300 0.068300
C182 C -0.039310 0.154220 0.131040
H183 H -0.053700 0.119400 0.097200
C184 C -0.081950 0.149370 0.197290
C185 C -0.060700 0.198590 0.248120
H186 H -0.090200 0.194600 0.293700
C187 C 0.004500 0.253730 0.230800
H188 H 0.020100 0.287200 0.265000
C189 C 0.193360 0.289570 0.105020
C190 C 0.241980 0.348020 0.063780
H191 H 0.221800 0.408200 0.065300
C192 C 0.318990 0.319080 0.020960
H193 H 0.352300 0.359000 -0.006200
C194 C 0.346880 0.230930 0.018150
C195 C 0.301820 0.172040 0.059140
H196 H 0.322700 0.112100 0.057300
C197 C 0.225870 0.201190 0.102940
H198 H 0.195300 0.161000 0.132000
Br199 Br 1.379880 0.024710 0.460090
Br200 Br 0.767760 -0.168340 0.690020
Br201 Br 1.173240 0.923410 0.781270
Br202 Br 0.552850 0.810680 1.045417
N203 N 1.029820 0.099120 0.651020
N204 N 0.887080 0.682720 0.853340
C205 C 0.965490 0.341950 0.746180
C206 C 1.047400 0.294000 0.745500
H207 H 1.091000 0.316700 0.766500
C208 C 1.069100 0.214100 0.715700
H209 H 1.126200 0.182900 0.717300
C210 C 1.008170 0.179700 0.683760
C211 C 0.925200 0.225600 0.684200
H212 H 0.881700 0.202600 0.663200
C213 C 0.904600 0.305200 0.715200
H214 H 0.846700 0.335500 0.715100
C215 C 0.943820 0.428090 0.777240
C216 C 1.007530 0.468240 0.803280
H217 H 1.065500 0.438300 0.803200
C218 C 0.988360 0.550700 0.829240
H219 H 1.033000 0.575700 0.847200
C220 C 0.905160 0.596900 0.829310
C221 C 0.839830 0.557540 0.804920
H222 H 0.781800 0.587500 0.805500
C223 C 0.859400 0.474350 0.779770
H224 H 0.813800 0.448300 0.763800
C225 C 1.110520 0.082490 0.606370
C226 C 1.154220 -0.001700 0.599800
H227 H 1.129100 -0.048000 0.625300
C228 C 1.233810 -0.018060 0.556410
H229 H 1.262900 -0.075500 0.551900
C230 C 1.270500 0.048740 0.520050
C231 C 1.228800 0.133040 0.525990
H232 H 1.255100 0.179100 0.501000
C233 C 1.148900 0.149230 0.568500
H234 H 1.119600 0.206700 0.572000
C235 C 0.966810 0.038790 0.660350
C236 C 0.946990 -0.001520 0.604080
H237 H 0.974800 0.012600 0.559500
C238 C 0.886870 -0.062140 0.612900
H239 H 0.873800 -0.089900 0.574600
C240 C 0.846500 -0.081610 0.677700
C241 C 0.863000 -0.040700 0.734000
H242 H 0.833300 -0.053500 0.778300
C243 C 0.923900 0.019580 0.724740
H244 H 0.936100 0.047800 0.763100
C245 C 0.953110 0.739790 0.835770
C246 C 0.975520 0.789990 0.885930
H247 H 0.946800 0.785700 0.931700
C248 C 1.039310 0.845780 0.868960
H249 H 1.053700 0.880600 0.902800
C250 C 1.081950 0.850630 0.802710
C251 C 1.060700 0.801410 0.751880
H252 H 1.090200 0.805400 0.706300
C253 C 0.995500 0.746270 0.769200
H254 H 0.979900 0.712800 0.735000
C255 C 0.806640 0.710430 0.894980
C256 C 0.758020 0.651980 0.936220
H257 H 0.778200 0.591800 0.934700
C258 C 0.681010 0.680920 0.979040
H259 H 0.647700 0.641000 1.006200
C260 C 0.653120 0.769070 0.981850
C261 C 0.698180 0.827960 0.940860
H262 H 0.677300 0.887900 0.942700
C263 C 0.774130 0.798810 0.897060
H264 H 0.804700 0.839000 0.868000
Br265 Br 1.029960 0.565360 0.627126
Br266 Br 0.323190 0.756930 0.625370
Br267 Br 1.179540 0.248990 -0.105285
Br268 Br 0.481952 0.419840 -0.125175
N269 N 0.699570 0.637540 0.486560
N270 N 0.801210 0.371040 0.028570
C271 C 0.742730 0.526400 0.290650
C272 C 0.740530 0.475260 0.350560
H273 H 0.749900 0.414100 0.347500
C274 C 0.725000 0.511650 0.413960
H275 H 0.724100 0.475300 0.453800
C276 C 0.710610 0.600660 0.420100
C277 C 0.711670 0.653440 0.361860
H278 H 0.701200 0.714500 0.365500
C279 C 0.728130 0.616520 0.297940
H280 H 0.729500 0.653200 0.258200
C281 C 0.758800 0.486790 0.222540
C282 C 0.796100 0.400760 0.214300
H283 H 0.812200 0.367600 0.252900
C284 C 0.810260 0.362440 0.150920
H285 H 0.834700 0.303500 0.146800
C286 C 0.788630 0.410420 0.093650
C287 C 0.752700 0.496510 0.100900
H288 H 0.738700 0.530300 0.062000
C289 C 0.737100 0.533470 0.164510
H290 H 0.711100 0.591900 0.168600
C291 C 0.775010 0.623700 0.520510
C292 C 0.767400 0.610200 0.591440
H293 H 0.710300 0.612100 0.618200
C294 C 0.843500 0.594200 0.622530
H295 H 0.838200 0.585600 0.670700
C296 C 0.926600 0.590760 0.583870
C297 C 0.935680 0.603650 0.513360
H298 H 0.993000 0.601100 0.486800
C299 C 0.859920 0.620320 0.482450
H300 H 0.865800 0.629700 0.434400
C301 C 0.613050 0.662520 0.520590
C302 C 0.596800 0.728940 0.567760
H303 H 0.645300 0.755900 0.578100
C304 C 0.511700 0.755900 0.599490
H305 H 0.501700 0.800400 0.631800
C306 C 0.441010 0.717260 0.583650
C307 C 0.454500 0.650910 0.537950
H308 H 0.405600 0.624600 0.527700
C309 C 0.540600 0.623140 0.507110
H310 H 0.550400 0.576700 0.476500
C311 C 0.889060 0.343170 -0.002730
C312 C 0.907300 0.267600 -0.040410
H313 H 0.860400 0.234500 -0.044500
C314 C 0.993000 0.240600 -0.071770
H315 H 1.004600 0.190100 -0.098200
C316 C 1.061590 0.288000 -0.064240
C317 C 1.045640 0.361650 -0.026250
H318 H 1.093100 0.393200 -0.020800
C319 C 0.959210 0.389270 0.004040
H320 H 0.947900 0.440400 0.029700
C321 C 0.727930 0.377920 -0.007680
C322 C 0.641710 0.383160 0.027910
H323 H 0.633000 0.379100 0.076400
C324 C 0.568440 0.394290 -0.006460
H325 H 0.510000 0.398700 0.018300
C326 C 0.581320 0.398970 -0.077390
C327 C 0.666700 0.390900 -0.113230
H328 H 0.675300 0.391800 -0.161700
C329 C 0.739900 0.381400 -0.078720
H330 H 0.798300 0.377200 -0.103700
Br331 Br -0.029960 0.434640 0.372874
Br332 Br 0.676810 0.243070 0.374630
Br333 Br -0.179540 0.751010 1.105285
Br334 Br 0.518048 0.580160 1.125175
N335 N 0.300430 0.362460 0.513440
N336 N 0.198790 0.628960 0.971430
C337 C 0.257270 0.473600 0.709350
C338 C 0.259470 0.524740 0.649440
H339 H 0.250100 0.585900 0.652500
C340 C 0.275000 0.488350 0.586040
H341 H 0.275900 0.524700 0.546200
C342 C 0.289390 0.399340 0.579900
C343 C 0.288330 0.346560 0.638140
H344 H 0.298800 0.285500 0.634500
C345 C 0.271870 0.383480 0.702060
H346 H 0.270500 0.346800 0.741800
C347 C 0.241200 0.513210 0.777460
C348 C 0.203900 0.599240 0.785700
H349 H 0.187800 0.632400 0.747100
C350 C 0.189740 0.637560 0.849080
H351 H 0.165300 0.696500 0.853200
C352 C 0.211370 0.589580 0.906350
C353 C 0.247300 0.503490 0.899100
H354 H 0.261300 0.469700 0.938000
C355 C 0.262900 0.466530 0.835490
H356 H 0.288900 0.408100 0.831400
C357 C 0.224990 0.376300 0.479490
C358 C 0.232600 0.389800 0.408560
H359 H 0.289700 0.387900 0.381800
C360 C 0.156500 0.405800 0.377470
H361 H 0.161800 0.414400 0.329300
C362 C 0.073400 0.409240 0.416130
C363 C 0.064320 0.396350 0.486640
H364 H 0.007000 0.398900 0.513200
C365 C 0.140080 0.379680 0.517550
H366 H 0.134200 0.370300 0.565600
C367 C 0.386950 0.337480 0.479410
C368 C 0.403200 0.271060 0.432240
H369 H 0.354700 0.244100 0.421900
C370 C 0.488300 0.244100 0.400510
H371 H 0.498300 0.199600 0.368200
C372 C 0.558990 0.282740 0.416350
C373 C 0.545500 0.349090 0.462050
H374 H 0.594400 0.375400 0.472300
C375 C 0.459400 0.376860 0.492890
H376 H 0.449600 0.423300 0.523500
C377 C 0.110940 0.656830 1.002730
C378 C 0.092700 0.732400 1.040410
H379 H 0.139600 0.765500 1.044500
C380 C 0.007000 0.759400 1.071770
H381 H -0.004600 0.809900 1.098200
C382 C -0.061590 0.712000 1.064240
C383 C -0.045640 0.638350 1.026250
H384 H -0.093100 0.606800 1.020800
C385 C 0.040790 0.610730 0.995960
H386 H 0.052100 0.559600 0.970300
C387 C 0.272070 0.622080 1.007680
C388 C 0.358290 0.616840 0.972090
H389 H 0.367000 0.620900 0.923600
C390 C 0.431560 0.605710 1.006460
H391 H 0.490000 0.601300 0.981700
C392 C 0.418680 0.601030 1.077390
C393 C 0.333300 0.609100 1.113230
H394 H 0.324700 0.608200 1.161700
C395 C 0.260100 0.618600 1.078720
H396 H 0.201700 0.622800 1.103700

#END
