./LACTAN_from_xyz.cif_generated_by_CrystalShift
_symmetry_cell_setting triclinic
_symmetry_space_group_name_H-M 'P 1'
loop_
_symmetry_equiv_pos_site_id
_symmetry_equiv_pos_as_xyz
1 x,y,z
_cell_length_a 8.049000
_cell_length_b 12.212000
_cell_length_c 11.698000
_cell_angle_alpha 90.000000
_cell_angle_beta 101.595000
_cell_angle_gamma 90.000000
_cell_volume 1126.382521
loop_
_atom_site_label
_atom_site_type_symbol
_atom_site_fract_x
_atom_site_fract_y
_atom_site_fract_z
O1 O 0.311700 0.394100 0.419400
H2 H 0.247100 0.431900 0.448700
O3 O 0.486400 0.434190 0.586650
O4 O 0.793400 0.357790 0.626060
H5 H 0.712900 0.393600 0.638900
N6 N 0.962300 0.139100 0.334800
H7 H 1.061600 0.132700 0.378200
H8 H 0.939600 0.107600 0.267700
C9 C 0.873400 0.250600 0.479900
H10 H 0.980600 0.244000 0.527100
C11 C 0.588500 0.324900 0.448000
C12 C 0.459700 0.388500 0.490900
C13 C 0.751700 0.311700 0.519400
C14 C 0.557300 0.272200 0.339900
H15 H 0.451000 0.279500 0.291600
C16 C 0.677400 0.210100 0.302300
H17 H 0.651100 0.175100 0.230400
C18 C 0.840900 0.199000 0.372400
O19 O 0.311700 0.605900 0.919400
H20 H 0.247100 0.568100 0.948700
O21 O 0.486400 0.565810 1.086650
O22 O 0.793400 0.642210 1.126060
H23 H 0.712900 0.606400 1.138900
N24 N 0.962300 0.860900 0.834800
H25 H 1.061600 0.867300 0.878200
H26 H 0.939600 0.892400 0.767700
C27 C 0.873400 0.749400 0.979900
H28 H 0.980600 0.756000 1.027100
C29 C 0.588500 0.675100 0.948000
C30 C 0.459700 0.611500 0.990900
C31 C 0.751700 0.688300 1.019400
C32 C 0.557300 0.727800 0.839900
H33 H 0.451000 0.720500 0.791600
C34 C 0.677400 0.789900 0.802300
H35 H 0.651100 0.824900 0.730400
C36 C 0.840900 0.801000 0.872400
O37 O -0.188300 0.894100 0.419400
H38 H -0.252900 0.931900 0.448700
O39 O -0.013600 0.934190 0.586650
O40 O 0.293400 0.857790 0.626060
H41 H 0.212900 0.893600 0.638900
N42 N 0.462300 0.639100 0.334800
H43 H 0.561600 0.632700 0.378200
H44 H 0.439600 0.607600 0.267700
C45 C 0.373400 0.750600 0.479900
H46 H 0.480600 0.744000 0.527100
C47 C 0.088500 0.824900 0.448000
C48 C -0.040300 0.888500 0.490900
C49 C 0.251700 0.811700 0.519400
C50 C 0.057300 0.772200 0.339900
H51 H -0.049000 0.779500 0.291600
C52 C 0.177400 0.710100 0.302300
H53 H 0.151100 0.675100 0.230400
C54 C 0.340900 0.699000 0.372400
O55 O -0.188300 0.105900 0.919400
H56 H -0.252900 0.068100 0.948700
O57 O -0.013600 0.065810 1.086650
O58 O 0.293400 0.142210 1.126060
H59 H 0.212900 0.106400 1.138900
N60 N 0.462300 0.360900 0.834800
H61 H 0.561600 0.367300 0.878200
H62 H 0.439600 0.392400 0.767700
C63 C 0.373400 0.249400 0.979900
H64 H 0.480600 0.256000 1.027100
C65 C 0.088500 0.175100 0.948000
C66 C -0.040300 0.111500 0.990900
C67 C 0.251700 0.188300 1.019400
C68 C 0.057300 0.227800 0.839900
H69 H -0.049000 0.220500 0.791600
C70 C 0.177400 0.289900 0.802300
H71 H 0.151100 0.324900 0.730400
C72 C 0.340900 0.301000 0.872400
N73 N 1.090400 0.518300 0.508000
N74 N 0.813500 0.592900 0.490100
C75 C 1.133400 0.561800 0.614300
H76 H 1.242900 0.551300 0.656800
C77 C 0.861000 0.633100 0.596800
H78 H 0.781300 0.671300 0.628800
C79 C 0.932400 0.537400 0.452300
H80 H 0.901800 0.508100 0.377700
C81 C 1.021300 0.621400 0.662800
H82 H 1.052200 0.652300 0.736700
N83 N 1.090400 0.481700 0.008000
N84 N 0.813500 0.407100 -0.009900
C85 C 1.133400 0.438200 0.114300
H86 H 1.242900 0.448700 0.156800
C87 C 0.861000 0.366900 0.096800
H88 H 0.781300 0.328700 0.128800
C89 C 0.932400 0.462600 -0.047700
H90 H 0.901800 0.491900 -0.122300
C91 C 1.021300 0.378600 0.162800
H92 H 1.052200 0.347700 0.236700
N93 N 0.590400 0.018300 0.508000
N94 N 0.313500 0.092900 0.490100
C95 C 0.633400 0.061800 0.614300
H96 H 0.742900 0.051300 0.656800
C97 C 0.361000 0.133100 0.596800
H98 H 0.281300 0.171300 0.628800
C99 C 0.432400 0.037400 0.452300
H100 H 0.401800 0.008100 0.377700
C101 C 0.521300 0.121400 0.662800
H102 H 0.552200 0.152300 0.736700
N103 N 0.590400 0.981700 0.008000
N104 N 0.313500 0.907100 -0.009900
C105 C 0.633400 0.938200 0.114300
H106 H 0.742900 0.948700 0.156800
C107 C 0.361000 0.866900 0.096800
H108 H 0.281300 0.828700 0.128800
C109 C 0.432400 0.962600 -0.047700
H110 H 0.401800 0.991900 -0.122300
C111 C 0.521300 0.878600 0.162800
H112 H 0.552200 0.847700 0.236700

#END
