./LACTER_from_xyz.cif_generated_by_CrystalShift
_symmetry_cell_setting triclinic
_symmetry_space_group_name_H-M 'P 1'
loop_
_symmetry_equiv_pos_site_id
_symmetry_equiv_pos_as_xyz
1 x,y,z
_cell_length_a 14.279000
_cell_length_b 32.266000
_cell_length_c 3.832900
_cell_angle_alpha 90.000000
_cell_angle_beta 90.000000
_cell_angle_gamma 90.000000
_cell_volume 1765.917506
loop_
_atom_site_label
_atom_site_type_symbol
_atom_site_fract_x
_atom_site_fract_y
_atom_site_fract_z
O1 O 0.812200 0.318500 0.176000
H2 H 0.854700 0.302100 0.133500
O3 O 0.933100 0.357200 0.353600
O4 O 0.901740 0.428930 0.632000
H5 H 0.933000 0.409200 0.563900
C6 C 0.778600 0.383950 0.421200
C7 C 0.746600 0.451500 0.674400
H8 H 0.768400 0.476000 0.773500
N9 N 0.588800 0.476480 0.710200
H10 H 0.608200 0.499600 0.795400
H11 H 0.529900 0.472500 0.677900
C12 C 0.683600 0.379350 0.369500
H13 H 0.662000 0.355200 0.264700
C14 C 0.810900 0.421110 0.578100
C15 C 0.619200 0.409110 0.466500
H16 H 0.555600 0.404900 0.427800
C17 C 0.847900 0.352830 0.321600
C18 C 0.651400 0.446250 0.626500
O19 O 0.687800 0.681500 0.676000
H20 H 0.645300 0.697900 0.633500
O21 O 0.566900 0.642800 0.853600
O22 O 0.598260 0.571070 1.132000
H23 H 0.567000 0.590800 1.063900
C24 C 0.721400 0.616050 0.921200
C25 C 0.753400 0.548500 1.174400
H26 H 0.731600 0.524000 1.273500
N27 N 0.911200 0.523520 1.210200
H28 H 0.891800 0.500400 1.295400
H29 H 0.970100 0.527500 1.177900
C30 C 0.816400 0.620650 0.869500
H31 H 0.838000 0.644800 0.764700
C32 C 0.689100 0.578890 1.078100
C33 C 0.880800 0.590890 0.966500
H34 H 0.944400 0.595100 0.927800
C35 C 0.652100 0.647170 0.821600
C36 C 0.848600 0.553750 1.126500
O37 O 0.187800 0.818500 0.824000
H38 H 0.145300 0.802100 0.866500
O39 O 0.066900 0.857200 0.646400
O40 O 0.098260 0.928930 0.368000
H41 H 0.067000 0.909200 0.436100
C42 C 0.221400 0.883950 0.578800
C43 C 0.253400 0.951500 0.325600
H44 H 0.231600 0.976000 0.226500
N45 N 0.411200 0.976480 0.289800
H46 H 0.391800 0.999600 0.204600
H47 H 0.470100 0.972500 0.322100
C48 C 0.316400 0.879350 0.630500
H49 H 0.338000 0.855200 0.735300
C50 C 0.189100 0.921110 0.421900
C51 C 0.380800 0.909110 0.533500
H52 H 0.444400 0.904900 0.572200
C53 C 0.152100 0.852830 0.678400
C54 C 0.348600 0.946250 0.373500
O55 O 0.312200 0.181500 0.324000
H56 H 0.354700 0.197900 0.366500
O57 O 0.433100 0.142800 0.146400
O58 O 0.401740 0.071070 -0.132000
H59 H 0.433000 0.090800 -0.063900
C60 C 0.278600 0.116050 0.078800
C61 C 0.246600 0.048500 -0.174400
H62 H 0.268400 0.024000 -0.273500
N63 N 0.088800 0.023520 -0.210200
H64 H 0.108200 0.000400 -0.295400
H65 H 0.029900 0.027500 -0.177900
C66 C 0.183600 0.120650 0.130500
H67 H 0.162000 0.144800 0.235300
C68 C 0.310900 0.078890 -0.078100
C69 C 0.119200 0.090890 0.033500
H70 H 0.055600 0.095100 0.072200
C71 C 0.347900 0.147170 0.178400
C72 C 0.151400 0.053750 -0.126500
O73 O 0.187800 0.681500 0.824000
H74 H 0.145300 0.697900 0.866500
O75 O 0.066900 0.642800 0.646400
O76 O 0.098260 0.571070 0.368000
H77 H 0.067000 0.590800 0.436100
C78 C 0.221400 0.616050 0.578800
C79 C 0.253400 0.548500 0.325600
H80 H 0.231600 0.524000 0.226500
N81 N 0.411200 0.523520 0.289800
H82 H 0.391800 0.500400 0.204600
H83 H 0.470100 0.527500 0.322100
C84 C 0.316400 0.620650 0.630500
H85 H 0.338000 0.644800 0.735300
C86 C 0.189100 0.578890 0.421900
C87 C 0.380800 0.590890 0.533500
H88 H 0.444400 0.595100 0.572200
C89 C 0.152100 0.647170 0.678400
C90 C 0.348600 0.553750 0.373500
O91 O 0.312200 0.318500 0.324000
H92 H 0.354700 0.302100 0.366500
O93 O 0.433100 0.357200 0.146400
O94 O 0.401740 0.428930 -0.132000
H95 H 0.433000 0.409200 -0.063900
C96 C 0.278600 0.383950 0.078800
C97 C 0.246600 0.451500 -0.174400
H98 H 0.268400 0.476000 -0.273500
N99 N 0.088800 0.476480 -0.210200
H100 H 0.108200 0.499600 -0.295400
H101 H 0.029900 0.472500 -0.177900
C102 C 0.183600 0.379350 0.130500
H103 H 0.162000 0.355200 0.235300
C104 C 0.310900 0.421110 -0.078100
C105 C 0.119200 0.409110 0.033500
H106 H 0.055600 0.404900 0.072200
C107 C 0.347900 0.352830 0.178400
C108 C 0.151400 0.446250 -0.126500
O109 O 0.812200 0.181500 0.176000
H110 H 0.854700 0.197900 0.133500
O111 O 0.933100 0.142800 0.353600
O112 O 0.901740 0.071070 0.632000
H113 H 0.933000 0.090800 0.563900
C114 C 0.778600 0.116050 0.421200
C115 C 0.746600 0.048500 0.674400
H116 H 0.768400 0.024000 0.773500
N117 N 0.588800 0.023520 0.710200
H118 H 0.608200 0.000400 0.795400
H119 H 0.529900 0.027500 0.677900
C120 C 0.683600 0.120650 0.369500
H121 H 0.662000 0.144800 0.264700
C122 C 0.810900 0.078890 0.578100
C123 C 0.619200 0.090890 0.466500
H124 H 0.555600 0.095100 0.427800
C125 C 0.847900 0.147170 0.321600
C126 C 0.651400 0.053750 0.626500
O127 O 0.687800 0.818500 0.676000
H128 H 0.645300 0.802100 0.633500
O129 O 0.566900 0.857200 0.853600
O130 O 0.598260 0.928930 1.132000
H131 H 0.567000 0.909200 1.063900
C132 C 0.721400 0.883950 0.921200
C133 C 0.753400 0.951500 1.174400
H134 H 0.731600 0.976000 1.273500
N135 N 0.911200 0.976480 1.210200
H136 H 0.891800 0.999600 1.295400
H137 H 0.970100 0.972500 1.177900
C138 C 0.816400 0.879350 0.869500
H139 H 0.838000 0.855200 0.764700
C140 C 0.689100 0.921110 1.078100
C141 C 0.880800 0.909110 0.966500
H142 H 0.944400 0.904900 0.927800
C143 C 0.652100 0.852830 0.821600
C144 C 0.848600 0.946250 1.126500
N145 N 1.039800 0.729190 0.050800
C146 C 0.881000 0.728790 0.253100
H147 H 0.828400 0.713700 0.319100
C148 C 0.962200 0.709450 0.151200
H149 H 0.963200 0.680600 0.152300
N150 N 1.039800 0.770810 0.050800
C151 C 0.881000 0.771210 0.253100
H152 H 0.828400 0.786300 0.319100
C153 C 0.962200 0.790550 0.151200
H154 H 0.963200 0.819400 0.152300
N155 N 0.460200 0.270810 0.550800
C156 C 0.619000 0.271210 0.753100
H157 H 0.671600 0.286300 0.819100
C158 C 0.537800 0.290550 0.651200
H159 H 0.536800 0.319400 0.652300
N160 N 0.460200 0.229190 0.550800
C161 C 0.619000 0.228790 0.753100
H162 H 0.671600 0.213700 0.819100
C163 C 0.537800 0.209450 0.651200
H164 H 0.536800 0.180600 0.652300
N165 N -0.039800 0.229190 0.949200
C166 C 0.119000 0.228790 0.746900
H167 H 0.171600 0.213700 0.680900
C168 C 0.037800 0.209450 0.848800
H169 H 0.036800 0.180600 0.847700
N170 N -0.039800 0.270810 0.949200
C171 C 0.119000 0.271210 0.746900
H172 H 0.171600 0.286300 0.680900
C173 C 0.037800 0.290550 0.848800
H174 H 0.036800 0.319400 0.847700
N175 N 0.539800 0.770810 0.449200
C176 C 0.381000 0.771210 0.246900
H177 H 0.328400 0.786300 0.180900
C178 C 0.462200 0.790550 0.348800
H179 H 0.463200 0.819400 0.347700
N180 N 0.539800 0.729190 0.449200
C181 C 0.381000 0.728790 0.246900
H182 H 0.328400 0.713700 0.180900
C183 C 0.462200 0.709450 0.348800
H184 H 0.463200 0.680600 0.347700

#END
