./LACVUJ_from_xyz.cif_generated_by_CrystalShift
_symmetry_cell_setting triclinic
_symmetry_space_group_name_H-M 'P 1'
loop_
_symmetry_equiv_pos_site_id
_symmetry_equiv_pos_as_xyz
1 x,y,z
_cell_length_a 8.498500
_cell_length_b 12.547000
_cell_length_c 22.278000
_cell_angle_alpha 90.000000
_cell_angle_beta 90.000000
_cell_angle_gamma 90.000000
_cell_volume 2375.518278
loop_
_atom_site_label
_atom_site_type_symbol
_atom_site_fract_x
_atom_site_fract_y
_atom_site_fract_z
O1 O 1.143400 -0.059520 0.117250
O2 O 1.130600 0.078750 0.055250
O3 O 0.989500 -0.058190 0.215800
N4 N 0.714600 0.258000 0.269550
C5 C 0.797700 0.199970 0.228600
C6 C 0.989100 0.088990 0.146130
C7 C 0.941900 0.041710 0.200540
C8 C 0.847600 0.096260 0.240440
H9 H 0.816600 0.063200 0.275900
C10 C 0.932600 0.191510 0.134330
H11 H 0.958500 0.223500 0.098000
C12 C 1.093900 0.032450 0.103770
C13 C 0.841100 0.246470 0.173970
H14 H 0.807400 0.315000 0.164700
H15 H 1.052000 -0.077000 0.180900
H16 H 0.668000 0.224000 0.297400
H17 H 0.665000 0.319000 0.257000
O18 O 0.356600 1.059520 0.617250
O19 O 0.369400 0.921250 0.555250
O20 O 0.510500 1.058190 0.715800
N21 N 0.785400 0.742000 0.769550
C22 C 0.702300 0.800030 0.728600
C23 C 0.510900 0.911010 0.646130
C24 C 0.558100 0.958290 0.700540
C25 C 0.652400 0.903740 0.740440
H26 H 0.683400 0.936800 0.775900
C27 C 0.567400 0.808490 0.634330
H28 H 0.541500 0.776500 0.598000
C29 C 0.406100 0.967550 0.603770
C30 C 0.658900 0.753530 0.673970
H31 H 0.692600 0.685000 0.664700
H32 H 0.448000 1.077000 0.680900
H33 H 0.832000 0.776000 0.797400
H34 H 0.835000 0.681000 0.757000
O35 O -0.143400 0.440480 0.382750
O36 O -0.130600 0.578750 0.444750
O37 O 0.010500 0.441810 0.284200
N38 N 0.285400 0.758000 0.230450
C39 C 0.202300 0.699970 0.271400
C40 C 0.010900 0.588990 0.353870
C41 C 0.058100 0.541710 0.299460
C42 C 0.152400 0.596260 0.259560
H43 H 0.183400 0.563200 0.224100
C44 C 0.067400 0.691510 0.365670
H45 H 0.041500 0.723500 0.402000
C46 C -0.093900 0.532450 0.396230
C47 C 0.158900 0.746470 0.326030
H48 H 0.192600 0.815000 0.335300
H49 H -0.052000 0.423000 0.319100
H50 H 0.332000 0.724000 0.202600
H51 H 0.335000 0.819000 0.243000
O52 O 0.643400 0.559520 0.882750
O53 O 0.630600 0.421250 0.944750
O54 O 0.489500 0.558190 0.784200
N55 N 0.214600 0.242000 0.730450
C56 C 0.297700 0.300030 0.771400
C57 C 0.489100 0.411010 0.853870
C58 C 0.441900 0.458290 0.799460
C59 C 0.347600 0.403740 0.759560
H60 H 0.316600 0.436800 0.724100
C61 C 0.432600 0.308490 0.865670
H62 H 0.458500 0.276500 0.902000
C63 C 0.593900 0.467550 0.896230
C64 C 0.341100 0.253530 0.826030
H65 H 0.307400 0.185000 0.835300
H66 H 0.552000 0.577000 0.819100
H67 H 0.168000 0.276000 0.702600
H68 H 0.165000 0.181000 0.743000
O69 O -0.143400 1.059520 0.882750
O70 O -0.130600 0.921250 0.944750
O71 O 0.010500 1.058190 0.784200
N72 N 0.285400 0.742000 0.730450
C73 C 0.202300 0.800030 0.771400
C74 C 0.010900 0.911010 0.853870
C75 C 0.058100 0.958290 0.799460
C76 C 0.152400 0.903740 0.759560
H77 H 0.183400 0.936800 0.724100
C78 C 0.067400 0.808490 0.865670
H79 H 0.041500 0.776500 0.902000
C80 C -0.093900 0.967550 0.896230
C81 C 0.158900 0.753530 0.826030
H82 H 0.192600 0.685000 0.835300
H83 H -0.052000 1.077000 0.819100
H84 H 0.332000 0.776000 0.702600
H85 H 0.335000 0.681000 0.743000
O86 O 0.643400 -0.059520 0.382750
O87 O 0.630600 0.078750 0.444750
O88 O 0.489500 -0.058190 0.284200
N89 N 0.214600 0.258000 0.230450
C90 C 0.297700 0.199970 0.271400
C91 C 0.489100 0.088990 0.353870
C92 C 0.441900 0.041710 0.299460
C93 C 0.347600 0.096260 0.259560
H94 H 0.316600 0.063200 0.224100
C95 C 0.432600 0.191510 0.365670
H96 H 0.458500 0.223500 0.402000
C97 C 0.593900 0.032450 0.396230
C98 C 0.341100 0.246470 0.326030
H99 H 0.307400 0.315000 0.335300
H100 H 0.552000 -0.077000 0.319100
H101 H 0.168000 0.224000 0.202600
H102 H 0.165000 0.319000 0.243000
O103 O 1.143400 0.559520 0.617250
O104 O 1.130600 0.421250 0.555250
O105 O 0.989500 0.558190 0.715800
N106 N 0.714600 0.242000 0.769550
C107 C 0.797700 0.300030 0.728600
C108 C 0.989100 0.411010 0.646130
C109 C 0.941900 0.458290 0.700540
C110 C 0.847600 0.403740 0.740440
H111 H 0.816600 0.436800 0.775900
C112 C 0.932600 0.308490 0.634330
H113 H 0.958500 0.276500 0.598000
C114 C 1.093900 0.467550 0.603770
C115 C 0.841100 0.253530 0.673970
H116 H 0.807400 0.185000 0.664700
H117 H 1.052000 0.577000 0.680900
H118 H 0.668000 0.276000 0.797400
H119 H 0.665000 0.181000 0.757000
O120 O 0.356600 0.440480 0.117250
O121 O 0.369400 0.578750 0.055250
O122 O 0.510500 0.441810 0.215800
N123 N 0.785400 0.758000 0.269550
C124 C 0.702300 0.699970 0.228600
C125 C 0.510900 0.588990 0.146130
C126 C 0.558100 0.541710 0.200540
C127 C 0.652400 0.596260 0.240440
H128 H 0.683400 0.563200 0.275900
C129 C 0.567400 0.691510 0.134330
H130 H 0.541500 0.723500 0.098000
C131 C 0.406100 0.532450 0.103770
C132 C 0.658900 0.746470 0.173970
H133 H 0.692600 0.815000 0.164700
H134 H 0.448000 0.423000 0.180900
H135 H 0.832000 0.724000 0.297400
H136 H 0.835000 0.819000 0.257000
N137 N 0.986800 0.785300 0.039720
N138 N 0.804000 0.529290 0.019150
H139 H 0.748900 0.497100 -0.007700
C140 C 0.939900 0.684210 0.050280
C141 C 0.837900 0.478100 0.069750
H142 H 0.802000 0.409000 0.075900
C143 C 0.851900 0.628330 0.008430
H144 H 0.825900 0.660700 -0.027800
C145 C 0.977500 0.630400 0.103290
H146 H 1.037800 0.664200 0.132400
C147 C 0.926000 0.528100 0.112760
H148 H 0.950900 0.492900 0.148200
H149 H 0.955000 0.820000 0.007100
H150 H 1.036000 0.824000 0.067800
N151 N 0.513200 0.214700 0.539720
N152 N 0.696000 0.470710 0.519150
H153 H 0.751100 0.502900 0.492300
C154 C 0.560100 0.315790 0.550280
C155 C 0.662100 0.521900 0.569750
H156 H 0.698000 0.591000 0.575900
C157 C 0.648100 0.371670 0.508430
H158 H 0.674100 0.339300 0.472200
C159 C 0.522500 0.369600 0.603290
H160 H 0.462200 0.335800 0.632400
C161 C 0.574000 0.471900 0.612760
H162 H 0.549100 0.507100 0.648200
H163 H 0.545000 0.180000 0.507100
H164 H 0.464000 0.176000 0.567800
N165 N 0.013200 0.285300 0.460280
N166 N 0.196000 0.029290 0.480850
H167 H 0.251100 -0.002900 0.507700
C168 C 0.060100 0.184210 0.449720
C169 C 0.162100 -0.021900 0.430250
H170 H 0.198000 -0.091000 0.424100
C171 C 0.148100 0.128330 0.491570
H172 H 0.174100 0.160700 0.527800
C173 C 0.022500 0.130400 0.396710
H174 H -0.037800 0.164200 0.367600
C175 C 0.074000 0.028100 0.387240
H176 H 0.049100 -0.007100 0.351800
H177 H 0.045000 0.320000 0.492900
H178 H -0.036000 0.324000 0.432200
N179 N 0.486800 0.714700 0.960280
N180 N 0.304000 0.970710 0.980850
H181 H 0.248900 1.002900 1.007700
C182 C 0.439900 0.815790 0.949720
C183 C 0.337900 1.021900 0.930250
H184 H 0.302000 1.091000 0.924100
C185 C 0.351900 0.871670 0.991570
H186 H 0.325900 0.839300 1.027800
C187 C 0.477500 0.869600 0.896710
H188 H 0.537800 0.835800 0.867600
C189 C 0.426000 0.971900 0.887240
H190 H 0.450900 1.007100 0.851800
H191 H 0.455000 0.680000 0.992900
H192 H 0.536000 0.676000 0.932200
N193 N 0.013200 0.214700 0.960280
N194 N 0.196000 0.470710 0.980850
H195 H 0.251100 0.502900 1.007700
C196 C 0.060100 0.315790 0.949720
C197 C 0.162100 0.521900 0.930250
H198 H 0.198000 0.591000 0.924100
C199 C 0.148100 0.371670 0.991570
H200 H 0.174100 0.339300 1.027800
C201 C 0.022500 0.369600 0.896710
H202 H -0.037800 0.335800 0.867600
C203 C 0.074000 0.471900 0.887240
H204 H 0.049100 0.507100 0.851800
H205 H 0.045000 0.180000 0.992900
H206 H -0.036000 0.176000 0.932200
N207 N 0.486800 0.785300 0.460280
N208 N 0.304000 0.529290 0.480850
H209 H 0.248900 0.497100 0.507700
C210 C 0.439900 0.684210 0.449720
C211 C 0.337900 0.478100 0.430250
H212 H 0.302000 0.409000 0.424100
C213 C 0.351900 0.628330 0.491570
H214 H 0.325900 0.660700 0.527800
C215 C 0.477500 0.630400 0.396710
H216 H 0.537800 0.664200 0.367600
C217 C 0.426000 0.528100 0.387240
H218 H 0.450900 0.492900 0.351800
H219 H 0.455000 0.820000 0.492900
H220 H 0.536000 0.824000 0.432200
N221 N 0.986800 0.714700 0.539720
N222 N 0.804000 0.970710 0.519150
H223 H 0.748900 1.002900 0.492300
C224 C 0.939900 0.815790 0.550280
C225 C 0.837900 1.021900 0.569750
H226 H 0.802000 1.091000 0.575900
C227 C 0.851900 0.871670 0.508430
H228 H 0.825900 0.839300 0.472200
C229 C 0.977500 0.869600 0.603290
H230 H 1.037800 0.835800 0.632400
C231 C 0.926000 0.971900 0.612760
H232 H 0.950900 1.007100 0.648200
H233 H 0.955000 0.680000 0.507100
H234 H 1.036000 0.676000 0.567800
N235 N 0.513200 0.285300 0.039720
N236 N 0.696000 0.029290 0.019150
H237 H 0.751100 -0.002900 -0.007700
C238 C 0.560100 0.184210 0.050280
C239 C 0.662100 -0.021900 0.069750
H240 H 0.698000 -0.091000 0.075900
C241 C 0.648100 0.128330 0.008430
H242 H 0.674100 0.160700 -0.027800
C243 C 0.522500 0.130400 0.103290
H244 H 0.462200 0.164200 0.132400
C245 C 0.574000 0.028100 0.112760
H246 H 0.549100 -0.007100 0.148200
H247 H 0.545000 0.320000 0.007100
H248 H 0.464000 0.324000 0.067800

#END
