./LACVIW_from_xyz.cif_generated_by_CrystalShift
_symmetry_cell_setting triclinic
_symmetry_space_group_name_H-M 'P 1'
loop_
_symmetry_equiv_pos_site_id
_symmetry_equiv_pos_as_xyz
1 x,y,z
_cell_length_a 8.625700
_cell_length_b 10.512500
_cell_length_c 11.913300
_cell_angle_alpha 67.565000
_cell_angle_beta 73.327000
_cell_angle_gamma 78.041000
_cell_volume 950.685856
loop_
_atom_site_label
_atom_site_type_symbol
_atom_site_fract_x
_atom_site_fract_y
_atom_site_fract_z
C1 C 0.286400 0.849400 0.022800
C2 C 0.306800 0.929700 0.083500
H3 H 0.355000 0.888900 0.151300
C4 C 0.257200 1.070200 0.046300
H5 H 0.270700 1.123000 0.089400
C6 C 0.187400 1.131900 -0.055700
H7 H 0.154500 1.226500 -0.081500
C8 C 0.166700 1.053800 -0.118400
H9 H 0.118700 1.096300 -0.186300
C10 C 0.215800 0.912300 -0.082700
C11 C 0.191200 0.824100 -0.143000
C12 C 0.204500 0.685400 -0.092500
H13 H 0.179900 0.632200 -0.130800
C14 C 0.351400 0.697600 0.053100
H15 H 0.462700 0.692900 0.002200
C16 C 0.270200 0.489200 0.086700
H17 H 0.239000 0.420200 0.069600
C18 C 0.335400 0.464900 0.184700
C19 C 0.356600 0.603000 0.189300
C20 C 0.233200 0.640200 0.294700
C21 C 0.066100 0.650900 0.328100
H22 H 0.008500 0.634000 0.281100
C23 C -0.017000 0.687100 0.432200
H24 H -0.130200 0.695500 0.454500
C25 C 0.070500 0.710800 0.502800
H26 H 0.014200 0.733400 0.573100
C27 C 0.238300 0.701700 0.471300
H28 H 0.295600 0.719700 0.517900
C29 C 0.317900 0.664800 0.367800
C30 C 0.518900 0.604500 0.217500
C31 C 0.369800 0.332800 0.277700
C32 C 0.369000 0.092000 0.342200
H33 H 0.483000 0.075500 0.341400
H34 H 0.340800 0.023400 0.318700
H35 H 0.306600 0.086500 0.424500
C36 C 0.610900 0.661000 0.369000
H37 H 0.716100 0.642600 0.319000
H38 H 0.602000 0.597300 0.453100
H39 H 0.597500 0.754100 0.368800
N40 N 0.255500 0.624300 0.017000
N41 N 0.485700 0.644500 0.318300
O42 O 0.424300 0.317800 0.365500
O43 O 0.334300 0.226400 0.255900
O44 O 0.654100 0.580700 0.156700
Br45 Br 0.124310 0.906140 -0.295960
C46 C 0.713600 0.150600 0.977200
C47 C 0.693200 0.070300 0.916500
H48 H 0.645000 0.111100 0.848700
C49 C 0.742800 -0.070200 0.953700
H50 H 0.729300 -0.123000 0.910600
C51 C 0.812600 -0.131900 1.055700
H52 H 0.845500 -0.226500 1.081500
C53 C 0.833300 -0.053800 1.118400
H54 H 0.881300 -0.096300 1.186300
C55 C 0.784200 0.087700 1.082700
C56 C 0.808800 0.175900 1.143000
C57 C 0.795500 0.314600 1.092500
H58 H 0.820100 0.367800 1.130800
C59 C 0.648600 0.302400 0.946900
H60 H 0.537300 0.307100 0.997800
C61 C 0.729800 0.510800 0.913300
H62 H 0.761000 0.579800 0.930400
C63 C 0.664600 0.535100 0.815300
C64 C 0.643400 0.397000 0.810700
C65 C 0.766800 0.359800 0.705300
C66 C 0.933900 0.349100 0.671900
H67 H 0.991500 0.366000 0.718900
C68 C 1.017000 0.312900 0.567800
H69 H 1.130200 0.304500 0.545500
C70 C 0.929500 0.289200 0.497200
H71 H 0.985800 0.266600 0.426900
C72 C 0.761700 0.298300 0.528700
H73 H 0.704400 0.280300 0.482100
C74 C 0.682100 0.335200 0.632200
C75 C 0.481100 0.395500 0.782500
C76 C 0.630200 0.667200 0.722300
C77 C 0.631000 0.908000 0.657800
H78 H 0.517000 0.924500 0.658600
H79 H 0.659200 0.976600 0.681300
H80 H 0.693400 0.913500 0.575500
C81 C 0.389100 0.339000 0.631000
H82 H 0.283900 0.357400 0.681000
H83 H 0.398000 0.402700 0.546900
H84 H 0.402500 0.245900 0.631200
N85 N 0.744500 0.375700 0.983000
N86 N 0.514300 0.355500 0.681700
O87 O 0.575700 0.682200 0.634500
O88 O 0.665700 0.773600 0.744100
O89 O 0.345900 0.419300 0.843300
Br90 Br 0.875690 0.093860 1.295960

#END
