
#######################################################################
#
#                 Cambridge Crystallographic Data Centre
#                                CCDC 
#
#######################################################################
#
# If this CIF has been generated from an entry in the Cambridge 
# Structural Database, then it will include bibliographic, chemical, 
# crystal, experimental, refinement or atomic coordinate data resulting 
# from the CCDC's data processing and validation procedures.
#
#######################################################################

data_LACXEU
_symmetry_cell_setting           triclinic
_symmetry_space_group_name_H-M   'P -1'
_symmetry_Int_Tables_number      2
_space_group_name_Hall           '-P 1'
loop_
_symmetry_equiv_pos_site_id
_symmetry_equiv_pos_as_xyz
1 x,y,z
2 -x,-y,-z
_cell_length_a                   11.2211(6)
_cell_length_b                   11.8189(6)
_cell_length_c                   13.4426(7)
_cell_angle_alpha                110.193(3)
_cell_angle_beta                 110.006(3)
_cell_angle_gamma                92.350(3)
_cell_volume                     1546.43
loop_
_atom_site_label
_atom_site_type_symbol
_atom_site_fract_x
_atom_site_fract_y
_atom_site_fract_z
N1 N 0.80406(13) -0.06770(12) 0.18157(11)
N2 N 0.66547(12) 0.05738(12) 0.12826(11)
N3 N 0.51550(14) 0.17237(14) 0.07406(12)
H1 H 0.4607(18) 0.1041(18) 0.0268(17)
H2 H 0.4899(17) 0.2476(18) 0.0882(16)
C1 C 0.91178(16) -0.08590(15) 0.24816(14)
C2 C 1.00441(15) 0.01194(15) 0.34686(14)
C3 C 1.11124(17) -0.01153(17) 0.42578(15)
H3 H 1.1208(16) -0.0980(16) 0.4115(14)
C4 C 1.19546(18) 0.08224(17) 0.52180(15)
H4 H 1.2609(18) 0.0628(16) 0.5713(16)
C5 C 1.17285(18) 0.20249(18) 0.54424(15)
H5 H 1.2297(19) 0.2676(18) 0.6168(17)
C6 C 1.07016(17) 0.22826(16) 0.46922(14)
H6 H 1.0518(15) 0.3117(15) 0.4884(14)
C7 C 0.98513(15) 0.13412(15) 0.36504(13)
C8 C 0.87750(15) 0.15449(14) 0.28077(13)
C9 C 0.85758(15) 0.27090(14) 0.26907(13)
C10 C 0.95501(17) 0.37598(15) 0.31916(14)
H7 H 1.0385(18) 0.3727(15) 0.3631(15)
C11 C 0.93146(18) 0.48058(16) 0.29871(15)
H8 H 1.0017(19) 0.5470(18) 0.3323(16)
C12 C 0.80958(17) 0.48642(16) 0.22799(15)
H9 H 0.7937(17) 0.5595(17) 0.2134(15)
C13 C 0.71327(17) 0.38548(15) 0.17602(14)
H10 H 0.6313(18) 0.3888(15) 0.1260(15)
C14 C 0.73571(15) 0.27692(14) 0.19460(13)
C15 C 0.63752(15) 0.16585(14) 0.13261(13)
C16 C 0.78467(15) 0.05137(14) 0.19914(13)
C17 C 0.93908(17) -0.21444(15) 0.21400(16)
H11 H 0.8582(18) -0.2703(16) 0.1592(15)
H12 H 0.9722(16) -0.2385(14) 0.2821(14)
C18 C 1.03562(18) -0.22620(17) 0.15463(17)
H13 H 0.9954(18) -0.2218(17) 0.0762(17)
H14 H 1.1105(18) -0.1607(16) 0.2020(15)
C19 C 1.0814(2) -0.34814(18) 0.12809(19)
H15 H 1.004(2) -0.413(2) 0.0892(18)
H16 H 1.134(2) -0.3599(18) 0.2062(18)
C20 C 1.1583(2) -0.3618(2) 0.05184(19)
H17 H 1.099(2) -0.355(2) -0.026(2)
H18 H 1.192(2) -0.446(2) 0.0341(19)
H19 H 1.230(2) -0.285(2) 0.0844(18)
N1 N 0.19594(13) 1.06770(12) 0.81843(11)
N2 N 0.33453(12) 0.94262(12) 0.87174(11)
N3 N 0.48450(14) 0.82763(14) 0.92594(12)
H1 H 0.5393(18) 0.8959(18) 0.9732(17)
H2 H 0.5101(17) 0.7524(18) 0.9118(16)
C1 C 0.08822(16) 1.08590(15) 0.75184(14)
C2 C -0.00441(15) 0.98806(15) 0.65314(14)
C3 C -0.11124(17) 1.01153(17) 0.57422(15)
H3 H -0.1208(16) 1.0980(16) 0.5885(14)
C4 C -0.19546(18) 0.91776(17) 0.47820(15)
H4 H -0.2609(18) 0.9372(16) 0.4287(16)
C5 C -0.17285(18) 0.79751(18) 0.45576(15)
H5 H -0.2297(19) 0.7324(18) 0.3832(17)
C6 C -0.07016(17) 0.77174(16) 0.53078(14)
H6 H -0.0518(15) 0.6883(15) 0.5116(14)
C7 C 0.01487(15) 0.86588(15) 0.63496(13)
C8 C 0.12250(15) 0.84551(14) 0.71923(13)
C9 C 0.14242(15) 0.72910(14) 0.73093(13)
C10 C 0.04499(17) 0.62402(15) 0.68084(14)
H7 H -0.0385(18) 0.6273(15) 0.6369(15)
C11 C 0.06854(18) 0.51942(16) 0.70129(15)
H8 H -0.0017(19) 0.4530(18) 0.6677(16)
C12 C 0.19042(17) 0.51358(16) 0.77201(15)
H9 H 0.2063(17) 0.4405(17) 0.7866(15)
C13 C 0.28673(17) 0.61452(15) 0.82398(14)
H10 H 0.3687(18) 0.6112(15) 0.8740(15)
C14 C 0.26429(15) 0.72308(14) 0.80540(13)
C15 C 0.36248(15) 0.83415(14) 0.86739(13)
C16 C 0.21533(15) 0.94863(14) 0.80086(13)
C17 C 0.06092(17) 1.21444(15) 0.78600(16)
H11 H 0.1418(18) 1.2703(16) 0.8408(15)
H12 H 0.0278(16) 1.2385(14) 0.7179(14)
C18 C -0.03562(18) 1.22620(17) 0.84537(17)
H13 H 0.0046(18) 1.2218(17) 0.9238(17)
H14 H -0.1105(18) 1.1607(16) 0.7980(15)
C19 C -0.0814(2) 1.34814(18) 0.87191(19)
H15 H -0.004(2) 1.413(2) 0.9108(18)
H16 H -0.134(2) 1.3599(18) 0.7938(18)
C20 C -0.1583(2) 1.3618(2) 0.94816(19)
H17 H -0.099(2) 1.355(2) 1.026(2)
H18 H -0.192(2) 1.446(2) 0.9659(19)
H19 H -0.230(2) 1.285(2) 0.9156(18)
N4 N 0.40025(13) 0.41439(12) 0.19426(11)
N5 N 0.48457(13) 0.55000(12) 0.13815(11)
N6 N 0.59536(14) 0.67178(15) 0.08742(12)
H20 H 0.592(2) 0.6036(19) 0.0270(18)
H21 H 0.6315(18) 0.7418(19) 0.0945(16)
C21 C 0.35690(16) 0.38705(15) 0.26395(14)
C22 C 0.34816(16) 0.47927(15) 0.36321(14)
C23 C 0.31136(17) 0.44750(17) 0.44221(15)
H22 H 0.2855(17) 0.3598(18) 0.4262(15)
C24 C 0.31002(18) 0.53553(17) 0.53951(15)
H23 H 0.2847(17) 0.5120(17) 0.5911(16)
C25 C 0.35201(18) 0.65850(17) 0.56396(15)
H24 H 0.3544(18) 0.7215(17) 0.6344(17)
C26 C 0.38882(17) 0.69268(17) 0.48975(14)
H25 H 0.4259(18) 0.7783(18) 0.5137(16)
C27 C 0.38315(15) 0.60455(15) 0.38431(14)
C28 C 0.41867(15) 0.63368(15) 0.30117(13)
C29 C 0.44021(15) 0.75475(14) 0.29924(13)
C30 C 0.39365(17) 0.85702(15) 0.35594(14)
H26 H 0.3400(18) 0.8431(16) 0.3969(15)
C31 C 0.41624(17) 0.96879(16) 0.34895(15)
H27 H 0.3803(18) 1.0389(17) 0.3886(16)
C32 C 0.48394(17) 0.98434(16) 0.28382(14)
H28 H 0.5004(17) 1.0633(17) 0.2787(15)
C33 C 0.52407(16) 0.88501(15) 0.22193(14)
H29 H 0.5633(16) 0.8940(15) 0.1723(15)
C34 C 0.50178(15) 0.77001(14) 0.22732(13)
C35 C 0.52825(15) 0.66159(14) 0.15141(13)
C36 C 0.43335(15) 0.53584(14) 0.21327(13)
C37 C 0.31926(18) 0.25324(16) 0.23670(16)
H30 H 0.3544(16) 0.2296(15) 0.3061(15)
H31 H 0.3611(19) 0.2069(17) 0.1858(17)
C38 C 0.17491(18) 0.20597(17) 0.17755(17)
H32 H 0.1432(17) 0.2234(16) 0.1050(16)
H33 H 0.128(2) 0.2569(19) 0.2269(18)
C39 C 0.1408(2) 0.06941(17) 0.15095(17)
H34 H 0.1768(19) 0.0530(17) 0.2288(18)
H35 H 0.038(2) 0.047(2) 0.1207(19)
C40 C 0.1922(2) -0.01070(19) 0.06493(18)
H36 H 0.168(2) 0.014(2) -0.008(2)
H37 H 0.153(2) -0.109(2) 0.0317(19)
H38 H 0.299(2) -0.002(2) 0.095(2)
N4 N 0.59975(13) 0.58561(12) 0.80574(11)
N5 N 0.51543(13) 0.45000(12) 0.86185(11)
N6 N 0.40464(14) 0.32822(15) 0.91258(12)
H20 H 0.408(2) 0.3964(19) 0.9730(18)
H21 H 0.3685(18) 0.2582(19) 0.9055(16)
C21 C 0.64310(16) 0.61295(15) 0.73605(14)
C22 C 0.65184(16) 0.52073(15) 0.63679(14)
C23 C 0.68864(17) 0.55250(17) 0.55779(15)
H22 H 0.7145(17) 0.6402(18) 0.5738(15)
C24 C 0.68998(18) 0.46447(17) 0.46049(15)
H23 H 0.7153(17) 0.4880(17) 0.4089(16)
C25 C 0.64799(18) 0.34150(17) 0.43604(15)
H24 H 0.6456(18) 0.2785(17) 0.3656(17)
C26 C 0.61118(17) 0.30732(17) 0.51025(14)
H25 H 0.5741(18) 0.2217(18) 0.4863(16)
C27 C 0.61685(15) 0.39545(15) 0.61569(14)
C28 C 0.58133(15) 0.36632(15) 0.69883(13)
C29 C 0.55979(15) 0.24525(14) 0.70076(13)
C30 C 0.60635(17) 0.14298(15) 0.64406(14)
H26 H 0.6600(18) 0.1569(16) 0.6031(15)
C31 C 0.58376(17) 0.03121(16) 0.65105(15)
H27 H 0.6197(18) -0.0389(17) 0.6114(16)
C32 C 0.51606(17) 0.01566(16) 0.71618(14)
H28 H 0.4996(17) -0.0633(17) 0.7213(15)
C33 C 0.47593(16) 0.11499(15) 0.77807(14)
H29 H 0.4367(16) 0.1060(15) 0.8277(15)
C34 C 0.49822(15) 0.22999(14) 0.77268(13)
C35 C 0.47175(15) 0.33841(14) 0.84859(13)
C36 C 0.56665(15) 0.46416(14) 0.78673(13)
C37 C 0.68074(18) 0.74676(16) 0.76330(16)
H30 H 0.6456(16) 0.7704(15) 0.6939(15)
H31 H 0.6389(19) 0.7931(17) 0.8142(17)
C38 C 0.82509(18) 0.79403(17) 0.82245(17)
H32 H 0.8568(17) 0.7766(16) 0.8950(16)
H33 H 0.872(2) 0.7431(19) 0.7731(18)
C39 C 0.8592(2) 0.93059(17) 0.84905(17)
H34 H 0.8232(19) 0.9470(17) 0.7712(18)
H35 H 0.962(2) 0.953(2) 0.8793(19)
C40 C 0.8078(2) 1.01070(19) 0.93507(18)
H36 H 0.832(2) 0.986(2) 1.008(2)
H37 H 0.847(2) 1.109(2) 0.9683(19)
H38 H 0.701(2) 1.002(2) 0.905(2)

#END
