./LADCEB01_from_xyz.cif_generated_by_CrystalShift
_symmetry_cell_setting triclinic
_symmetry_space_group_name_H-M 'P 1'
loop_
_symmetry_equiv_pos_site_id
_symmetry_equiv_pos_as_xyz
1 x,y,z
_cell_length_a 5.376000
_cell_length_b 11.936600
_cell_length_c 13.112200
_cell_angle_alpha 90.000000
_cell_angle_beta 90.000000
_cell_angle_gamma 90.000000
_cell_volume 841.425105
loop_
_atom_site_label
_atom_site_type_symbol
_atom_site_fract_x
_atom_site_fract_y
_atom_site_fract_z
O1 O 0.180700 0.292540 0.398030
O2 O 0.555500 0.168800 0.171170
C3 C 0.346000 0.035890 0.267190
C4 C 0.298500 0.205510 0.170410
H5 H 0.278400 0.287100 0.170800
O6 O 0.678100 -0.015100 0.386880
N7 N 0.459900 0.148160 0.408770
H8 H 0.536100 0.171000 0.462600
C9 C 0.269400 0.206490 0.363760
C10 C 0.341900 0.037560 0.073650
H11 H 0.233400 -0.027200 0.078300
H12 H 0.442800 0.031700 0.012600
C13 C 0.194300 0.146700 0.267110
H14 H 0.014500 0.133700 0.263100
C15 C 0.191600 0.148480 0.075530
H16 H 0.220900 0.192700 0.014600
H17 H 0.014600 0.134600 0.082600
C18 C 0.503000 0.049870 0.169070
H19 H 0.652800 0.003100 0.168000
C20 C 0.518100 0.048940 0.359310
C21 C 0.202500 -0.074170 0.275640
H22 H 0.129200 -0.079800 0.342200
H23 H 0.314200 -0.135900 0.265200
H24 H 0.074000 -0.076100 0.224900
O25 O 0.319300 0.707460 0.898030
O26 O -0.055500 0.831200 0.671170
C27 C 0.154000 0.964110 0.767190
C28 C 0.201500 0.794490 0.670410
H29 H 0.221600 0.712900 0.670800
O30 O -0.178100 1.015100 0.886880
N31 N 0.040100 0.851840 0.908770
H32 H -0.036100 0.829000 0.962600
C33 C 0.230600 0.793510 0.863760
C34 C 0.158100 0.962440 0.573650
H35 H 0.266600 1.027200 0.578300
H36 H 0.057200 0.968300 0.512600
C37 C 0.305700 0.853300 0.767110
H38 H 0.485500 0.866300 0.763100
C39 C 0.308400 0.851520 0.575530
H40 H 0.279100 0.807300 0.514600
H41 H 0.485400 0.865400 0.582600
C42 C -0.003000 0.950130 0.669070
H43 H -0.152800 0.996900 0.668000
C44 C -0.018100 0.951060 0.859310
C45 C 0.297500 1.074170 0.775640
H46 H 0.370800 1.079800 0.842200
H47 H 0.185800 1.135900 0.765200
H48 H 0.426000 1.076100 0.724900
O49 O 0.680700 0.207460 0.601970
O50 O 1.055500 0.331200 0.828830
C51 C 0.846000 0.464110 0.732810
C52 C 0.798500 0.294490 0.829590
H53 H 0.778400 0.212900 0.829200
O54 O 1.178100 0.515100 0.613120
N55 N 0.959900 0.351840 0.591230
H56 H 1.036100 0.329000 0.537400
C57 C 0.769400 0.293510 0.636240
C58 C 0.841900 0.462440 0.926350
H59 H 0.733400 0.527200 0.921700
H60 H 0.942800 0.468300 0.987400
C61 C 0.694300 0.353300 0.732890
H62 H 0.514500 0.366300 0.736900
C63 C 0.691600 0.351520 0.924470
H64 H 0.720900 0.307300 0.985400
H65 H 0.514600 0.365400 0.917400
C66 C 1.003000 0.450130 0.830930
H67 H 1.152800 0.496900 0.832000
C68 C 1.018100 0.451060 0.640690
C69 C 0.702500 0.574170 0.724360
H70 H 0.629200 0.579800 0.657800
H71 H 0.814200 0.635900 0.734800
H72 H 0.574000 0.576100 0.775100
O73 O 0.819300 0.792540 0.101970
O74 O 0.444500 0.668800 0.328830
C75 C 0.654000 0.535890 0.232810
C76 C 0.701500 0.705510 0.329590
H77 H 0.721600 0.787100 0.329200
O78 O 0.321900 0.484900 0.113120
N79 N 0.540100 0.648160 0.091230
H80 H 0.463900 0.671000 0.037400
C81 C 0.730600 0.706490 0.136240
C82 C 0.658100 0.537560 0.426350
H83 H 0.766600 0.472800 0.421700
H84 H 0.557200 0.531700 0.487400
C85 C 0.805700 0.646700 0.232890
H86 H 0.985500 0.633700 0.236900
C87 C 0.808400 0.648480 0.424470
H88 H 0.779100 0.692700 0.485400
H89 H 0.985400 0.634600 0.417400
C90 C 0.497000 0.549870 0.330930
H91 H 0.347200 0.503100 0.332000
C92 C 0.481900 0.548940 0.140690
C93 C 0.797500 0.425830 0.224360
H94 H 0.870800 0.420200 0.157800
H95 H 0.685800 0.364100 0.234800
H96 H 0.926000 0.423900 0.275100

#END
