./LADCOL_from_xyz.cif_generated_by_CrystalShift
_symmetry_cell_setting triclinic
_symmetry_space_group_name_H-M 'P 1'
loop_
_symmetry_equiv_pos_site_id
_symmetry_equiv_pos_as_xyz
1 x,y,z
_cell_length_a 8.089000
_cell_length_b 11.456300
_cell_length_c 23.802200
_cell_angle_alpha 90.000000
_cell_angle_beta 90.000000
_cell_angle_gamma 90.000000
_cell_volume 2205.750129
loop_
_atom_site_label
_atom_site_type_symbol
_atom_site_fract_x
_atom_site_fract_y
_atom_site_fract_z
N1 N 0.159900 0.614300 0.418830
O2 O 0.000900 0.583700 0.341520
O3 O 0.341600 0.386800 0.380900
O4 O 0.376200 0.637500 0.479940
C5 C 0.134500 0.587700 0.363750
C6 C 0.428100 0.580300 0.382930
C7 C 0.324500 0.614600 0.433700
C8 C 0.299200 0.562100 0.335920
C9 C 0.025300 0.644000 0.457800
H10 H -0.056900 0.690000 0.438100
H11 H 0.069200 0.691300 0.488100
C12 C 0.312100 0.430000 0.325700
H13 H 0.213800 0.396500 0.307900
C14 C 0.488700 0.453200 0.391200
H15 H 0.537000 0.439000 0.428400
C16 C -0.056900 0.536900 0.482300
H17 H -0.149900 0.561300 0.505200
H18 H -0.099800 0.489500 0.451900
C19 C 0.600300 0.415000 0.342800
H20 H 0.656000 0.342000 0.351100
H21 H 0.682100 0.474100 0.333900
C22 C 0.475100 0.400400 0.295000
H23 H 0.474400 0.321200 0.280500
H24 H 0.496600 0.454300 0.264400
C25 C 0.560100 0.674700 0.374400
H26 H 0.620900 0.658800 0.340600
H27 H 0.634400 0.674800 0.405800
H28 H 0.507700 0.749600 0.371400
C29 C 0.312800 0.630900 0.282700
H30 H 0.227600 0.606800 0.257100
H31 H 0.419100 0.617500 0.265900
H32 H 0.300500 0.712500 0.290800
N33 N -0.159900 0.385700 0.581170
O34 O -0.000900 0.416300 0.658480
O35 O -0.341600 0.613200 0.619100
O36 O -0.376200 0.362500 0.520060
C37 C -0.134500 0.412300 0.636250
C38 C -0.428100 0.419700 0.617070
C39 C -0.324500 0.385400 0.566300
C40 C -0.299200 0.437900 0.664080
C41 C -0.025300 0.356000 0.542200
H42 H 0.056900 0.310000 0.561900
H43 H -0.069200 0.308700 0.511900
C44 C -0.312100 0.570000 0.674300
H45 H -0.213800 0.603500 0.692100
C46 C -0.488700 0.546800 0.608800
H47 H -0.537000 0.561000 0.571600
C48 C 0.056900 0.463100 0.517700
H49 H 0.149900 0.438700 0.494800
H50 H 0.099800 0.510500 0.548100
C51 C -0.600300 0.585000 0.657200
H52 H -0.656000 0.658000 0.648900
H53 H -0.682100 0.525900 0.666100
C54 C -0.475100 0.599600 0.705000
H55 H -0.474400 0.678800 0.719500
H56 H -0.496600 0.545700 0.735600
C57 C -0.560100 0.325300 0.625600
H58 H -0.620900 0.341200 0.659400
H59 H -0.634400 0.325200 0.594200
H60 H -0.507700 0.250400 0.628600
C61 C -0.312800 0.369100 0.717300
H62 H -0.227600 0.393200 0.742900
H63 H -0.419100 0.382500 0.734100
H64 H -0.300500 0.287500 0.709200
N65 N 1.159900 0.614300 0.418830
O66 O 1.000900 0.583700 0.341520
O67 O 1.341600 0.386800 0.380900
O68 O 1.376200 0.637500 0.479940
C69 C 1.134500 0.587700 0.363750
C70 C 1.428100 0.580300 0.382930
C71 C 1.324500 0.614600 0.433700
C72 C 1.299200 0.562100 0.335920
C73 C 1.025300 0.644000 0.457800
H74 H 0.943100 0.690000 0.438100
H75 H 1.069200 0.691300 0.488100
C76 C 1.312100 0.430000 0.325700
H77 H 1.213800 0.396500 0.307900
C78 C 1.488700 0.453200 0.391200
H79 H 1.537000 0.439000 0.428400
C80 C 0.943100 0.536900 0.482300
H81 H 0.850100 0.561300 0.505200
H82 H 0.900200 0.489500 0.451900
C83 C 1.600300 0.415000 0.342800
H84 H 1.656000 0.342000 0.351100
H85 H 1.682100 0.474100 0.333900
C86 C 1.475100 0.400400 0.295000
H87 H 1.474400 0.321200 0.280500
H88 H 1.496600 0.454300 0.264400
C89 C 1.560100 0.674700 0.374400
H90 H 1.620900 0.658800 0.340600
H91 H 1.634400 0.674800 0.405800
H92 H 1.507700 0.749600 0.371400
C93 C 1.312800 0.630900 0.282700
H94 H 1.227600 0.606800 0.257100
H95 H 1.419100 0.617500 0.265900
H96 H 1.300500 0.712500 0.290800
N97 N 0.840100 0.385700 0.581170
O98 O 0.999100 0.416300 0.658480
O99 O 0.658400 0.613200 0.619100
O100 O 0.623800 0.362500 0.520060
C101 C 0.865500 0.412300 0.636250
C102 C 0.571900 0.419700 0.617070
C103 C 0.675500 0.385400 0.566300
C104 C 0.700800 0.437900 0.664080
C105 C 0.974700 0.356000 0.542200
H106 H 1.056900 0.310000 0.561900
H107 H 0.930800 0.308700 0.511900
C108 C 0.687900 0.570000 0.674300
H109 H 0.786200 0.603500 0.692100
C110 C 0.511300 0.546800 0.608800
H111 H 0.463000 0.561000 0.571600
C112 C 1.056900 0.463100 0.517700
H113 H 1.149900 0.438700 0.494800
H114 H 1.099800 0.510500 0.548100
C115 C 0.399700 0.585000 0.657200
H116 H 0.344000 0.658000 0.648900
H117 H 0.317900 0.525900 0.666100
C118 C 0.524900 0.599600 0.705000
H119 H 0.525600 0.678800 0.719500
H120 H 0.503400 0.545700 0.735600
C121 C 0.439900 0.325300 0.625600
H122 H 0.379100 0.341200 0.659400
H123 H 0.365600 0.325200 0.594200
H124 H 0.492300 0.250400 0.628600
C125 C 0.687200 0.369100 0.717300
H126 H 0.772400 0.393200 0.742900
H127 H 0.580900 0.382500 0.734100
H128 H 0.699500 0.287500 0.709200
N129 N 0.340100 0.385700 -0.081170
O130 O 0.499100 0.416300 -0.158480
O131 O 0.158400 0.613200 -0.119100
O132 O 0.123800 0.362500 -0.020060
C133 C 0.365500 0.412300 -0.136250
C134 C 0.071900 0.419700 -0.117070
C135 C 0.175500 0.385400 -0.066300
C136 C 0.200800 0.437900 -0.164080
C137 C 0.474700 0.356000 -0.042200
H138 H 0.556900 0.310000 -0.061900
H139 H 0.430800 0.308700 -0.011900
C140 C 0.187900 0.570000 -0.174300
H141 H 0.286200 0.603500 -0.192100
C142 C 0.011300 0.546800 -0.108800
H143 H -0.037000 0.561000 -0.071600
C144 C 0.556900 0.463100 -0.017700
H145 H 0.649900 0.438700 0.005200
H146 H 0.599800 0.510500 -0.048100
C147 C -0.100300 0.585000 -0.157200
H148 H -0.156000 0.658000 -0.148900
H149 H -0.182100 0.525900 -0.166100
C150 C 0.024900 0.599600 -0.205000
H151 H 0.025600 0.678800 -0.219500
H152 H 0.003400 0.545700 -0.235600
C153 C -0.060100 0.325300 -0.125600
H154 H -0.120900 0.341200 -0.159400
H155 H -0.134400 0.325200 -0.094200
H156 H -0.007700 0.250400 -0.128600
C157 C 0.187200 0.369100 -0.217300
H158 H 0.272400 0.393200 -0.242900
H159 H 0.080900 0.382500 -0.234100
H160 H 0.199500 0.287500 -0.209200
N161 N 0.659900 0.614300 0.081170
O162 O 0.500900 0.583700 0.158480
O163 O 0.841600 0.386800 0.119100
O164 O 0.876200 0.637500 0.020060
C165 C 0.634500 0.587700 0.136250
C166 C 0.928100 0.580300 0.117070
C167 C 0.824500 0.614600 0.066300
C168 C 0.799200 0.562100 0.164080
C169 C 0.525300 0.644000 0.042200
H170 H 0.443100 0.690000 0.061900
H171 H 0.569200 0.691300 0.011900
C172 C 0.812100 0.430000 0.174300
H173 H 0.713800 0.396500 0.192100
C174 C 0.988700 0.453200 0.108800
H175 H 1.037000 0.439000 0.071600
C176 C 0.443100 0.536900 0.017700
H177 H 0.350100 0.561300 -0.005200
H178 H 0.400200 0.489500 0.048100
C179 C 1.100300 0.415000 0.157200
H180 H 1.156000 0.342000 0.148900
H181 H 1.182100 0.474100 0.166100
C182 C 0.975100 0.400400 0.205000
H183 H 0.974400 0.321200 0.219500
H184 H 0.996600 0.454300 0.235600
C185 C 1.060100 0.674700 0.125600
H186 H 1.120900 0.658800 0.159400
H187 H 1.134400 0.674800 0.094200
H188 H 1.007700 0.749600 0.128600
C189 C 0.812800 0.630900 0.217300
H190 H 0.727600 0.606800 0.242900
H191 H 0.919100 0.617500 0.234100
H192 H 0.800500 0.712500 0.209200
N193 N 0.340100 0.385700 0.918830
O194 O 0.499100 0.416300 0.841520
O195 O 0.158400 0.613200 0.880900
O196 O 0.123800 0.362500 0.979940
C197 C 0.365500 0.412300 0.863750
C198 C 0.071900 0.419700 0.882930
C199 C 0.175500 0.385400 0.933700
C200 C 0.200800 0.437900 0.835920
C201 C 0.474700 0.356000 0.957800
H202 H 0.556900 0.310000 0.938100
H203 H 0.430800 0.308700 0.988100
C204 C 0.187900 0.570000 0.825700
H205 H 0.286200 0.603500 0.807900
C206 C 0.011300 0.546800 0.891200
H207 H -0.037000 0.561000 0.928400
C208 C 0.556900 0.463100 0.982300
H209 H 0.649900 0.438700 1.005200
H210 H 0.599800 0.510500 0.951900
C211 C -0.100300 0.585000 0.842800
H212 H -0.156000 0.658000 0.851100
H213 H -0.182100 0.525900 0.833900
C214 C 0.024900 0.599600 0.795000
H215 H 0.025600 0.678800 0.780500
H216 H 0.003400 0.545700 0.764400
C217 C -0.060100 0.325300 0.874400
H218 H -0.120900 0.341200 0.840600
H219 H -0.134400 0.325200 0.905800
H220 H -0.007700 0.250400 0.871400
C221 C 0.187200 0.369100 0.782700
H222 H 0.272400 0.393200 0.757100
H223 H 0.080900 0.382500 0.765900
H224 H 0.199500 0.287500 0.790800
N225 N 0.659900 0.614300 1.081170
O226 O 0.500900 0.583700 1.158480
O227 O 0.841600 0.386800 1.119100
O228 O 0.876200 0.637500 1.020060
C229 C 0.634500 0.587700 1.136250
C230 C 0.928100 0.580300 1.117070
C231 C 0.824500 0.614600 1.066300
C232 C 0.799200 0.562100 1.164080
C233 C 0.525300 0.644000 1.042200
H234 H 0.443100 0.690000 1.061900
H235 H 0.569200 0.691300 1.011900
C236 C 0.812100 0.430000 1.174300
H237 H 0.713800 0.396500 1.192100
C238 C 0.988700 0.453200 1.108800
H239 H 1.037000 0.439000 1.071600
C240 C 0.443100 0.536900 1.017700
H241 H 0.350100 0.561300 0.994800
H242 H 0.400200 0.489500 1.048100
C243 C 1.100300 0.415000 1.157200
H244 H 1.156000 0.342000 1.148900
H245 H 1.182100 0.474100 1.166100
C246 C 0.975100 0.400400 1.205000
H247 H 0.974400 0.321200 1.219500
H248 H 0.996600 0.454300 1.235600
C249 C 1.060100 0.674700 1.125600
H250 H 1.120900 0.658800 1.159400
H251 H 1.134400 0.674800 1.094200
H252 H 1.007700 0.749600 1.128600
C253 C 0.812800 0.630900 1.217300
H254 H 0.727600 0.606800 1.242900
H255 H 0.919100 0.617500 1.234100
H256 H 0.800500 0.712500 1.209200
N257 N 0.659900 -0.114300 0.581170
O258 O 0.500900 -0.083700 0.658480
O259 O 0.841600 0.113200 0.619100
O260 O 0.876200 -0.137500 0.520060
C261 C 0.634500 -0.087700 0.636250
C262 C 0.928100 -0.080300 0.617070
C263 C 0.824500 -0.114600 0.566300
C264 C 0.799200 -0.062100 0.664080
C265 C 0.525300 -0.144000 0.542200
H266 H 0.443100 -0.190000 0.561900
H267 H 0.569200 -0.191300 0.511900
C268 C 0.812100 0.070000 0.674300
H269 H 0.713800 0.103500 0.692100
C270 C 0.988700 0.046800 0.608800
H271 H 1.037000 0.061000 0.571600
C272 C 0.443100 -0.036900 0.517700
H273 H 0.350100 -0.061300 0.494800
H274 H 0.400200 0.010500 0.548100
C275 C 1.100300 0.085000 0.657200
H276 H 1.156000 0.158000 0.648900
H277 H 1.182100 0.025900 0.666100
C278 C 0.975100 0.099600 0.705000
H279 H 0.974400 0.178800 0.719500
H280 H 0.996600 0.045700 0.735600
C281 C 1.060100 -0.174700 0.625600
H282 H 1.120900 -0.158800 0.659400
H283 H 1.134400 -0.174800 0.594200
H284 H 1.007700 -0.249600 0.628600
C285 C 0.812800 -0.130900 0.717300
H286 H 0.727600 -0.106800 0.742900
H287 H 0.919100 -0.117500 0.734100
H288 H 0.800500 -0.212500 0.709200
N289 N 0.340100 0.114300 0.418830
O290 O 0.499100 0.083700 0.341520
O291 O 0.158400 -0.113200 0.380900
O292 O 0.123800 0.137500 0.479940
C293 C 0.365500 0.087700 0.363750
C294 C 0.071900 0.080300 0.382930
C295 C 0.175500 0.114600 0.433700
C296 C 0.200800 0.062100 0.335920
C297 C 0.474700 0.144000 0.457800
H298 H 0.556900 0.190000 0.438100
H299 H 0.430800 0.191300 0.488100
C300 C 0.187900 -0.070000 0.325700
H301 H 0.286200 -0.103500 0.307900
C302 C 0.011300 -0.046800 0.391200
H303 H -0.037000 -0.061000 0.428400
C304 C 0.556900 0.036900 0.482300
H305 H 0.649900 0.061300 0.505200
H306 H 0.599800 -0.010500 0.451900
C307 C -0.100300 -0.085000 0.342800
H308 H -0.156000 -0.158000 0.351100
H309 H -0.182100 -0.025900 0.333900
C310 C 0.024900 -0.099600 0.295000
H311 H 0.025600 -0.178800 0.280500
H312 H 0.003400 -0.045700 0.264400
C313 C -0.060100 0.174700 0.374400
H314 H -0.120900 0.158800 0.340600
H315 H -0.134400 0.174800 0.405800
H316 H -0.007700 0.249600 0.371400
C317 C 0.187200 0.130900 0.282700
H318 H 0.272400 0.106800 0.257100
H319 H 0.080900 0.117500 0.265900
H320 H 0.199500 0.212500 0.290800
N321 N 0.659900 0.885700 0.581170
O322 O 0.500900 0.916300 0.658480
O323 O 0.841600 1.113200 0.619100
O324 O 0.876200 0.862500 0.520060
C325 C 0.634500 0.912300 0.636250
C326 C 0.928100 0.919700 0.617070
C327 C 0.824500 0.885400 0.566300
C328 C 0.799200 0.937900 0.664080
C329 C 0.525300 0.856000 0.542200
H330 H 0.443100 0.810000 0.561900
H331 H 0.569200 0.808700 0.511900
C332 C 0.812100 1.070000 0.674300
H333 H 0.713800 1.103500 0.692100
C334 C 0.988700 1.046800 0.608800
H335 H 1.037000 1.061000 0.571600
C336 C 0.443100 0.963100 0.517700
H337 H 0.350100 0.938700 0.494800
H338 H 0.400200 1.010500 0.548100
C339 C 1.100300 1.085000 0.657200
H340 H 1.156000 1.158000 0.648900
H341 H 1.182100 1.025900 0.666100
C342 C 0.975100 1.099600 0.705000
H343 H 0.974400 1.178800 0.719500
H344 H 0.996600 1.045700 0.735600
C345 C 1.060100 0.825300 0.625600
H346 H 1.120900 0.841200 0.659400
H347 H 1.134400 0.825200 0.594200
H348 H 1.007700 0.750400 0.628600
C349 C 0.812800 0.869100 0.717300
H350 H 0.727600 0.893200 0.742900
H351 H 0.919100 0.882500 0.734100
H352 H 0.800500 0.787500 0.709200
N353 N 0.340100 1.114300 0.418830
O354 O 0.499100 1.083700 0.341520
O355 O 0.158400 0.886800 0.380900
O356 O 0.123800 1.137500 0.479940
C357 C 0.365500 1.087700 0.363750
C358 C 0.071900 1.080300 0.382930
C359 C 0.175500 1.114600 0.433700
C360 C 0.200800 1.062100 0.335920
C361 C 0.474700 1.144000 0.457800
H362 H 0.556900 1.190000 0.438100
H363 H 0.430800 1.191300 0.488100
C364 C 0.187900 0.930000 0.325700
H365 H 0.286200 0.896500 0.307900
C366 C 0.011300 0.953200 0.391200
H367 H -0.037000 0.939000 0.428400
C368 C 0.556900 1.036900 0.482300
H369 H 0.649900 1.061300 0.505200
H370 H 0.599800 0.989500 0.451900
C371 C -0.100300 0.915000 0.342800
H372 H -0.156000 0.842000 0.351100
H373 H -0.182100 0.974100 0.333900
C374 C 0.024900 0.900400 0.295000
H375 H 0.025600 0.821200 0.280500
H376 H 0.003400 0.954300 0.264400
C377 C -0.060100 1.174700 0.374400
H378 H -0.120900 1.158800 0.340600
H379 H -0.134400 1.174800 0.405800
H380 H -0.007700 1.249600 0.371400
C381 C 0.187200 1.130900 0.282700
H382 H 0.272400 1.106800 0.257100
H383 H 0.080900 1.117500 0.265900
H384 H 0.199500 1.212500 0.290800
N385 N -0.159900 0.114300 0.081170
O386 O -0.000900 0.083700 0.158480
O387 O -0.341600 -0.113200 0.119100
O388 O -0.376200 0.137500 0.020060
C389 C -0.134500 0.087700 0.136250
C390 C -0.428100 0.080300 0.117070
C391 C -0.324500 0.114600 0.066300
C392 C -0.299200 0.062100 0.164080
C393 C -0.025300 0.144000 0.042200
H394 H 0.056900 0.190000 0.061900
H395 H -0.069200 0.191300 0.011900
C396 C -0.312100 -0.070000 0.174300
H397 H -0.213800 -0.103500 0.192100
C398 C -0.488700 -0.046800 0.108800
H399 H -0.537000 -0.061000 0.071600
C400 C 0.056900 0.036900 0.017700
H401 H 0.149900 0.061300 -0.005200
H402 H 0.099800 -0.010500 0.048100
C403 C -0.600300 -0.085000 0.157200
H404 H -0.656000 -0.158000 0.148900
H405 H -0.682100 -0.025900 0.166100
C406 C -0.475100 -0.099600 0.205000
H407 H -0.474400 -0.178800 0.219500
H408 H -0.496600 -0.045700 0.235600
C409 C -0.560100 0.174700 0.125600
H410 H -0.620900 0.158800 0.159400
H411 H -0.634400 0.174800 0.094200
H412 H -0.507700 0.249600 0.128600
C413 C -0.312800 0.130900 0.217300
H414 H -0.227600 0.106800 0.242900
H415 H -0.419100 0.117500 0.234100
H416 H -0.300500 0.212500 0.209200
N417 N 0.159900 -0.114300 -0.081170
O418 O 0.000900 -0.083700 -0.158480
O419 O 0.341600 0.113200 -0.119100
O420 O 0.376200 -0.137500 -0.020060
C421 C 0.134500 -0.087700 -0.136250
C422 C 0.428100 -0.080300 -0.117070
C423 C 0.324500 -0.114600 -0.066300
C424 C 0.299200 -0.062100 -0.164080
C425 C 0.025300 -0.144000 -0.042200
H426 H -0.056900 -0.190000 -0.061900
H427 H 0.069200 -0.191300 -0.011900
C428 C 0.312100 0.070000 -0.174300
H429 H 0.213800 0.103500 -0.192100
C430 C 0.488700 0.046800 -0.108800
H431 H 0.537000 0.061000 -0.071600
C432 C -0.056900 -0.036900 -0.017700
H433 H -0.149900 -0.061300 0.005200
H434 H -0.099800 0.010500 -0.048100
C435 C 0.600300 0.085000 -0.157200
H436 H 0.656000 0.158000 -0.148900
H437 H 0.682100 0.025900 -0.166100
C438 C 0.475100 0.099600 -0.205000
H439 H 0.474400 0.178800 -0.219500
H440 H 0.496600 0.045700 -0.235600
C441 C 0.560100 -0.174700 -0.125600
H442 H 0.620900 -0.158800 -0.159400
H443 H 0.634400 -0.174800 -0.094200
H444 H 0.507700 -0.249600 -0.128600
C445 C 0.312800 -0.130900 -0.217300
H446 H 0.227600 -0.106800 -0.242900
H447 H 0.419100 -0.117500 -0.234100
H448 H 0.300500 -0.212500 -0.209200
N449 N -0.159900 0.114300 1.081170
O450 O -0.000900 0.083700 1.158480
O451 O -0.341600 -0.113200 1.119100
O452 O -0.376200 0.137500 1.020060
C453 C -0.134500 0.087700 1.136250
C454 C -0.428100 0.080300 1.117070
C455 C -0.324500 0.114600 1.066300
C456 C -0.299200 0.062100 1.164080
C457 C -0.025300 0.144000 1.042200
H458 H 0.056900 0.190000 1.061900
H459 H -0.069200 0.191300 1.011900
C460 C -0.312100 -0.070000 1.174300
H461 H -0.213800 -0.103500 1.192100
C462 C -0.488700 -0.046800 1.108800
H463 H -0.537000 -0.061000 1.071600
C464 C 0.056900 0.036900 1.017700
H465 H 0.149900 0.061300 0.994800
H466 H 0.099800 -0.010500 1.048100
C467 C -0.600300 -0.085000 1.157200
H468 H -0.656000 -0.158000 1.148900
H469 H -0.682100 -0.025900 1.166100
C470 C -0.475100 -0.099600 1.205000
H471 H -0.474400 -0.178800 1.219500
H472 H -0.496600 -0.045700 1.235600
C473 C -0.560100 0.174700 1.125600
H474 H -0.620900 0.158800 1.159400
H475 H -0.634400 0.174800 1.094200
H476 H -0.507700 0.249600 1.128600
C477 C -0.312800 0.130900 1.217300
H478 H -0.227600 0.106800 1.242900
H479 H -0.419100 0.117500 1.234100
H480 H -0.300500 0.212500 1.209200
N481 N 0.159900 -0.114300 0.918830
O482 O 0.000900 -0.083700 0.841520
O483 O 0.341600 0.113200 0.880900
O484 O 0.376200 -0.137500 0.979940
C485 C 0.134500 -0.087700 0.863750
C486 C 0.428100 -0.080300 0.882930
C487 C 0.324500 -0.114600 0.933700
C488 C 0.299200 -0.062100 0.835920
C489 C 0.025300 -0.144000 0.957800
H490 H -0.056900 -0.190000 0.938100
H491 H 0.069200 -0.191300 0.988100
C492 C 0.312100 0.070000 0.825700
H493 H 0.213800 0.103500 0.807900
C494 C 0.488700 0.046800 0.891200
H495 H 0.537000 0.061000 0.928400
C496 C -0.056900 -0.036900 0.982300
H497 H -0.149900 -0.061300 1.005200
H498 H -0.099800 0.010500 0.951900
C499 C 0.600300 0.085000 0.842800
H500 H 0.656000 0.158000 0.851100
H501 H 0.682100 0.025900 0.833900
C502 C 0.475100 0.099600 0.795000
H503 H 0.474400 0.178800 0.780500
H504 H 0.496600 0.045700 0.764400
C505 C 0.560100 -0.174700 0.874400
H506 H 0.620900 -0.158800 0.840600
H507 H 0.634400 -0.174800 0.905800
H508 H 0.507700 -0.249600 0.871400
C509 C 0.312800 -0.130900 0.782700
H510 H 0.227600 -0.106800 0.757100
H511 H 0.419100 -0.117500 0.765900
H512 H 0.300500 -0.212500 0.790800
N513 N -0.159900 1.114300 0.081170
O514 O -0.000900 1.083700 0.158480
O515 O -0.341600 0.886800 0.119100
O516 O -0.376200 1.137500 0.020060
C517 C -0.134500 1.087700 0.136250
C518 C -0.428100 1.080300 0.117070
C519 C -0.324500 1.114600 0.066300
C520 C -0.299200 1.062100 0.164080
C521 C -0.025300 1.144000 0.042200
H522 H 0.056900 1.190000 0.061900
H523 H -0.069200 1.191300 0.011900
C524 C -0.312100 0.930000 0.174300
H525 H -0.213800 0.896500 0.192100
C526 C -0.488700 0.953200 0.108800
H527 H -0.537000 0.939000 0.071600
C528 C 0.056900 1.036900 0.017700
H529 H 0.149900 1.061300 -0.005200
H530 H 0.099800 0.989500 0.048100
C531 C -0.600300 0.915000 0.157200
H532 H -0.656000 0.842000 0.148900
H533 H -0.682100 0.974100 0.166100
C534 C -0.475100 0.900400 0.205000
H535 H -0.474400 0.821200 0.219500
H536 H -0.496600 0.954300 0.235600
C537 C -0.560100 1.174700 0.125600
H538 H -0.620900 1.158800 0.159400
H539 H -0.634400 1.174800 0.094200
H540 H -0.507700 1.249600 0.128600
C541 C -0.312800 1.130900 0.217300
H542 H -0.227600 1.106800 0.242900
H543 H -0.419100 1.117500 0.234100
H544 H -0.300500 1.212500 0.209200
N545 N 0.159900 0.885700 -0.081170
O546 O 0.000900 0.916300 -0.158480
O547 O 0.341600 1.113200 -0.119100
O548 O 0.376200 0.862500 -0.020060
C549 C 0.134500 0.912300 -0.136250
C550 C 0.428100 0.919700 -0.117070
C551 C 0.324500 0.885400 -0.066300
C552 C 0.299200 0.937900 -0.164080
C553 C 0.025300 0.856000 -0.042200
H554 H -0.056900 0.810000 -0.061900
H555 H 0.069200 0.808700 -0.011900
C556 C 0.312100 1.070000 -0.174300
H557 H 0.213800 1.103500 -0.192100
C558 C 0.488700 1.046800 -0.108800
H559 H 0.537000 1.061000 -0.071600
C560 C -0.056900 0.963100 -0.017700
H561 H -0.149900 0.938700 0.005200
H562 H -0.099800 1.010500 -0.048100
C563 C 0.600300 1.085000 -0.157200
H564 H 0.656000 1.158000 -0.148900
H565 H 0.682100 1.025900 -0.166100
C566 C 0.475100 1.099600 -0.205000
H567 H 0.474400 1.178800 -0.219500
H568 H 0.496600 1.045700 -0.235600
C569 C 0.560100 0.825300 -0.125600
H570 H 0.620900 0.841200 -0.159400
H571 H 0.634400 0.825200 -0.094200
H572 H 0.507700 0.750400 -0.128600
C573 C 0.312800 0.869100 -0.217300
H574 H 0.227600 0.893200 -0.242900
H575 H 0.419100 0.882500 -0.234100
H576 H 0.300500 0.787500 -0.209200
N577 N -0.159900 1.114300 1.081170
O578 O -0.000900 1.083700 1.158480
O579 O -0.341600 0.886800 1.119100
O580 O -0.376200 1.137500 1.020060
C581 C -0.134500 1.087700 1.136250
C582 C -0.428100 1.080300 1.117070
C583 C -0.324500 1.114600 1.066300
C584 C -0.299200 1.062100 1.164080
C585 C -0.025300 1.144000 1.042200
H586 H 0.056900 1.190000 1.061900
H587 H -0.069200 1.191300 1.011900
C588 C -0.312100 0.930000 1.174300
H589 H -0.213800 0.896500 1.192100
C590 C -0.488700 0.953200 1.108800
H591 H -0.537000 0.939000 1.071600
C592 C 0.056900 1.036900 1.017700
H593 H 0.149900 1.061300 0.994800
H594 H 0.099800 0.989500 1.048100
C595 C -0.600300 0.915000 1.157200
H596 H -0.656000 0.842000 1.148900
H597 H -0.682100 0.974100 1.166100
C598 C -0.475100 0.900400 1.205000
H599 H -0.474400 0.821200 1.219500
H600 H -0.496600 0.954300 1.235600
C601 C -0.560100 1.174700 1.125600
H602 H -0.620900 1.158800 1.159400
H603 H -0.634400 1.174800 1.094200
H604 H -0.507700 1.249600 1.128600
C605 C -0.312800 1.130900 1.217300
H606 H -0.227600 1.106800 1.242900
H607 H -0.419100 1.117500 1.234100
H608 H -0.300500 1.212500 1.209200
N609 N 0.159900 0.885700 0.918830
O610 O 0.000900 0.916300 0.841520
O611 O 0.341600 1.113200 0.880900
O612 O 0.376200 0.862500 0.979940
C613 C 0.134500 0.912300 0.863750
C614 C 0.428100 0.919700 0.882930
C615 C 0.324500 0.885400 0.933700
C616 C 0.299200 0.937900 0.835920
C617 C 0.025300 0.856000 0.957800
H618 H -0.056900 0.810000 0.938100
H619 H 0.069200 0.808700 0.988100
C620 C 0.312100 1.070000 0.825700
H621 H 0.213800 1.103500 0.807900
C622 C 0.488700 1.046800 0.891200
H623 H 0.537000 1.061000 0.928400
C624 C -0.056900 0.963100 0.982300
H625 H -0.149900 0.938700 1.005200
H626 H -0.099800 1.010500 0.951900
C627 C 0.600300 1.085000 0.842800
H628 H 0.656000 1.158000 0.851100
H629 H 0.682100 1.025900 0.833900
C630 C 0.475100 1.099600 0.795000
H631 H 0.474400 1.178800 0.780500
H632 H 0.496600 1.045700 0.764400
C633 C 0.560100 0.825300 0.874400
H634 H 0.620900 0.841200 0.840600
H635 H 0.634400 0.825200 0.905800
H636 H 0.507700 0.750400 0.871400
C637 C 0.312800 0.869100 0.782700
H638 H 0.227600 0.893200 0.757100
H639 H 0.419100 0.882500 0.765900
H640 H 0.300500 0.787500 0.790800
N641 N 0.840100 0.114300 0.081170
O642 O 0.999100 0.083700 0.158480
O643 O 0.658400 -0.113200 0.119100
O644 O 0.623800 0.137500 0.020060
C645 C 0.865500 0.087700 0.136250
C646 C 0.571900 0.080300 0.117070
C647 C 0.675500 0.114600 0.066300
C648 C 0.700800 0.062100 0.164080
C649 C 0.974700 0.144000 0.042200
H650 H 1.056900 0.190000 0.061900
H651 H 0.930800 0.191300 0.011900
C652 C 0.687900 -0.070000 0.174300
H653 H 0.786200 -0.103500 0.192100
C654 C 0.511300 -0.046800 0.108800
H655 H 0.463000 -0.061000 0.071600
C656 C 1.056900 0.036900 0.017700
H657 H 1.149900 0.061300 -0.005200
H658 H 1.099800 -0.010500 0.048100
C659 C 0.399700 -0.085000 0.157200
H660 H 0.344000 -0.158000 0.148900
H661 H 0.317900 -0.025900 0.166100
C662 C 0.524900 -0.099600 0.205000
H663 H 0.525600 -0.178800 0.219500
H664 H 0.503400 -0.045700 0.235600
C665 C 0.439900 0.174700 0.125600
H666 H 0.379100 0.158800 0.159400
H667 H 0.365600 0.174800 0.094200
H668 H 0.492300 0.249600 0.128600
C669 C 0.687200 0.130900 0.217300
H670 H 0.772400 0.106800 0.242900
H671 H 0.580900 0.117500 0.234100
H672 H 0.699500 0.212500 0.209200
N673 N 1.159900 -0.114300 -0.081170
O674 O 1.000900 -0.083700 -0.158480
O675 O 1.341600 0.113200 -0.119100
O676 O 1.376200 -0.137500 -0.020060
C677 C 1.134500 -0.087700 -0.136250
C678 C 1.428100 -0.080300 -0.117070
C679 C 1.324500 -0.114600 -0.066300
C680 C 1.299200 -0.062100 -0.164080
C681 C 1.025300 -0.144000 -0.042200
H682 H 0.943100 -0.190000 -0.061900
H683 H 1.069200 -0.191300 -0.011900
C684 C 1.312100 0.070000 -0.174300
H685 H 1.213800 0.103500 -0.192100
C686 C 1.488700 0.046800 -0.108800
H687 H 1.537000 0.061000 -0.071600
C688 C 0.943100 -0.036900 -0.017700
H689 H 0.850100 -0.061300 0.005200
H690 H 0.900200 0.010500 -0.048100
C691 C 1.600300 0.085000 -0.157200
H692 H 1.656000 0.158000 -0.148900
H693 H 1.682100 0.025900 -0.166100
C694 C 1.475100 0.099600 -0.205000
H695 H 1.474400 0.178800 -0.219500
H696 H 1.496600 0.045700 -0.235600
C697 C 1.560100 -0.174700 -0.125600
H698 H 1.620900 -0.158800 -0.159400
H699 H 1.634400 -0.174800 -0.094200
H700 H 1.507700 -0.249600 -0.128600
C701 C 1.312800 -0.130900 -0.217300
H702 H 1.227600 -0.106800 -0.242900
H703 H 1.419100 -0.117500 -0.234100
H704 H 1.300500 -0.212500 -0.209200
N705 N 0.840100 0.114300 1.081170
O706 O 0.999100 0.083700 1.158480
O707 O 0.658400 -0.113200 1.119100
O708 O 0.623800 0.137500 1.020060
C709 C 0.865500 0.087700 1.136250
C710 C 0.571900 0.080300 1.117070
C711 C 0.675500 0.114600 1.066300
C712 C 0.700800 0.062100 1.164080
C713 C 0.974700 0.144000 1.042200
H714 H 1.056900 0.190000 1.061900
H715 H 0.930800 0.191300 1.011900
C716 C 0.687900 -0.070000 1.174300
H717 H 0.786200 -0.103500 1.192100
C718 C 0.511300 -0.046800 1.108800
H719 H 0.463000 -0.061000 1.071600
C720 C 1.056900 0.036900 1.017700
H721 H 1.149900 0.061300 0.994800
H722 H 1.099800 -0.010500 1.048100
C723 C 0.399700 -0.085000 1.157200
H724 H 0.344000 -0.158000 1.148900
H725 H 0.317900 -0.025900 1.166100
C726 C 0.524900 -0.099600 1.205000
H727 H 0.525600 -0.178800 1.219500
H728 H 0.503400 -0.045700 1.235600
C729 C 0.439900 0.174700 1.125600
H730 H 0.379100 0.158800 1.159400
H731 H 0.365600 0.174800 1.094200
H732 H 0.492300 0.249600 1.128600
C733 C 0.687200 0.130900 1.217300
H734 H 0.772400 0.106800 1.242900
H735 H 0.580900 0.117500 1.234100
H736 H 0.699500 0.212500 1.209200
N737 N 1.159900 -0.114300 0.918830
O738 O 1.000900 -0.083700 0.841520
O739 O 1.341600 0.113200 0.880900
O740 O 1.376200 -0.137500 0.979940
C741 C 1.134500 -0.087700 0.863750
C742 C 1.428100 -0.080300 0.882930
C743 C 1.324500 -0.114600 0.933700
C744 C 1.299200 -0.062100 0.835920
C745 C 1.025300 -0.144000 0.957800
H746 H 0.943100 -0.190000 0.938100
H747 H 1.069200 -0.191300 0.988100
C748 C 1.312100 0.070000 0.825700
H749 H 1.213800 0.103500 0.807900
C750 C 1.488700 0.046800 0.891200
H751 H 1.537000 0.061000 0.928400
C752 C 0.943100 -0.036900 0.982300
H753 H 0.850100 -0.061300 1.005200
H754 H 0.900200 0.010500 0.951900
C755 C 1.600300 0.085000 0.842800
H756 H 1.656000 0.158000 0.851100
H757 H 1.682100 0.025900 0.833900
C758 C 1.475100 0.099600 0.795000
H759 H 1.474400 0.178800 0.780500
H760 H 1.496600 0.045700 0.764400
C761 C 1.560100 -0.174700 0.874400
H762 H 1.620900 -0.158800 0.840600
H763 H 1.634400 -0.174800 0.905800
H764 H 1.507700 -0.249600 0.871400
C765 C 1.312800 -0.130900 0.782700
H766 H 1.227600 -0.106800 0.757100
H767 H 1.419100 -0.117500 0.765900
H768 H 1.300500 -0.212500 0.790800
N769 N 0.840100 1.114300 0.081170
O770 O 0.999100 1.083700 0.158480
O771 O 0.658400 0.886800 0.119100
O772 O 0.623800 1.137500 0.020060
C773 C 0.865500 1.087700 0.136250
C774 C 0.571900 1.080300 0.117070
C775 C 0.675500 1.114600 0.066300
C776 C 0.700800 1.062100 0.164080
C777 C 0.974700 1.144000 0.042200
H778 H 1.056900 1.190000 0.061900
H779 H 0.930800 1.191300 0.011900
C780 C 0.687900 0.930000 0.174300
H781 H 0.786200 0.896500 0.192100
C782 C 0.511300 0.953200 0.108800
H783 H 0.463000 0.939000 0.071600
C784 C 1.056900 1.036900 0.017700
H785 H 1.149900 1.061300 -0.005200
H786 H 1.099800 0.989500 0.048100
C787 C 0.399700 0.915000 0.157200
H788 H 0.344000 0.842000 0.148900
H789 H 0.317900 0.974100 0.166100
C790 C 0.524900 0.900400 0.205000
H791 H 0.525600 0.821200 0.219500
H792 H 0.503400 0.954300 0.235600
C793 C 0.439900 1.174700 0.125600
H794 H 0.379100 1.158800 0.159400
H795 H 0.365600 1.174800 0.094200
H796 H 0.492300 1.249600 0.128600
C797 C 0.687200 1.130900 0.217300
H798 H 0.772400 1.106800 0.242900
H799 H 0.580900 1.117500 0.234100
H800 H 0.699500 1.212500 0.209200
N801 N 1.159900 0.885700 -0.081170
O802 O 1.000900 0.916300 -0.158480
O803 O 1.341600 1.113200 -0.119100
O804 O 1.376200 0.862500 -0.020060
C805 C 1.134500 0.912300 -0.136250
C806 C 1.428100 0.919700 -0.117070
C807 C 1.324500 0.885400 -0.066300
C808 C 1.299200 0.937900 -0.164080
C809 C 1.025300 0.856000 -0.042200
H810 H 0.943100 0.810000 -0.061900
H811 H 1.069200 0.808700 -0.011900
C812 C 1.312100 1.070000 -0.174300
H813 H 1.213800 1.103500 -0.192100
C814 C 1.488700 1.046800 -0.108800
H815 H 1.537000 1.061000 -0.071600
C816 C 0.943100 0.963100 -0.017700
H817 H 0.850100 0.938700 0.005200
H818 H 0.900200 1.010500 -0.048100
C819 C 1.600300 1.085000 -0.157200
H820 H 1.656000 1.158000 -0.148900
H821 H 1.682100 1.025900 -0.166100
C822 C 1.475100 1.099600 -0.205000
H823 H 1.474400 1.178800 -0.219500
H824 H 1.496600 1.045700 -0.235600
C825 C 1.560100 0.825300 -0.125600
H826 H 1.620900 0.841200 -0.159400
H827 H 1.634400 0.825200 -0.094200
H828 H 1.507700 0.750400 -0.128600
C829 C 1.312800 0.869100 -0.217300
H830 H 1.227600 0.893200 -0.242900
H831 H 1.419100 0.882500 -0.234100
H832 H 1.300500 0.787500 -0.209200
N833 N 0.840100 1.114300 1.081170
O834 O 0.999100 1.083700 1.158480
O835 O 0.658400 0.886800 1.119100
O836 O 0.623800 1.137500 1.020060
C837 C 0.865500 1.087700 1.136250
C838 C 0.571900 1.080300 1.117070
C839 C 0.675500 1.114600 1.066300
C840 C 0.700800 1.062100 1.164080
C841 C 0.974700 1.144000 1.042200
H842 H 1.056900 1.190000 1.061900
H843 H 0.930800 1.191300 1.011900
C844 C 0.687900 0.930000 1.174300
H845 H 0.786200 0.896500 1.192100
C846 C 0.511300 0.953200 1.108800
H847 H 0.463000 0.939000 1.071600
C848 C 1.056900 1.036900 1.017700
H849 H 1.149900 1.061300 0.994800
H850 H 1.099800 0.989500 1.048100
C851 C 0.399700 0.915000 1.157200
H852 H 0.344000 0.842000 1.148900
H853 H 0.317900 0.974100 1.166100
C854 C 0.524900 0.900400 1.205000
H855 H 0.525600 0.821200 1.219500
H856 H 0.503400 0.954300 1.235600
C857 C 0.439900 1.174700 1.125600
H858 H 0.379100 1.158800 1.159400
H859 H 0.365600 1.174800 1.094200
H860 H 0.492300 1.249600 1.128600
C861 C 0.687200 1.130900 1.217300
H862 H 0.772400 1.106800 1.242900
H863 H 0.580900 1.117500 1.234100
H864 H 0.699500 1.212500 1.209200
N865 N 1.159900 0.885700 0.918830
O866 O 1.000900 0.916300 0.841520
O867 O 1.341600 1.113200 0.880900
O868 O 1.376200 0.862500 0.979940
C869 C 1.134500 0.912300 0.863750
C870 C 1.428100 0.919700 0.882930
C871 C 1.324500 0.885400 0.933700
C872 C 1.299200 0.937900 0.835920
C873 C 1.025300 0.856000 0.957800
H874 H 0.943100 0.810000 0.938100
H875 H 1.069200 0.808700 0.988100
C876 C 1.312100 1.070000 0.825700
H877 H 1.213800 1.103500 0.807900
C878 C 1.488700 1.046800 0.891200
H879 H 1.537000 1.061000 0.928400
C880 C 0.943100 0.963100 0.982300
H881 H 0.850100 0.938700 1.005200
H882 H 0.900200 1.010500 0.951900
C883 C 1.600300 1.085000 0.842800
H884 H 1.656000 1.158000 0.851100
H885 H 1.682100 1.025900 0.833900
C886 C 1.475100 1.099600 0.795000
H887 H 1.474400 1.178800 0.780500
H888 H 1.496600 1.045700 0.764400
C889 C 1.560100 0.825300 0.874400
H890 H 1.620900 0.841200 0.840600
H891 H 1.634400 0.825200 0.905800
H892 H 1.507700 0.750400 0.871400
C893 C 1.312800 0.869100 0.782700
H894 H 1.227600 0.893200 0.757100
H895 H 1.419100 0.882500 0.765900
H896 H 1.300500 0.787500 0.790800

#END
