./LADDIF_from_xyz.cif_generated_by_CrystalShift
_symmetry_cell_setting triclinic
_symmetry_space_group_name_H-M 'P 1'
loop_
_symmetry_equiv_pos_site_id
_symmetry_equiv_pos_as_xyz
1 x,y,z
_cell_length_a 4.987800
_cell_length_b 9.993100
_cell_length_c 11.462500
_cell_angle_alpha 113.250000
_cell_angle_beta 92.103000
_cell_angle_gamma 93.352000
_cell_volume 522.922745
loop_
_atom_site_label
_atom_site_type_symbol
_atom_site_fract_x
_atom_site_fract_y
_atom_site_fract_z
Br1 Br 0.788510 0.748340 0.196080
N2 N 0.337700 0.402200 0.215300
C3 C 0.472200 0.374300 0.305200
N4 N 0.356400 0.257300 0.327000
H5 H 0.225000 0.218000 0.287000
C6 C 0.708700 0.457600 0.370000
H7 H 0.801000 0.436500 0.434000
C8 C 0.804000 0.570400 0.338900
H9 H 0.963300 0.628800 0.381500
C10 C 0.666600 0.598000 0.245400
C11 C 0.431500 0.511700 0.185900
H12 H 0.335100 0.531600 0.122300
C13 C 0.452300 0.193800 0.405000
O14 O 0.665500 0.234600 0.469100
C15 C 0.272300 0.068200 0.404400
H16 H 0.262400 0.074200 0.491500
H17 H 0.344900 -0.023900 0.351400
H18 H 0.091800 0.072100 0.369700
Br19 Br 0.211490 0.251660 0.803920
N20 N 0.662300 0.597800 0.784700
C21 C 0.527800 0.625700 0.694800
N22 N 0.643600 0.742700 0.673000
H23 H 0.775000 0.782000 0.713000
C24 C 0.291300 0.542400 0.630000
H25 H 0.199000 0.563500 0.566000
C26 C 0.196000 0.429600 0.661100
H27 H 0.036700 0.371200 0.618500
C28 C 0.333400 0.402000 0.754600
C29 C 0.568500 0.488300 0.814100
H30 H 0.664900 0.468400 0.877700
C31 C 0.547700 0.806200 0.595000
O32 O 0.334500 0.765400 0.530900
C33 C 0.727700 0.931800 0.595600
H34 H 0.737600 0.925800 0.508500
H35 H 0.655100 1.023900 0.648600
H36 H 0.908200 0.927900 0.630300
C37 C 0.799800 0.142100 0.079000
O38 O 0.889200 0.261100 0.065600
H39 H 1.008000 0.295000 0.109000
O40 O 0.901500 0.097200 0.153000
C41 C 0.553600 0.067200 -0.008300
H42 H 0.411500 0.136400 0.008700
H43 H 0.599700 0.039900 -0.097700
C44 C 0.200200 -0.142100 -0.079000
O45 O 0.110800 -0.261100 -0.065600
H46 H -0.008000 -0.295000 -0.109000
O47 O 0.098500 -0.097200 -0.153000
C48 C 0.446400 -0.067200 0.008300
H49 H 0.588500 -0.136400 -0.008700
H50 H 0.400300 -0.039900 0.097700
C51 C 0.799800 0.142100 1.079000
O52 O 0.889200 0.261100 1.065600
H53 H 1.008000 0.295000 1.109000
O54 O 0.901500 0.097200 1.153000
C55 C 0.553600 0.067200 0.991700
H56 H 0.411500 0.136400 1.008700
H57 H 0.599700 0.039900 0.902300
C58 C 0.200200 -0.142100 0.921000
O59 O 0.110800 -0.261100 0.934400
H60 H -0.008000 -0.295000 0.891000
O61 O 0.098500 -0.097200 0.847000
C62 C 0.446400 -0.067200 1.008300
H63 H 0.588500 -0.136400 0.991300
H64 H 0.400300 -0.039900 1.097700
C65 C 0.799800 1.142100 0.079000
O66 O 0.889200 1.261100 0.065600
H67 H 1.008000 1.295000 0.109000
O68 O 0.901500 1.097200 0.153000
C69 C 0.553600 1.067200 -0.008300
H70 H 0.411500 1.136400 0.008700
H71 H 0.599700 1.039900 -0.097700
C72 C 0.200200 0.857900 -0.079000
O73 O 0.110800 0.738900 -0.065600
H74 H -0.008000 0.705000 -0.109000
O75 O 0.098500 0.902800 -0.153000
C76 C 0.446400 0.932800 0.008300
H77 H 0.588500 0.863600 -0.008700
H78 H 0.400300 0.960100 0.097700
C79 C 0.799800 1.142100 1.079000
O80 O 0.889200 1.261100 1.065600
H81 H 1.008000 1.295000 1.109000
O82 O 0.901500 1.097200 1.153000
C83 C 0.553600 1.067200 0.991700
H84 H 0.411500 1.136400 1.008700
H85 H 0.599700 1.039900 0.902300
C86 C 0.200200 0.857900 0.921000
O87 O 0.110800 0.738900 0.934400
H88 H -0.008000 0.705000 0.891000
O89 O 0.098500 0.902800 0.847000
C90 C 0.446400 0.932800 1.008300
H91 H 0.588500 0.863600 0.991300
H92 H 0.400300 0.960100 1.097700

#END
