./LADJOR_from_xyz.cif_generated_by_CrystalShift
_symmetry_cell_setting triclinic
_symmetry_space_group_name_H-M 'P 1'
loop_
_symmetry_equiv_pos_site_id
_symmetry_equiv_pos_as_xyz
1 x,y,z
_cell_length_a 13.075600
_cell_length_b 16.106900
_cell_length_c 15.685300
_cell_angle_alpha 90.000000
_cell_angle_beta 106.478000
_cell_angle_gamma 90.000000
_cell_volume 3167.763529
loop_
_atom_site_label
_atom_site_type_symbol
_atom_site_fract_x
_atom_site_fract_y
_atom_site_fract_z
Hg1 Hg 0.278393 0.343047 0.261844
Br2 Br 0.122470 0.444030 0.247470
Br3 Br 0.416220 0.362960 0.416650
P4 P 0.347660 0.329670 0.129510
P5 P 0.283380 0.155380 0.170630
Cl6 Cl -0.162720 0.194100 0.460820
O7 O 0.064200 0.211690 0.128540
C8 C 0.291600 0.229400 0.085500
H9 H 0.219200 0.238300 0.044900
H10 H 0.336100 0.205300 0.050100
C11 C 0.292800 0.400100 0.037800
C12 C 0.184800 0.418000 0.018000
H13 H 0.143300 0.393400 0.052100
C14 C 0.136700 0.471400 -0.051000
H15 H 0.062500 0.482600 -0.065300
C16 C 0.199200 0.508300 -0.098800
H17 H 0.167500 0.545700 -0.145800
C18 C 0.305200 0.491600 -0.079100
H19 H 0.347000 0.517200 -0.112400
C20 C 0.352500 0.437500 -0.010900
H21 H 0.426700 0.426100 0.002500
C22 C 0.490800 0.323900 0.151600
C23 C 0.553500 0.354800 0.232100
H24 H 0.520500 0.378900 0.272900
C25 C 0.662700 0.351000 0.253200
H26 H 0.705100 0.373100 0.308000
C27 C 0.710600 0.315000 0.195100
H28 H 0.786200 0.312000 0.210100
C29 C 0.649800 0.283200 0.114600
H30 H 0.683500 0.258400 0.074700
C31 C 0.539800 0.287700 0.092600
H32 H 0.497700 0.266200 0.037400
C33 C 0.417000 0.124700 0.227800
C34 C 0.476800 0.081800 0.181900
H35 H 0.446600 0.069700 0.120700
C36 C 0.578800 0.056700 0.223900
H37 H 0.618900 0.027900 0.191400
C38 C 0.623900 0.073100 0.313300
H39 H 0.693900 0.054000 0.342500
C40 C 0.566800 0.117000 0.359500
H41 H 0.598300 0.129500 0.420600
C42 C 0.463700 0.143300 0.318000
H43 H 0.424900 0.173700 0.350400
C44 C 0.212300 0.066600 0.113700
C45 C 0.222100 0.042200 0.030500
H46 H 0.265400 0.073200 0.002600
C47 C 0.168200 -0.027600 -0.010600
H48 H 0.174300 -0.044000 -0.067200
C49 C 0.105800 -0.073800 0.029500
H50 H 0.070100 -0.122000 0.001100
C51 C 0.095300 -0.049500 0.111800
H52 H 0.052000 -0.080700 0.139400
C53 C 0.148700 0.020400 0.153000
H54 H 0.141500 0.037000 0.209200
C55 C 0.221900 0.199900 0.246100
H56 H 0.241500 0.170100 0.304500
C57 C 0.108300 0.207800 0.209800
C58 C 0.040400 0.208500 0.272700
C59 C 0.076200 0.241900 0.358400
H60 H 0.144600 0.267100 0.377300
C61 C 0.013700 0.238700 0.415400
H62 H 0.037900 0.262400 0.473200
C63 C -0.084800 0.200800 0.387600
C64 C -0.121300 0.166900 0.303700
H65 H -0.188900 0.140400 0.285500
C66 C -0.059100 0.172000 0.246500
H67 H -0.084900 0.150000 0.188100
Hg68 Hg 0.721607 0.843047 0.238156
Br69 Br 0.877530 0.944030 0.252530
Br70 Br 0.583780 0.862960 0.083350
P71 P 0.652340 0.829670 0.370490
P72 P 0.716620 0.655380 0.329370
Cl73 Cl 1.162720 0.694100 0.039180
O74 O 0.935800 0.711690 0.371460
C75 C 0.708400 0.729400 0.414500
H76 H 0.780800 0.738300 0.455100
H77 H 0.663900 0.705300 0.449900
C78 C 0.707200 0.900100 0.462200
C79 C 0.815200 0.918000 0.482000
H80 H 0.856700 0.893400 0.447900
C81 C 0.863300 0.971400 0.551000
H82 H 0.937500 0.982600 0.565300
C83 C 0.800800 1.008300 0.598800
H84 H 0.832500 1.045700 0.645800
C85 C 0.694800 0.991600 0.579100
H86 H 0.653000 1.017200 0.612400
C87 C 0.647500 0.937500 0.510900
H88 H 0.573300 0.926100 0.497500
C89 C 0.509200 0.823900 0.348400
C90 C 0.446500 0.854800 0.267900
H91 H 0.479500 0.878900 0.227100
C92 C 0.337300 0.851000 0.246800
H93 H 0.294900 0.873100 0.192000
C94 C 0.289400 0.815000 0.304900
H95 H 0.213800 0.812000 0.289900
C96 C 0.350200 0.783200 0.385400
H97 H 0.316500 0.758400 0.425300
C98 C 0.460200 0.787700 0.407400
H99 H 0.502300 0.766200 0.462600
C100 C 0.583000 0.624700 0.272200
C101 C 0.523200 0.581800 0.318100
H102 H 0.553400 0.569700 0.379300
C103 C 0.421200 0.556700 0.276100
H104 H 0.381100 0.527900 0.308600
C105 C 0.376100 0.573100 0.186700
H106 H 0.306100 0.554000 0.157500
C107 C 0.433200 0.617000 0.140500
H108 H 0.401700 0.629500 0.079400
C109 C 0.536300 0.643300 0.182000
H110 H 0.575100 0.673700 0.149600
C111 C 0.787700 0.566600 0.386300
C112 C 0.777900 0.542200 0.469500
H113 H 0.734600 0.573200 0.497400
C114 C 0.831800 0.472400 0.510600
H115 H 0.825700 0.456000 0.567200
C116 C 0.894200 0.426200 0.470500
H117 H 0.929900 0.378000 0.498900
C118 C 0.904700 0.450500 0.388200
H119 H 0.948000 0.419300 0.360600
C120 C 0.851300 0.520400 0.347000
H121 H 0.858500 0.537000 0.290800
C122 C 0.778100 0.699900 0.253900
H123 H 0.758500 0.670100 0.195500
C124 C 0.891700 0.707800 0.290200
C125 C 0.959600 0.708500 0.227300
C126 C 0.923800 0.741900 0.141600
H127 H 0.855400 0.767100 0.122700
C128 C 0.986300 0.738700 0.084600
H129 H 0.962100 0.762400 0.026800
C130 C 1.084800 0.700800 0.112400
C131 C 1.121300 0.666900 0.196300
H132 H 1.188900 0.640400 0.214500
C133 C 1.059100 0.672000 0.253500
H134 H 1.084900 0.650000 0.311900
Hg135 Hg 0.721607 0.656953 0.738156
Br136 Br 0.877530 0.555970 0.752530
Br137 Br 0.583780 0.637040 0.583350
P138 P 0.652340 0.670330 0.870490
P139 P 0.716620 0.844620 0.829370
Cl140 Cl 1.162720 0.805900 0.539180
O141 O 0.935800 0.788310 0.871460
C142 C 0.708400 0.770600 0.914500
H143 H 0.780800 0.761700 0.955100
H144 H 0.663900 0.794700 0.949900
C145 C 0.707200 0.599900 0.962200
C146 C 0.815200 0.582000 0.982000
H147 H 0.856700 0.606600 0.947900
C148 C 0.863300 0.528600 1.051000
H149 H 0.937500 0.517400 1.065300
C150 C 0.800800 0.491700 1.098800
H151 H 0.832500 0.454300 1.145800
C152 C 0.694800 0.508400 1.079100
H153 H 0.653000 0.482800 1.112400
C154 C 0.647500 0.562500 1.010900
H155 H 0.573300 0.573900 0.997500
C156 C 0.509200 0.676100 0.848400
C157 C 0.446500 0.645200 0.767900
H158 H 0.479500 0.621100 0.727100
C159 C 0.337300 0.649000 0.746800
H160 H 0.294900 0.626900 0.692000
C161 C 0.289400 0.685000 0.804900
H162 H 0.213800 0.688000 0.789900
C163 C 0.350200 0.716800 0.885400
H164 H 0.316500 0.741600 0.925300
C165 C 0.460200 0.712300 0.907400
H166 H 0.502300 0.733800 0.962600
C167 C 0.583000 0.875300 0.772200
C168 C 0.523200 0.918200 0.818100
H169 H 0.553400 0.930300 0.879300
C170 C 0.421200 0.943300 0.776100
H171 H 0.381100 0.972100 0.808600
C172 C 0.376100 0.926900 0.686700
H173 H 0.306100 0.946000 0.657500
C174 C 0.433200 0.883000 0.640500
H175 H 0.401700 0.870500 0.579400
C176 C 0.536300 0.856700 0.682000
H177 H 0.575100 0.826300 0.649600
C178 C 0.787700 0.933400 0.886300
C179 C 0.777900 0.957800 0.969500
H180 H 0.734600 0.926800 0.997400
C181 C 0.831800 1.027600 1.010600
H182 H 0.825700 1.044000 1.067200
C183 C 0.894200 1.073800 0.970500
H184 H 0.929900 1.122000 0.998900
C185 C 0.904700 1.049500 0.888200
H186 H 0.948000 1.080700 0.860600
C187 C 0.851300 0.979600 0.847000
H188 H 0.858500 0.963000 0.790800
C189 C 0.778100 0.800100 0.753900
H190 H 0.758500 0.829900 0.695500
C191 C 0.891700 0.792200 0.790200
C192 C 0.959600 0.791500 0.727300
C193 C 0.923800 0.758100 0.641600
H194 H 0.855400 0.732900 0.622700
C195 C 0.986300 0.761300 0.584600
H196 H 0.962100 0.737600 0.526800
C197 C 1.084800 0.799200 0.612400
C198 C 1.121300 0.833100 0.696300
H199 H 1.188900 0.859600 0.714500
C200 C 1.059100 0.828000 0.753500
H201 H 1.084900 0.850000 0.811900
Hg202 Hg 0.278393 0.156953 0.761844
Br203 Br 0.122470 0.055970 0.747470
Br204 Br 0.416220 0.137040 0.916650
P205 P 0.347660 0.170330 0.629510
P206 P 0.283380 0.344620 0.670630
Cl207 Cl -0.162720 0.305900 0.960820
O208 O 0.064200 0.288310 0.628540
C209 C 0.291600 0.270600 0.585500
H210 H 0.219200 0.261700 0.544900
H211 H 0.336100 0.294700 0.550100
C212 C 0.292800 0.099900 0.537800
C213 C 0.184800 0.082000 0.518000
H214 H 0.143300 0.106600 0.552100
C215 C 0.136700 0.028600 0.449000
H216 H 0.062500 0.017400 0.434700
C217 C 0.199200 -0.008300 0.401200
H218 H 0.167500 -0.045700 0.354200
C219 C 0.305200 0.008400 0.420900
H220 H 0.347000 -0.017200 0.387600
C221 C 0.352500 0.062500 0.489100
H222 H 0.426700 0.073900 0.502500
C223 C 0.490800 0.176100 0.651600
C224 C 0.553500 0.145200 0.732100
H225 H 0.520500 0.121100 0.772900
C226 C 0.662700 0.149000 0.753200
H227 H 0.705100 0.126900 0.808000
C228 C 0.710600 0.185000 0.695100
H229 H 0.786200 0.188000 0.710100
C230 C 0.649800 0.216800 0.614600
H231 H 0.683500 0.241600 0.574700
C232 C 0.539800 0.212300 0.592600
H233 H 0.497700 0.233800 0.537400
C234 C 0.417000 0.375300 0.727800
C235 C 0.476800 0.418200 0.681900
H236 H 0.446600 0.430300 0.620700
C237 C 0.578800 0.443300 0.723900
H238 H 0.618900 0.472100 0.691400
C239 C 0.623900 0.426900 0.813300
H240 H 0.693900 0.446000 0.842500
C241 C 0.566800 0.383000 0.859500
H242 H 0.598300 0.370500 0.920600
C243 C 0.463700 0.356700 0.818000
H244 H 0.424900 0.326300 0.850400
C245 C 0.212300 0.433400 0.613700
C246 C 0.222100 0.457800 0.530500
H247 H 0.265400 0.426800 0.502600
C248 C 0.168200 0.527600 0.489400
H249 H 0.174300 0.544000 0.432800
C250 C 0.105800 0.573800 0.529500
H251 H 0.070100 0.622000 0.501100
C252 C 0.095300 0.549500 0.611800
H253 H 0.052000 0.580700 0.639400
C254 C 0.148700 0.479600 0.653000
H255 H 0.141500 0.463000 0.709200
C256 C 0.221900 0.300100 0.746100
H257 H 0.241500 0.329900 0.804500
C258 C 0.108300 0.292200 0.709800
C259 C 0.040400 0.291500 0.772700
C260 C 0.076200 0.258100 0.858400
H261 H 0.144600 0.232900 0.877300
C262 C 0.013700 0.261300 0.915400
H263 H 0.037900 0.237600 0.973200
C264 C -0.084800 0.299200 0.887600
C265 C -0.121300 0.333100 0.803700
H266 H -0.188900 0.359600 0.785500
C267 C -0.059100 0.328000 0.746500
H268 H -0.084900 0.350000 0.688100

#END
