
#######################################################################
#
#                 Cambridge Crystallographic Data Centre
#                                CCDC 
#
#######################################################################
#
# If this CIF has been generated from an entry in the Cambridge 
# Structural Database, then it will include bibliographic, chemical, 
# crystal, experimental, refinement or atomic coordinate data resulting 
# from the CCDC's data processing and validation procedures.
#
#######################################################################

data_ACIDEV03
_symmetry_cell_setting           monoclinic
_symmetry_space_group_name_H-M   'P 21/a'
_symmetry_Int_Tables_number      14
_space_group_name_Hall           '-P 2yab'
loop_
_symmetry_equiv_pos_site_id
_symmetry_equiv_pos_as_xyz
1 x,y,z
2 1/2-x,1/2+y,-z
3 -x,-y,-z
4 1/2+x,1/2-y,z
_cell_length_a                   8.7330(2)
_cell_length_b                   5.8710(3)
_cell_length_c                   15.3070(6)
_cell_angle_alpha                90
_cell_angle_beta                 90.535(1)
_cell_angle_gamma                90
_cell_volume                     784.778
loop_
_atom_site_label
_atom_site_type_symbol
_atom_site_fract_x
_atom_site_fract_y
_atom_site_fract_z
O1 O 0.1790(2) 0.7137(3) 0.32013(12)
N1 N 0.0452(2) 0.3245(4) 0.34121(14)
C1 C 0.0451(3) 0.0878(5) 0.4742(2)
C2 C -0.0418(3) 0.1595(5) 0.3919(2)
C3 C 0.0870(3) 0.2682(5) 0.2638(2)
C4 C 0.1796(3) 0.4203(5) 0.2104(2)
C5 C 0.2285(3) 0.3505(5) 0.1278(2)
C6 C 0.3224(3) 0.4866(5) 0.0780(2)
C7 C 0.3686(3) 0.6968(5) 0.1103(2)
C8 C 0.3201(3) 0.7715(5) 0.1909(2)
C9 C 0.2250(3) 0.6354(5) 0.2414(2)
H1 H 0.193(3) 0.199(5) 0.1071(16)
H2 H 0.059(3) 0.116(5) 0.2399(16)
H3 H -0.068(3) 0.020(5) 0.3579(17)
H4 H 0.352(2) 0.918(5) 0.2138(15)
H5 H -0.144(3) 0.238(5) 0.4099(17)
H6 H 0.146(3) 0.016(4) 0.4559(15)
H7 H 0.436(3) 0.797(5) 0.0770(17)
H8 H 0.351(3) 0.433(5) 0.0200(18)
H9 H 0.069(3) 0.233(5) 0.5100(19)
H10 H 0.119(4) 0.583(7) 0.348(3)
C1B C -0.0451(3) -0.0878(5) 0.5258(2)
C2B C 0.0418(3) -0.1595(5) 0.6081(2)
N1B N -0.0452(2) -0.3245(4) 0.65879(14)
C3B C -0.0870(3) -0.2682(5) 0.7362(2)
C4B C -0.1796(3) -0.4203(5) 0.7896(2)
C5B C -0.2285(3) -0.3505(5) 0.8722(2)
C6B C -0.3224(3) -0.4866(5) 0.9220(2)
C7B C -0.3686(3) -0.6968(5) 0.8897(2)
C8B C -0.3201(3) -0.7715(5) 0.8091(2)
C9B C -0.2250(3) -0.6354(5) 0.7586(2)
O1B O -0.1790(2) -0.7137(3) 0.67987(12)
H10B H -0.119(4) -0.583(7) 0.652(3)
H4B H -0.352(2) -0.918(5) 0.7862(15)
H7B H -0.436(3) -0.797(5) 0.9230(17)
H8B H -0.351(3) -0.433(5) 0.9800(18)
H1B H -0.193(3) -0.199(5) 0.8929(16)
H2B H -0.059(3) -0.116(5) 0.7601(16)
H3B H 0.068(3) -0.020(5) 0.6421(17)
H5B H 0.144(3) -0.238(5) 0.5901(17)
H6B H -0.146(3) -0.016(4) 0.5441(15)
H9B H -0.069(3) -0.233(5) 0.4900(19)
O1 O 0.1790(2) 1.7137(3) 0.32013(12)
N1 N 0.0452(2) 1.3245(4) 0.34121(14)
C1 C 0.0451(3) 1.0878(5) 0.4742(2)
C2 C -0.0418(3) 1.1595(5) 0.3919(2)
C3 C 0.0870(3) 1.2682(5) 0.2638(2)
C4 C 0.1796(3) 1.4203(5) 0.2104(2)
C5 C 0.2285(3) 1.3505(5) 0.1278(2)
C6 C 0.3224(3) 1.4866(5) 0.0780(2)
C7 C 0.3686(3) 1.6968(5) 0.1103(2)
C8 C 0.3201(3) 1.7715(5) 0.1909(2)
C9 C 0.2250(3) 1.6354(5) 0.2414(2)
H1 H 0.193(3) 1.199(5) 0.1071(16)
H2 H 0.059(3) 1.116(5) 0.2399(16)
H3 H -0.068(3) 1.020(5) 0.3579(17)
H4 H 0.352(2) 1.918(5) 0.2138(15)
H5 H -0.144(3) 1.238(5) 0.4099(17)
H6 H 0.146(3) 1.016(4) 0.4559(15)
H7 H 0.436(3) 1.797(5) 0.0770(17)
H8 H 0.351(3) 1.433(5) 0.0200(18)
H9 H 0.069(3) 1.233(5) 0.5100(19)
H10 H 0.119(4) 1.583(7) 0.348(3)
C1B C -0.0451(3) 0.9122(5) 0.5258(2)
C2B C 0.0418(3) 0.8405(5) 0.6081(2)
N1B N -0.0452(2) 0.6755(4) 0.65879(14)
C3B C -0.0870(3) 0.7318(5) 0.7362(2)
C4B C -0.1796(3) 0.5797(5) 0.7896(2)
C5B C -0.2285(3) 0.6495(5) 0.8722(2)
C6B C -0.3224(3) 0.5134(5) 0.9220(2)
C7B C -0.3686(3) 0.3032(5) 0.8897(2)
C8B C -0.3201(3) 0.2285(5) 0.8091(2)
C9B C -0.2250(3) 0.3646(5) 0.7586(2)
O1B O -0.1790(2) 0.2863(3) 0.67987(12)
H10B H -0.119(4) 0.417(7) 0.652(3)
H4B H -0.352(2) 0.082(5) 0.7862(15)
H7B H -0.436(3) 0.203(5) 0.9230(17)
H8B H -0.351(3) 0.567(5) 0.9800(18)
H1B H -0.193(3) 0.801(5) 0.8929(16)
H2B H -0.059(3) 0.884(5) 0.7601(16)
H3B H 0.068(3) 0.980(5) 0.6421(17)
H5B H 0.144(3) 0.762(5) 0.5901(17)
H6B H -0.146(3) 0.984(4) 0.5441(15)
H9B H -0.069(3) 0.767(5) 0.4900(19)
O1 O 1.1790(2) 0.7137(3) 0.32013(12)
N1 N 1.0452(2) 0.3245(4) 0.34121(14)
C1 C 1.0451(3) 0.0878(5) 0.4742(2)
C2 C 0.9582(3) 0.1595(5) 0.3919(2)
C3 C 1.0870(3) 0.2682(5) 0.2638(2)
C4 C 1.1796(3) 0.4203(5) 0.2104(2)
C5 C 1.2285(3) 0.3505(5) 0.1278(2)
C6 C 1.3224(3) 0.4866(5) 0.0780(2)
C7 C 1.3686(3) 0.6968(5) 0.1103(2)
C8 C 1.3201(3) 0.7715(5) 0.1909(2)
C9 C 1.2250(3) 0.6354(5) 0.2414(2)
H1 H 1.193(3) 0.199(5) 0.1071(16)
H2 H 1.059(3) 0.116(5) 0.2399(16)
H3 H 0.932(3) 0.020(5) 0.3579(17)
H4 H 1.352(2) 0.918(5) 0.2138(15)
H5 H 0.856(3) 0.238(5) 0.4099(17)
H6 H 1.146(3) 0.016(4) 0.4559(15)
H7 H 1.436(3) 0.797(5) 0.0770(17)
H8 H 1.351(3) 0.433(5) 0.0200(18)
H9 H 1.069(3) 0.233(5) 0.5100(19)
H10 H 1.119(4) 0.583(7) 0.348(3)
C1B C 0.9549(3) -0.0878(5) 0.5258(2)
C2B C 1.0418(3) -0.1595(5) 0.6081(2)
N1B N 0.9548(2) -0.3245(4) 0.65879(14)
C3B C 0.9130(3) -0.2682(5) 0.7362(2)
C4B C 0.8204(3) -0.4203(5) 0.7896(2)
C5B C 0.7715(3) -0.3505(5) 0.8722(2)
C6B C 0.6776(3) -0.4866(5) 0.9220(2)
C7B C 0.6314(3) -0.6968(5) 0.8897(2)
C8B C 0.6799(3) -0.7715(5) 0.8091(2)
C9B C 0.7750(3) -0.6354(5) 0.7586(2)
O1B O 0.8210(2) -0.7137(3) 0.67987(12)
H10B H 0.881(4) -0.583(7) 0.652(3)
H4B H 0.648(2) -0.918(5) 0.7862(15)
H7B H 0.564(3) -0.797(5) 0.9230(17)
H8B H 0.649(3) -0.433(5) 0.9800(18)
H1B H 0.807(3) -0.199(5) 0.8929(16)
H2B H 0.941(3) -0.116(5) 0.7601(16)
H3B H 1.068(3) -0.020(5) 0.6421(17)
H5B H 1.144(3) -0.238(5) 0.5901(17)
H6B H 0.854(3) -0.016(4) 0.5441(15)
H9B H 0.931(3) -0.233(5) 0.4900(19)
O1 O 1.1790(2) 1.7137(3) 0.32013(12)
N1 N 1.0452(2) 1.3245(4) 0.34121(14)
C1 C 1.0451(3) 1.0878(5) 0.4742(2)
C2 C 0.9582(3) 1.1595(5) 0.3919(2)
C3 C 1.0870(3) 1.2682(5) 0.2638(2)
C4 C 1.1796(3) 1.4203(5) 0.2104(2)
C5 C 1.2285(3) 1.3505(5) 0.1278(2)
C6 C 1.3224(3) 1.4866(5) 0.0780(2)
C7 C 1.3686(3) 1.6968(5) 0.1103(2)
C8 C 1.3201(3) 1.7715(5) 0.1909(2)
C9 C 1.2250(3) 1.6354(5) 0.2414(2)
H1 H 1.193(3) 1.199(5) 0.1071(16)
H2 H 1.059(3) 1.116(5) 0.2399(16)
H3 H 0.932(3) 1.020(5) 0.3579(17)
H4 H 1.352(2) 1.918(5) 0.2138(15)
H5 H 0.856(3) 1.238(5) 0.4099(17)
H6 H 1.146(3) 1.016(4) 0.4559(15)
H7 H 1.436(3) 1.797(5) 0.0770(17)
H8 H 1.351(3) 1.433(5) 0.0200(18)
H9 H 1.069(3) 1.233(5) 0.5100(19)
H10 H 1.119(4) 1.583(7) 0.348(3)
C1B C 0.9549(3) 0.9122(5) 0.5258(2)
C2B C 1.0418(3) 0.8405(5) 0.6081(2)
N1B N 0.9548(2) 0.6755(4) 0.65879(14)
C3B C 0.9130(3) 0.7318(5) 0.7362(2)
C4B C 0.8204(3) 0.5797(5) 0.7896(2)
C5B C 0.7715(3) 0.6495(5) 0.8722(2)
C6B C 0.6776(3) 0.5134(5) 0.9220(2)
C7B C 0.6314(3) 0.3032(5) 0.8897(2)
C8B C 0.6799(3) 0.2285(5) 0.8091(2)
C9B C 0.7750(3) 0.3646(5) 0.7586(2)
O1B O 0.8210(2) 0.2863(3) 0.67987(12)
H10B H 0.881(4) 0.417(7) 0.652(3)
H4B H 0.648(2) 0.082(5) 0.7862(15)
H7B H 0.564(3) 0.203(5) 0.9230(17)
H8B H 0.649(3) 0.567(5) 0.9800(18)
H1B H 0.807(3) 0.801(5) 0.8929(16)
H2B H 0.941(3) 0.884(5) 0.7601(16)
H3B H 1.068(3) 0.980(5) 0.6421(17)
H5B H 1.144(3) 0.762(5) 0.5901(17)
H6B H 0.854(3) 0.984(4) 0.5441(15)
H9B H 0.931(3) 0.767(5) 0.4900(19)
O1 O 0.3210(2) 1.2137(3) 0.67987(12)
N1 N 0.4548(2) 0.8245(4) 0.65879(14)
C1 C 0.4549(3) 0.5878(5) 0.5258(2)
C2 C 0.5418(3) 0.6595(5) 0.6081(2)
C3 C 0.4130(3) 0.7682(5) 0.7362(2)
C4 C 0.3204(3) 0.9203(5) 0.7896(2)
C5 C 0.2715(3) 0.8505(5) 0.8722(2)
C6 C 0.1776(3) 0.9866(5) 0.9220(2)
C7 C 0.1314(3) 1.1968(5) 0.8897(2)
C8 C 0.1799(3) 1.2715(5) 0.8091(2)
C9 C 0.2750(3) 1.1354(5) 0.7586(2)
H1 H 0.307(3) 0.699(5) 0.8929(16)
H2 H 0.441(3) 0.616(5) 0.7601(16)
H3 H 0.568(3) 0.520(5) 0.6421(17)
H4 H 0.148(2) 1.418(5) 0.7862(15)
H5 H 0.644(3) 0.738(5) 0.5901(17)
H6 H 0.354(3) 0.516(4) 0.5441(15)
H7 H 0.064(3) 1.297(5) 0.9230(17)
H8 H 0.149(3) 0.933(5) 0.9800(18)
H9 H 0.431(3) 0.733(5) 0.4900(19)
H10 H 0.381(4) 1.083(7) 0.652(3)
C1B C 0.5451(3) 0.4122(5) 0.4742(2)
C2B C 0.4582(3) 0.3405(5) 0.3919(2)
N1B N 0.5452(2) 0.1755(4) 0.34121(14)
C3B C 0.5870(3) 0.2318(5) 0.2638(2)
C4B C 0.6796(3) 0.0797(5) 0.2104(2)
C5B C 0.7285(3) 0.1495(5) 0.1278(2)
C6B C 0.8224(3) 0.0134(5) 0.0780(2)
C7B C 0.8686(3) -0.1968(5) 0.1103(2)
C8B C 0.8201(3) -0.2715(5) 0.1909(2)
C9B C 0.7250(3) -0.1354(5) 0.2414(2)
O1B O 0.6790(2) -0.2137(3) 0.32013(12)
H10B H 0.619(4) -0.083(7) 0.348(3)
H4B H 0.852(2) -0.418(5) 0.2138(15)
H7B H 0.936(3) -0.297(5) 0.0770(17)
H8B H 0.851(3) 0.067(5) 0.0200(18)
H1B H 0.693(3) 0.301(5) 0.1071(16)
H2B H 0.559(3) 0.384(5) 0.2399(16)
H3B H 0.432(3) 0.480(5) 0.3579(17)
H5B H 0.356(3) 0.262(5) 0.4099(17)
H6B H 0.646(3) 0.484(4) 0.4559(15)
H9B H 0.569(3) 0.267(5) 0.5100(19)

#END
