./ACIDAR_from_xyz.cif_generated_by_CrystalShift
_symmetry_cell_setting triclinic
_symmetry_space_group_name_H-M 'P 1'
loop_
_symmetry_equiv_pos_site_id
_symmetry_equiv_pos_as_xyz
1 x,y,z
_cell_length_a 7.328000
_cell_length_b 16.366000
_cell_length_c 11.131000
_cell_angle_alpha 90.000000
_cell_angle_beta 99.330000
_cell_angle_gamma 90.000000
_cell_volume 1317.281425
loop_
_atom_site_label
_atom_site_type_symbol
_atom_site_fract_x
_atom_site_fract_y
_atom_site_fract_z
O1 O 0.606670 0.578640 0.937120
O2 O 0.234920 0.278750 0.448800
O3 O 0.140800 0.207240 0.288750
N4 N 0.214310 0.437000 0.443290
N5 N 0.239250 0.514050 0.485070
N6 N 0.158860 0.273200 0.341070
C7 C 0.525000 0.563770 0.834660
C8 C 0.507200 0.481040 0.788560
C9 C 0.419900 0.463390 0.676410
C10 C 0.334400 0.525860 0.593350
C11 C 0.281400 0.675900 0.558500
C12 C 0.294900 0.755200 0.599020
C13 C 0.381000 0.772430 0.716790
C14 C 0.454600 0.710450 0.791690
C15 C 0.443000 0.629640 0.751470
C16 C 0.353330 0.611410 0.633760
C17 C 0.115400 0.424540 0.327350
C18 C 0.089000 0.346060 0.275460
C19 C -0.009000 0.335400 0.158520
C20 C -0.083300 0.400660 0.092890
C21 C -0.060100 0.478370 0.142330
C22 C 0.039300 0.490300 0.256490
H23 H 0.555000 0.441100 0.837000
H24 H 0.419000 0.408300 0.650000
H25 H 0.226000 0.663000 0.482700
H26 H 0.241000 0.795300 0.545900
H27 H 0.383000 0.827000 0.741700
H28 H 0.508000 0.718400 0.872400
H29 H -0.022000 0.280000 0.130200
H30 H -0.153000 0.392500 0.016700
H31 H -0.114000 0.522100 0.098500
H32 H 0.054000 0.541900 0.291000
H33 H 0.257000 0.382800 0.489500
O34 O 1.106670 0.921360 1.437120
O35 O 0.734920 1.221250 0.948800
O36 O 0.640800 1.292760 0.788750
N37 N 0.714310 1.063000 0.943290
N38 N 0.739250 0.985950 0.985070
N39 N 0.658860 1.226800 0.841070
C40 C 1.025000 0.936230 1.334660
C41 C 1.007200 1.018960 1.288560
C42 C 0.919900 1.036610 1.176410
C43 C 0.834400 0.974140 1.093350
C44 C 0.781400 0.824100 1.058500
C45 C 0.794900 0.744800 1.099020
C46 C 0.881000 0.727570 1.216790
C47 C 0.954600 0.789550 1.291690
C48 C 0.943000 0.870360 1.251470
C49 C 0.853330 0.888590 1.133760
C50 C 0.615400 1.075460 0.827350
C51 C 0.589000 1.153940 0.775460
C52 C 0.491000 1.164600 0.658520
C53 C 0.416700 1.099340 0.592890
C54 C 0.439900 1.021630 0.642330
C55 C 0.539300 1.009700 0.756490
H56 H 1.055000 1.058900 1.337000
H57 H 0.919000 1.091700 1.150000
H58 H 0.726000 0.837000 0.982700
H59 H 0.741000 0.704700 1.045900
H60 H 0.883000 0.673000 1.241700
H61 H 1.008000 0.781600 1.372400
H62 H 0.478000 1.220000 0.630200
H63 H 0.347000 1.107500 0.516700
H64 H 0.386000 0.977900 0.598500
H65 H 0.554000 0.958100 0.791000
H66 H 0.757000 1.117200 0.989500
O67 O 0.393330 0.421360 0.062880
O68 O 0.765080 0.721250 0.551200
O69 O 0.859200 0.792760 0.711250
N70 N 0.785690 0.563000 0.556710
N71 N 0.760750 0.485950 0.514930
N72 N 0.841140 0.726800 0.658930
C73 C 0.475000 0.436230 0.165340
C74 C 0.492800 0.518960 0.211440
C75 C 0.580100 0.536610 0.323590
C76 C 0.665600 0.474140 0.406650
C77 C 0.718600 0.324100 0.441500
C78 C 0.705100 0.244800 0.400980
C79 C 0.619000 0.227570 0.283210
C80 C 0.545400 0.289550 0.208310
C81 C 0.557000 0.370360 0.248530
C82 C 0.646670 0.388590 0.366240
C83 C 0.884600 0.575460 0.672650
C84 C 0.911000 0.653940 0.724540
C85 C 1.009000 0.664600 0.841480
C86 C 1.083300 0.599340 0.907110
C87 C 1.060100 0.521630 0.857670
C88 C 0.960700 0.509700 0.743510
H89 H 0.445000 0.558900 0.163000
H90 H 0.581000 0.591700 0.350000
H91 H 0.774000 0.337000 0.517300
H92 H 0.759000 0.204700 0.454100
H93 H 0.617000 0.173000 0.258300
H94 H 0.492000 0.281600 0.127600
H95 H 1.022000 0.720000 0.869800
H96 H 1.153000 0.607500 0.983300
H97 H 1.114000 0.477900 0.901500
H98 H 0.946000 0.458100 0.709000
H99 H 0.743000 0.617200 0.510500
O100 O -0.106670 0.078640 -0.437120
O101 O 0.265080 -0.221250 0.051200
O102 O 0.359200 -0.292760 0.211250
N103 N 0.285690 -0.063000 0.056710
N104 N 0.260750 0.014050 0.014930
N105 N 0.341140 -0.226800 0.158930
C106 C -0.025000 0.063770 -0.334660
C107 C -0.007200 -0.018960 -0.288560
C108 C 0.080100 -0.036610 -0.176410
C109 C 0.165600 0.025860 -0.093350
C110 C 0.218600 0.175900 -0.058500
C111 C 0.205100 0.255200 -0.099020
C112 C 0.119000 0.272430 -0.216790
C113 C 0.045400 0.210450 -0.291690
C114 C 0.057000 0.129640 -0.251470
C115 C 0.146670 0.111410 -0.133760
C116 C 0.384600 -0.075460 0.172650
C117 C 0.411000 -0.153940 0.224540
C118 C 0.509000 -0.164600 0.341480
C119 C 0.583300 -0.099340 0.407110
C120 C 0.560100 -0.021630 0.357670
C121 C 0.460700 -0.009700 0.243510
H122 H -0.055000 -0.058900 -0.337000
H123 H 0.081000 -0.091700 -0.150000
H124 H 0.274000 0.163000 0.017300
H125 H 0.259000 0.295300 -0.045900
H126 H 0.117000 0.327000 -0.241700
H127 H -0.008000 0.218400 -0.372400
H128 H 0.522000 -0.220000 0.369800
H129 H 0.653000 -0.107500 0.483300
H130 H 0.614000 0.022100 0.401500
H131 H 0.446000 0.041900 0.209000
H132 H 0.243000 -0.117200 0.010500

#END
