./ACIHOL_from_xyz.cif_generated_by_CrystalShift
_symmetry_cell_setting triclinic
_symmetry_space_group_name_H-M 'P 1'
loop_
_symmetry_equiv_pos_site_id
_symmetry_equiv_pos_as_xyz
1 x,y,z
_cell_length_a 11.182800
_cell_length_b 8.826600
_cell_length_c 16.647000
_cell_angle_alpha 90.000000
_cell_angle_beta 107.894000
_cell_angle_gamma 90.000000
_cell_volume 1563.675227
loop_
_atom_site_label
_atom_site_type_symbol
_atom_site_fract_x
_atom_site_fract_y
_atom_site_fract_z
N1 N 0.094580 0.249630 0.163290
H2 H 0.045100 0.203900 0.118400
N3 N 0.130100 0.407110 0.281970
N4 N 0.100840 0.482310 0.344520
N5 N 0.308590 0.506790 0.357520
N6 N 0.124320 0.641920 0.490450
C7 C 0.220480 0.250520 0.171840
C8 C 0.266480 0.162700 0.117460
H9 H 0.210600 0.101600 0.075400
C10 C 0.392540 0.165250 0.125120
H11 H 0.422900 0.105000 0.088200
C12 C 0.476520 0.254240 0.185840
H13 H 0.563300 0.254900 0.190300
C14 C 0.432380 0.341580 0.239550
H15 H 0.489000 0.403100 0.280900
C16 C 0.304900 0.340020 0.233350
C17 C 0.253260 0.420470 0.290830
C18 C 0.211620 0.540970 0.387800
C19 C 0.225590 0.635010 0.463270
C20 C 0.337420 0.709540 0.503180
H21 H 0.407200 0.702200 0.482200
C22 C 0.344570 0.794800 0.574340
H23 H 0.419000 0.849200 0.602300
C24 C 0.242540 0.799950 0.604050
H25 H 0.245900 0.855800 0.653500
C26 C 0.135350 0.722190 0.560410
H27 H 0.065300 0.725900 0.581300
C28 C 0.034970 0.316110 0.220460
H29 H 0.005700 0.233300 0.250900
C30 C -0.076430 0.414550 0.174660
C31 C -0.179800 0.424450 0.203790
H32 H -0.181800 0.367500 0.251800
C33 C -0.280650 0.517660 0.162940
H34 H -0.351200 0.524400 0.183200
C35 C -0.278040 0.599910 0.093310
H36 H -0.346900 0.663400 0.065400
C37 C -0.175820 0.590500 0.063910
H38 H -0.174400 0.647400 0.015800
C39 C -0.074740 0.497870 0.104410
H40 H -0.004400 0.491700 0.083900
N41 N 0.905420 0.749630 0.336710
H42 H 0.954900 0.703900 0.381600
N43 N 0.869900 0.907110 0.218030
N44 N 0.899160 0.982310 0.155480
N45 N 0.691410 1.006790 0.142480
N46 N 0.875680 1.141920 0.009550
C47 C 0.779520 0.750520 0.328160
C48 C 0.733520 0.662700 0.382540
H49 H 0.789400 0.601600 0.424600
C50 C 0.607460 0.665250 0.374880
H51 H 0.577100 0.605000 0.411800
C52 C 0.523480 0.754240 0.314160
H53 H 0.436700 0.754900 0.309700
C54 C 0.567620 0.841580 0.260450
H55 H 0.511000 0.903100 0.219100
C56 C 0.695100 0.840020 0.266650
C57 C 0.746740 0.920470 0.209170
C58 C 0.788380 1.040970 0.112200
C59 C 0.774410 1.135010 0.036730
C60 C 0.662580 1.209540 -0.003180
H61 H 0.592800 1.202200 0.017800
C62 C 0.655430 1.294800 -0.074340
H63 H 0.581000 1.349200 -0.102300
C64 C 0.757460 1.299950 -0.104050
H65 H 0.754100 1.355800 -0.153500
C66 C 0.864650 1.222190 -0.060410
H67 H 0.934700 1.225900 -0.081300
C68 C 0.965030 0.816110 0.279540
H69 H 0.994300 0.733300 0.249100
C70 C 1.076430 0.914550 0.325340
C71 C 1.179800 0.924450 0.296210
H72 H 1.181800 0.867500 0.248200
C73 C 1.280650 1.017660 0.337060
H74 H 1.351200 1.024400 0.316800
C75 C 1.278040 1.099910 0.406690
H76 H 1.346900 1.163400 0.434600
C77 C 1.175820 1.090500 0.436090
H78 H 1.174400 1.147400 0.484200
C79 C 1.074740 0.997870 0.395590
H80 H 1.004400 0.991700 0.416100
N81 N 0.905420 0.750370 0.836710
H82 H 0.954900 0.796100 0.881600
N83 N 0.869900 0.592890 0.718030
N84 N 0.899160 0.517690 0.655480
N85 N 0.691410 0.493210 0.642480
N86 N 0.875680 0.358080 0.509550
C87 C 0.779520 0.749480 0.828160
C88 C 0.733520 0.837300 0.882540
H89 H 0.789400 0.898400 0.924600
C90 C 0.607460 0.834750 0.874880
H91 H 0.577100 0.895000 0.911800
C92 C 0.523480 0.745760 0.814160
H93 H 0.436700 0.745100 0.809700
C94 C 0.567620 0.658420 0.760450
H95 H 0.511000 0.596900 0.719100
C96 C 0.695100 0.659980 0.766650
C97 C 0.746740 0.579530 0.709170
C98 C 0.788380 0.459030 0.612200
C99 C 0.774410 0.364990 0.536730
C100 C 0.662580 0.290460 0.496820
H101 H 0.592800 0.297800 0.517800
C102 C 0.655430 0.205200 0.425660
H103 H 0.581000 0.150800 0.397700
C104 C 0.757460 0.200050 0.395950
H105 H 0.754100 0.144200 0.346500
C106 C 0.864650 0.277810 0.439590
H107 H 0.934700 0.274100 0.418700
C108 C 0.965030 0.683890 0.779540
H109 H 0.994300 0.766700 0.749100
C110 C 1.076430 0.585450 0.825340
C111 C 1.179800 0.575550 0.796210
H112 H 1.181800 0.632500 0.748200
C113 C 1.280650 0.482340 0.837060
H114 H 1.351200 0.475600 0.816800
C115 C 1.278040 0.400090 0.906690
H116 H 1.346900 0.336600 0.934600
C117 C 1.175820 0.409500 0.936090
H118 H 1.174400 0.352600 0.984200
C119 C 1.074740 0.502130 0.895590
H120 H 1.004400 0.508300 0.916100
N121 N 0.094580 0.250370 0.663290
H122 H 0.045100 0.296100 0.618400
N123 N 0.130100 0.092890 0.781970
N124 N 0.100840 0.017690 0.844520
N125 N 0.308590 -0.006790 0.857520
N126 N 0.124320 -0.141920 0.990450
C127 C 0.220480 0.249480 0.671840
C128 C 0.266480 0.337300 0.617460
H129 H 0.210600 0.398400 0.575400
C130 C 0.392540 0.334750 0.625120
H131 H 0.422900 0.395000 0.588200
C132 C 0.476520 0.245760 0.685840
H133 H 0.563300 0.245100 0.690300
C134 C 0.432380 0.158420 0.739550
H135 H 0.489000 0.096900 0.780900
C136 C 0.304900 0.159980 0.733350
C137 C 0.253260 0.079530 0.790830
C138 C 0.211620 -0.040970 0.887800
C139 C 0.225590 -0.135010 0.963270
C140 C 0.337420 -0.209540 1.003180
H141 H 0.407200 -0.202200 0.982200
C142 C 0.344570 -0.294800 1.074340
H143 H 0.419000 -0.349200 1.102300
C144 C 0.242540 -0.299950 1.104050
H145 H 0.245900 -0.355800 1.153500
C146 C 0.135350 -0.222190 1.060410
H147 H 0.065300 -0.225900 1.081300
C148 C 0.034970 0.183890 0.720460
H149 H 0.005700 0.266700 0.750900
C150 C -0.076430 0.085450 0.674660
C151 C -0.179800 0.075550 0.703790
H152 H -0.181800 0.132500 0.751800
C153 C -0.280650 -0.017660 0.662940
H154 H -0.351200 -0.024400 0.683200
C155 C -0.278040 -0.099910 0.593310
H156 H -0.346900 -0.163400 0.565400
C157 C -0.175820 -0.090500 0.563910
H158 H -0.174400 -0.147400 0.515800
C159 C -0.074740 0.002130 0.604410
H160 H -0.004400 0.008300 0.583900

#END
