./ACIHIF_from_xyz.cif_generated_by_CrystalShift
_symmetry_cell_setting triclinic
_symmetry_space_group_name_H-M 'P 1'
loop_
_symmetry_equiv_pos_site_id
_symmetry_equiv_pos_as_xyz
1 x,y,z
_cell_length_a 9.797100
_cell_length_b 20.487000
_cell_length_c 25.634000
_cell_angle_alpha 90.000000
_cell_angle_beta 90.000000
_cell_angle_gamma 90.000000
_cell_volume 5145.081854
loop_
_atom_site_label
_atom_site_type_symbol
_atom_site_fract_x
_atom_site_fract_y
_atom_site_fract_z
Sm1 Sm 0.307710 0.486394 0.882064
O2 O 0.186200 0.566250 0.838510
O3 O 0.080100 0.451950 0.872720
O4 O 0.469000 0.535300 0.826780
O5 O 0.307500 0.426600 0.801400
O6 O 0.357800 0.580180 0.932460
O7 O 0.227900 0.472150 0.969680
N8 N 0.334900 0.364000 0.910790
N9 N 0.621300 0.388000 0.997800
N10 N 0.918700 0.488800 0.991300
H11 H 1.005800 0.478300 0.992000
N12 N 0.701200 0.440700 0.991980
N13 N 0.541700 0.453800 0.933460
C14 C 0.237700 0.320300 0.898100
H15 H 0.178200 0.330100 0.869900
C16 C 0.220600 0.261900 0.924300
H17 H 0.150800 0.232200 0.914300
C18 C 0.307300 0.247700 0.965200
H19 H 0.297000 0.208000 0.984000
C20 C 0.408600 0.291200 0.978800
H21 H 0.469000 0.282100 1.006800
C22 C 0.420200 0.349400 0.950000
C23 C 0.526400 0.397500 0.961200
C24 C 0.656200 0.480400 0.953900
C25 C 0.823900 0.455300 1.024000
H26 H 0.865700 0.413200 1.035500
C27 C 0.872600 0.538000 0.958400
C28 C 0.959900 0.588100 0.943200
H29 H 1.051800 0.588800 0.955000
C30 C 0.912600 0.636100 0.911100
H31 H 0.972500 0.670400 0.901100
C32 C 0.779600 0.636300 0.892800
H33 H 0.748400 0.670500 0.870800
C34 C 0.693000 0.586200 0.906700
H35 H 0.602400 0.585200 0.893500
C36 C 0.737100 0.537400 0.939700
C37 C 0.779200 0.494100 1.072900
C38 C 0.844500 0.551200 1.086700
H39 H 0.917400 0.566800 1.065700
C40 C 0.806300 0.585900 1.130100
H41 H 0.851900 0.625500 1.138600
C42 C 0.701600 0.563500 1.161300
H43 H 0.674500 0.587500 1.191300
C44 C 0.637500 0.506700 1.148600
H45 H 0.566800 0.490600 1.170500
C46 C 0.674100 0.472100 1.104400
H47 H 0.626900 0.433100 1.095600
C48 C 0.169800 0.678100 0.785400
H49 H 0.240500 0.670700 0.810000
C50 C 0.172700 0.734000 0.755300
H51 H 0.244600 0.764600 0.759500
C52 C 0.072000 0.745100 0.719600
H53 H 0.074900 0.782900 0.698200
C54 C -0.033400 0.701600 0.714800
H55 H -0.104400 0.709700 0.690500
C56 C -0.037000 0.645500 0.745500
H57 H -0.111500 0.616100 0.742200
C58 C 0.065700 0.632100 0.780400
C59 C 0.076800 0.570900 0.812400
C60 C -0.025500 0.523900 0.812900
H61 H -0.102700 0.530200 0.791100
C62 C -0.020600 0.467800 0.844000
C63 C -0.139100 0.421400 0.845300
C64 C -0.140000 0.372600 0.883100
H65 H -0.068300 0.370600 0.908000
C66 C -0.244300 0.326800 0.884900
H67 H -0.243400 0.293900 0.911000
C68 C -0.348800 0.328700 0.849300
H69 H -0.418900 0.296700 0.850300
C70 C -0.351800 0.377300 0.812000
H71 H -0.424400 0.379400 0.787500
C72 C -0.248200 0.422900 0.810700
H73 H -0.251600 0.456600 0.785300
C74 C 0.528800 0.660400 0.791800
H75 H 0.498400 0.655500 0.826700
C76 C 0.573200 0.720800 0.774400
H77 H 0.573700 0.756900 0.797600
C78 C 0.615800 0.728700 0.724700
H79 H 0.642300 0.770500 0.712400
C80 C 0.620200 0.674900 0.692000
H81 H 0.653700 0.680100 0.657500
C82 C 0.576900 0.613500 0.708200
H83 H 0.580800 0.577000 0.685300
C84 C 0.528400 0.607000 0.758300
C85 C 0.466900 0.543200 0.777900
C86 C 0.406900 0.501500 0.742300
H87 H 0.415700 0.512200 0.706400
C88 C 0.333900 0.444400 0.754700
C89 C 0.279700 0.401800 0.711900
C90 C 0.335100 0.403300 0.661600
H91 H 0.409500 0.431400 0.653900
C92 C 0.281400 0.363800 0.623000
H93 H 0.317800 0.366700 0.588800
C94 C 0.181000 0.322000 0.632100
H95 H 0.148500 0.294100 0.605200
C96 C 0.125400 0.319800 0.680600
H97 H 0.051700 0.290900 0.687200
C98 C 0.174300 0.359400 0.720800
H99 H 0.134300 0.356800 0.754500
C100 C 0.457100 0.701700 0.957600
H101 H 0.397700 0.698600 0.928400
C102 C 0.528700 0.758400 0.966700
H103 H 0.514200 0.795100 0.944800
C104 C 0.619700 0.762500 1.006600
H105 H 0.670900 0.801400 1.011600
C106 C 0.637600 0.710800 1.039400
H107 H 0.701600 0.713600 1.067200
C108 C 0.562300 0.654000 1.032300
H109 H 0.572700 0.618400 1.055700
C110 C 0.472000 0.649400 0.990800
C111 C 0.393800 0.587900 0.979700
C112 C 0.362900 0.544400 1.019900
H113 H 0.399300 0.552900 1.053500
C114 C 0.281100 0.488800 1.013400
C115 C 0.251200 0.444000 1.058000
C116 C 0.174500 0.388400 1.048500
H117 H 0.140100 0.380400 1.014500
C118 C 0.147800 0.344600 1.088200
H119 H 0.092500 0.307500 1.081100
C120 C 0.199000 0.353200 1.137400
H121 H 0.182600 0.321800 1.164000
C122 C 0.275100 0.408600 1.147500
H123 H 0.310400 0.415900 1.181500
C124 C 0.300400 0.454200 1.107900
H125 H 0.351700 0.492400 1.115400
Sm126 Sm 0.807710 1.013606 0.117936
O127 O 0.686200 0.933750 0.161490
O128 O 0.580100 1.048050 0.127280
O129 O 0.969000 0.964700 0.173220
O130 O 0.807500 1.073400 0.198600
O131 O 0.857800 0.919820 0.067540
O132 O 0.727900 1.027850 0.030320
N133 N 0.834900 1.136000 0.089210
N134 N 1.121300 1.112000 0.002200
N135 N 1.418700 1.011200 0.008700
H136 H 1.505800 1.021700 0.008000
N137 N 1.201200 1.059300 0.008020
N138 N 1.041700 1.046200 0.066540
C139 C 0.737700 1.179700 0.101900
H140 H 0.678200 1.169900 0.130100
C141 C 0.720600 1.238100 0.075700
H142 H 0.650800 1.267800 0.085700
C143 C 0.807300 1.252300 0.034800
H144 H 0.797000 1.292000 0.016000
C145 C 0.908600 1.208800 0.021200
H146 H 0.969000 1.217900 -0.006800
C147 C 0.920200 1.150600 0.050000
C148 C 1.026400 1.102500 0.038800
C149 C 1.156200 1.019600 0.046100
C150 C 1.323900 1.044700 -0.024000
H151 H 1.365700 1.086800 -0.035500
C152 C 1.372600 0.962000 0.041600
C153 C 1.459900 0.911900 0.056800
H154 H 1.551800 0.911200 0.045000
C155 C 1.412600 0.863900 0.088900
H156 H 1.472500 0.829600 0.098900
C157 C 1.279600 0.863700 0.107200
H158 H 1.248400 0.829500 0.129200
C159 C 1.193000 0.913800 0.093300
H160 H 1.102400 0.914800 0.106500
C161 C 1.237100 0.962600 0.060300
C162 C 1.279200 1.005900 -0.072900
C163 C 1.344500 0.948800 -0.086700
H164 H 1.417400 0.933200 -0.065700
C165 C 1.306300 0.914100 -0.130100
H166 H 1.351900 0.874500 -0.138600
C167 C 1.201600 0.936500 -0.161300
H168 H 1.174500 0.912500 -0.191300
C169 C 1.137500 0.993300 -0.148600
H170 H 1.066800 1.009400 -0.170500
C171 C 1.174100 1.027900 -0.104400
H172 H 1.126900 1.066900 -0.095600
C173 C 0.669800 0.821900 0.214600
H174 H 0.740500 0.829300 0.190000
C175 C 0.672700 0.766000 0.244700
H176 H 0.744600 0.735400 0.240500
C177 C 0.572000 0.754900 0.280400
H178 H 0.574900 0.717100 0.301800
C179 C 0.466600 0.798400 0.285200
H180 H 0.395600 0.790300 0.309500
C181 C 0.463000 0.854500 0.254500
H182 H 0.388500 0.883900 0.257800
C183 C 0.565700 0.867900 0.219600
C184 C 0.576800 0.929100 0.187600
C185 C 0.474500 0.976100 0.187100
H186 H 0.397300 0.969800 0.208900
C187 C 0.479400 1.032200 0.156000
C188 C 0.360900 1.078600 0.154700
C189 C 0.360000 1.127400 0.116900
H190 H 0.431700 1.129400 0.092000
C191 C 0.255700 1.173200 0.115100
H192 H 0.256600 1.206100 0.089000
C193 C 0.151200 1.171300 0.150700
H194 H 0.081100 1.203300 0.149700
C195 C 0.148200 1.122700 0.188000
H196 H 0.075600 1.120600 0.212500
C197 C 0.251800 1.077100 0.189300
H198 H 0.248400 1.043400 0.214700
C199 C 1.028800 0.839600 0.208200
H200 H 0.998400 0.844500 0.173300
C201 C 1.073200 0.779200 0.225600
H202 H 1.073700 0.743100 0.202400
C203 C 1.115800 0.771300 0.275300
H204 H 1.142300 0.729500 0.287600
C205 C 1.120200 0.825100 0.308000
H206 H 1.153700 0.819900 0.342500
C207 C 1.076900 0.886500 0.291800
H208 H 1.080800 0.923000 0.314700
C209 C 1.028400 0.893000 0.241700
C210 C 0.966900 0.956800 0.222100
C211 C 0.906900 0.998500 0.257700
H212 H 0.915700 0.987800 0.293600
C213 C 0.833900 1.055600 0.245300
C214 C 0.779700 1.098200 0.288100
C215 C 0.835100 1.096700 0.338400
H216 H 0.909500 1.068600 0.346100
C217 C 0.781400 1.136200 0.377000
H218 H 0.817800 1.133300 0.411200
C219 C 0.681000 1.178000 0.367900
H220 H 0.648500 1.205900 0.394800
C221 C 0.625400 1.180200 0.319400
H222 H 0.551700 1.209100 0.312800
C223 C 0.674300 1.140600 0.279200
H224 H 0.634300 1.143200 0.245500
C225 C 0.957100 0.798300 0.042400
H226 H 0.897700 0.801400 0.071600
C227 C 1.028700 0.741600 0.033300
H228 H 1.014200 0.704900 0.055200
C229 C 1.119700 0.737500 -0.006600
H230 H 1.170900 0.698600 -0.011600
C231 C 1.137600 0.789200 -0.039400
H232 H 1.201600 0.786400 -0.067200
C233 C 1.062300 0.846000 -0.032300
H234 H 1.072700 0.881600 -0.055700
C235 C 0.972000 0.850600 0.009200
C236 C 0.893800 0.912100 0.020300
C237 C 0.862900 0.955600 -0.019900
H238 H 0.899300 0.947100 -0.053500
C239 C 0.781100 1.011200 -0.013400
C240 C 0.751200 1.056000 -0.058000
C241 C 0.674500 1.111600 -0.048500
H242 H 0.640100 1.119600 -0.014500
C243 C 0.647800 1.155400 -0.088200
H244 H 0.592500 1.192500 -0.081100
C245 C 0.699000 1.146800 -0.137400
H246 H 0.682600 1.178200 -0.164000
C247 C 0.775100 1.091400 -0.147500
H248 H 0.810400 1.084100 -0.181500
C249 C 0.800400 1.045800 -0.107900
H250 H 0.851700 1.007600 -0.115400
Sm251 Sm 0.692290 -0.013606 0.617936
O252 O 0.813800 0.066250 0.661490
O253 O 0.919900 -0.048050 0.627280
O254 O 0.531000 0.035300 0.673220
O255 O 0.692500 -0.073400 0.698600
O256 O 0.642200 0.080180 0.567540
O257 O 0.772100 -0.027850 0.530320
N258 N 0.665100 -0.136000 0.589210
N259 N 0.378700 -0.112000 0.502200
N260 N 0.081300 -0.011200 0.508700
H261 H -0.005800 -0.021700 0.508000
N262 N 0.298800 -0.059300 0.508020
N263 N 0.458300 -0.046200 0.566540
C264 C 0.762300 -0.179700 0.601900
H265 H 0.821800 -0.169900 0.630100
C266 C 0.779400 -0.238100 0.575700
H267 H 0.849200 -0.267800 0.585700
C268 C 0.692700 -0.252300 0.534800
H269 H 0.703000 -0.292000 0.516000
C270 C 0.591400 -0.208800 0.521200
H271 H 0.531000 -0.217900 0.493200
C272 C 0.579800 -0.150600 0.550000
C273 C 0.473600 -0.102500 0.538800
C274 C 0.343800 -0.019600 0.546100
C275 C 0.176100 -0.044700 0.476000
H276 H 0.134300 -0.086800 0.464500
C277 C 0.127400 0.038000 0.541600
C278 C 0.040100 0.088100 0.556800
H279 H -0.051800 0.088800 0.545000
C280 C 0.087400 0.136100 0.588900
H281 H 0.027500 0.170400 0.598900
C282 C 0.220400 0.136300 0.607200
H283 H 0.251600 0.170500 0.629200
C284 C 0.307000 0.086200 0.593300
H285 H 0.397600 0.085200 0.606500
C286 C 0.262900 0.037400 0.560300
C287 C 0.220800 -0.005900 0.427100
C288 C 0.155500 0.051200 0.413300
H289 H 0.082600 0.066800 0.434300
C290 C 0.193700 0.085900 0.369900
H291 H 0.148100 0.125500 0.361400
C292 C 0.298400 0.063500 0.338700
H293 H 0.325500 0.087500 0.308700
C294 C 0.362500 0.006700 0.351400
H295 H 0.433200 -0.009400 0.329500
C296 C 0.325900 -0.027900 0.395600
H297 H 0.373100 -0.066900 0.404400
C298 C 0.830200 0.178100 0.714600
H299 H 0.759500 0.170700 0.690000
C300 C 0.827300 0.234000 0.744700
H301 H 0.755400 0.264600 0.740500
C302 C 0.928000 0.245100 0.780400
H303 H 0.925100 0.282900 0.801800
C304 C 1.033400 0.201600 0.785200
H305 H 1.104400 0.209700 0.809500
C306 C 1.037000 0.145500 0.754500
H307 H 1.111500 0.116100 0.757800
C308 C 0.934300 0.132100 0.719600
C309 C 0.923200 0.070900 0.687600
C310 C 1.025500 0.023900 0.687100
H311 H 1.102700 0.030200 0.708900
C312 C 1.020600 -0.032200 0.656000
C313 C 1.139100 -0.078600 0.654700
C314 C 1.140000 -0.127400 0.616900
H315 H 1.068300 -0.129400 0.592000
C316 C 1.244300 -0.173200 0.615100
H317 H 1.243400 -0.206100 0.589000
C318 C 1.348800 -0.171300 0.650700
H319 H 1.418900 -0.203300 0.649700
C320 C 1.351800 -0.122700 0.688000
H321 H 1.424400 -0.120600 0.712500
C322 C 1.248200 -0.077100 0.689300
H323 H 1.251600 -0.043400 0.714700
C324 C 0.471200 0.160400 0.708200
H325 H 0.501600 0.155500 0.673300
C326 C 0.426800 0.220800 0.725600
H327 H 0.426300 0.256900 0.702400
C328 C 0.384200 0.228700 0.775300
H329 H 0.357700 0.270500 0.787600
C330 C 0.379800 0.174900 0.808000
H331 H 0.346300 0.180100 0.842500
C332 C 0.423100 0.113500 0.791800
H333 H 0.419200 0.077000 0.814700
C334 C 0.471600 0.107000 0.741700
C335 C 0.533100 0.043200 0.722100
C336 C 0.593100 0.001500 0.757700
H337 H 0.584300 0.012200 0.793600
C338 C 0.666100 -0.055600 0.745300
C339 C 0.720300 -0.098200 0.788100
C340 C 0.664900 -0.096700 0.838400
H341 H 0.590500 -0.068600 0.846100
C342 C 0.718600 -0.136200 0.877000
H343 H 0.682200 -0.133300 0.911200
C344 C 0.819000 -0.178000 0.867900
H345 H 0.851500 -0.205900 0.894800
C346 C 0.874600 -0.180200 0.819400
H347 H 0.948300 -0.209100 0.812800
C348 C 0.825700 -0.140600 0.779200
H349 H 0.865700 -0.143200 0.745500
C350 C 0.542900 0.201700 0.542400
H351 H 0.602300 0.198600 0.571600
C352 C 0.471300 0.258400 0.533300
H353 H 0.485800 0.295100 0.555200
C354 C 0.380300 0.262500 0.493400
H355 H 0.329100 0.301400 0.488400
C356 C 0.362400 0.210800 0.460600
H357 H 0.298400 0.213600 0.432800
C358 C 0.437700 0.154000 0.467700
H359 H 0.427300 0.118400 0.444300
C360 C 0.528000 0.149400 0.509200
C361 C 0.606200 0.087900 0.520300
C362 C 0.637100 0.044400 0.480100
H363 H 0.600700 0.052900 0.446500
C364 C 0.718900 -0.011200 0.486600
C365 C 0.748800 -0.056000 0.442000
C366 C 0.825500 -0.111600 0.451500
H367 H 0.859900 -0.119600 0.485500
C368 C 0.852200 -0.155400 0.411800
H369 H 0.907500 -0.192500 0.418900
C370 C 0.801000 -0.146800 0.362600
H371 H 0.817400 -0.178200 0.336000
C372 C 0.724900 -0.091400 0.352500
H373 H 0.689600 -0.084100 0.318500
C374 C 0.699600 -0.045800 0.392100
H375 H 0.648300 -0.007600 0.384600
Sm376 Sm 0.192290 0.513606 0.382064
O377 O 0.313800 0.433750 0.338510
O378 O 0.419900 0.548050 0.372720
O379 O 0.031000 0.464700 0.326780
O380 O 0.192500 0.573400 0.301400
O381 O 0.142200 0.419820 0.432460
O382 O 0.272100 0.527850 0.469680
N383 N 0.165100 0.636000 0.410790
N384 N -0.121300 0.612000 0.497800
N385 N -0.418700 0.511200 0.491300
H386 H -0.505800 0.521700 0.492000
N387 N -0.201200 0.559300 0.491980
N388 N -0.041700 0.546200 0.433460
C389 C 0.262300 0.679700 0.398100
H390 H 0.321800 0.669900 0.369900
C391 C 0.279400 0.738100 0.424300
H392 H 0.349200 0.767800 0.414300
C393 C 0.192700 0.752300 0.465200
H394 H 0.203000 0.792000 0.484000
C395 C 0.091400 0.708800 0.478800
H396 H 0.031000 0.717900 0.506800
C397 C 0.079800 0.650600 0.450000
C398 C -0.026400 0.602500 0.461200
C399 C -0.156200 0.519600 0.453900
C400 C -0.323900 0.544700 0.524000
H401 H -0.365700 0.586800 0.535500
C402 C -0.372600 0.462000 0.458400
C403 C -0.459900 0.411900 0.443200
H404 H -0.551800 0.411200 0.455000
C405 C -0.412600 0.363900 0.411100
H406 H -0.472500 0.329600 0.401100
C407 C -0.279600 0.363700 0.392800
H408 H -0.248400 0.329500 0.370800
C409 C -0.193000 0.413800 0.406700
H410 H -0.102400 0.414800 0.393500
C411 C -0.237100 0.462600 0.439700
C412 C -0.279200 0.505900 0.572900
C413 C -0.344500 0.448800 0.586700
H414 H -0.417400 0.433200 0.565700
C415 C -0.306300 0.414100 0.630100
H416 H -0.351900 0.374500 0.638600
C417 C -0.201600 0.436500 0.661300
H418 H -0.174500 0.412500 0.691300
C419 C -0.137500 0.493300 0.648600
H420 H -0.066800 0.509400 0.670500
C421 C -0.174100 0.527900 0.604400
H422 H -0.126900 0.566900 0.595600
C423 C 0.330200 0.321900 0.285400
H424 H 0.259500 0.329300 0.310000
C425 C 0.327300 0.266000 0.255300
H426 H 0.255400 0.235400 0.259500
C427 C 0.428000 0.254900 0.219600
H428 H 0.425100 0.217100 0.198200
C429 C 0.533400 0.298400 0.214800
H430 H 0.604400 0.290300 0.190500
C431 C 0.537000 0.354500 0.245500
H432 H 0.611500 0.383900 0.242200
C433 C 0.434300 0.367900 0.280400
C434 C 0.423200 0.429100 0.312400
C435 C 0.525500 0.476100 0.312900
H436 H 0.602700 0.469800 0.291100
C437 C 0.520600 0.532200 0.344000
C438 C 0.639100 0.578600 0.345300
C439 C 0.640000 0.627400 0.383100
H440 H 0.568300 0.629400 0.408000
C441 C 0.744300 0.673200 0.384900
H442 H 0.743400 0.706100 0.411000
C443 C 0.848800 0.671300 0.349300
H444 H 0.918900 0.703300 0.350300
C445 C 0.851800 0.622700 0.312000
H446 H 0.924400 0.620600 0.287500
C447 C 0.748200 0.577100 0.310700
H448 H 0.751600 0.543400 0.285300
C449 C -0.028800 0.339600 0.291800
H450 H 0.001600 0.344500 0.326700
C451 C -0.073200 0.279200 0.274400
H452 H -0.073700 0.243100 0.297600
C453 C -0.115800 0.271300 0.224700
H454 H -0.142300 0.229500 0.212400
C455 C -0.120200 0.325100 0.192000
H456 H -0.153700 0.319900 0.157500
C457 C -0.076900 0.386500 0.208200
H458 H -0.080800 0.423000 0.185300
C459 C -0.028400 0.393000 0.258300
C460 C 0.033100 0.456800 0.277900
C461 C 0.093100 0.498500 0.242300
H462 H 0.084300 0.487800 0.206400
C463 C 0.166100 0.555600 0.254700
C464 C 0.220300 0.598200 0.211900
C465 C 0.164900 0.596700 0.161600
H466 H 0.090500 0.568600 0.153900
C467 C 0.218600 0.636200 0.123000
H468 H 0.182200 0.633300 0.088800
C469 C 0.319000 0.678000 0.132100
H470 H 0.351500 0.705900 0.105200
C471 C 0.374600 0.680200 0.180600
H472 H 0.448300 0.709100 0.187200
C473 C 0.325700 0.640600 0.220800
H474 H 0.365700 0.643200 0.254500
C475 C 0.042900 0.298300 0.457600
H476 H 0.102300 0.301400 0.428400
C477 C -0.028700 0.241600 0.466700
H478 H -0.014200 0.204900 0.444800
C479 C -0.119700 0.237500 0.506600
H480 H -0.170900 0.198600 0.511600
C481 C -0.137600 0.289200 0.539400
H482 H -0.201600 0.286400 0.567200
C483 C -0.062300 0.346000 0.532300
H484 H -0.072700 0.381600 0.555700
C485 C 0.028000 0.350600 0.490800
C486 C 0.106200 0.412100 0.479700
C487 C 0.137100 0.455600 0.519900
H488 H 0.100700 0.447100 0.553500
C489 C 0.218900 0.511200 0.513400
C490 C 0.248800 0.556000 0.558000
C491 C 0.325500 0.611600 0.548500
H492 H 0.359900 0.619600 0.514500
C493 C 0.352200 0.655400 0.588200
H494 H 0.407500 0.692500 0.581100
C495 C 0.301000 0.646800 0.637400
H496 H 0.317400 0.678200 0.664000
C497 C 0.224900 0.591400 0.647500
H498 H 0.189600 0.584100 0.681500
C499 C 0.199600 0.545800 0.607900
H500 H 0.148300 0.507600 0.615400
H501 H 0.629300 0.355500 0.020100
H502 H 0.129300 0.144500 0.979900
H503 H 0.370700 0.855500 0.479900
H504 H 0.870700 0.644500 0.520100

#END
