
#######################################################################
#
#                 Cambridge Crystallographic Data Centre
#                                CCDC 
#
#######################################################################
#
# If this CIF has been generated from an entry in the Cambridge 
# Structural Database, then it will include bibliographic, chemical, 
# crystal, experimental, refinement or atomic coordinate data resulting 
# from the CCDC's data processing and validation procedures.
#
#######################################################################

data_ACIKIG
_symmetry_cell_setting           monoclinic
_symmetry_space_group_name_H-M   'P 21/n'
_symmetry_Int_Tables_number      14
_space_group_name_Hall           '-P 2yn'
loop_
_symmetry_equiv_pos_site_id
_symmetry_equiv_pos_as_xyz
1 x,y,z
2 1/2-x,1/2+y,1/2-z
3 -x,-y,-z
4 1/2+x,1/2-y,1/2+z
_cell_length_a                   11.047(2)
_cell_length_b                   11.395(2)
_cell_length_c                   17.025(3)
_cell_angle_alpha                90
_cell_angle_beta                 90.70(3)
_cell_angle_gamma                90
_cell_volume                     2142.96
loop_
_atom_site_label
_atom_site_type_symbol
_atom_site_fract_x
_atom_site_fract_y
_atom_site_fract_z
O5 O 0.5000 0.0000 0.0000
H21 H 0.4575 -0.0563 0.0114
C20 C 0.5792(5) 0.0302(5) 0.0677(3)
H22 H 0.6611 0.0387 0.0503
H23 H 0.5755 -0.0311 0.1063
H24 H 0.5526 0.1027 0.0905
H21B H 0.5425 0.0563 -0.0114
C20B C 0.4208(5) -0.0302(5) -0.0677(3)
H22B H 0.3389 -0.0387 -0.0503
H23B H 0.4245 0.0311 -0.1063
H24B H 0.4474 -0.1027 -0.0905
O5 O 0.5000 0.0000 1.0000
H21 H 0.4575 -0.0563 1.0114
C20 C 0.5792(5) 0.0302(5) 1.0677(3)
H22 H 0.6611 0.0387 1.0503
H23 H 0.5755 -0.0311 1.1063
H24 H 0.5526 0.1027 1.0905
H21B H 0.5425 0.0563 0.9886
C20B C 0.4208(5) -0.0302(5) 0.9323(3)
H22B H 0.3389 -0.0387 0.9497
H23B H 0.4245 0.0311 0.8937
H24B H 0.4474 -0.1027 0.9095
O5 O 0.5000 1.0000 0.0000
H21 H 0.4575 0.9437 0.0114
C20 C 0.5792(5) 1.0302(5) 0.0677(3)
H22 H 0.6611 1.0387 0.0503
H23 H 0.5755 0.9689 0.1063
H24 H 0.5526 1.1027 0.0905
H21B H 0.5425 1.0563 -0.0114
C20B C 0.4208(5) 0.9698(5) -0.0677(3)
H22B H 0.3389 0.9613 -0.0503
H23B H 0.4245 1.0311 -0.1063
H24B H 0.4474 0.8973 -0.0905
O5 O 0.5000 1.0000 1.0000
H21 H 0.4575 0.9437 1.0114
C20 C 0.5792(5) 1.0302(5) 1.0677(3)
H22 H 0.6611 1.0387 1.0503
H23 H 0.5755 0.9689 1.1063
H24 H 0.5526 1.1027 1.0905
H21B H 0.5425 1.0563 0.9886
C20B C 0.4208(5) 0.9698(5) 0.9323(3)
H22B H 0.3389 0.9613 0.9497
H23B H 0.4245 1.0311 0.8937
H24B H 0.4474 0.8973 0.9095
O5 O 0.0000 0.5000 0.5000
H21 H 0.0425 0.4437 0.4886
C20 C -0.0792(5) 0.5302(5) 0.4323(3)
H22 H -0.1611 0.5387 0.4497
H23 H -0.0755 0.4689 0.3937
H24 H -0.0526 0.6027 0.4095
H21B H -0.0425 0.5563 0.5114
C20B C 0.0792(5) 0.4698(5) 0.5677(3)
H22B H 0.1611 0.4613 0.5503
H23B H 0.0755 0.5311 0.6063
H24B H 0.0526 0.3973 0.5905
O5 O 1.0000 0.5000 0.5000
H21 H 1.0425 0.4437 0.4886
C20 C 0.9208(5) 0.5302(5) 0.4323(3)
H22 H 0.8389 0.5387 0.4497
H23 H 0.9245 0.4689 0.3937
H24 H 0.9474 0.6027 0.4095
H21B H 0.9575 0.5563 0.5114
C20B C 1.0792(5) 0.4698(5) 0.5677(3)
H22B H 1.1611 0.4613 0.5503
H23B H 1.0755 0.5311 0.6063
H24B H 1.0526 0.3973 0.5905
H1 H -0.1519 -0.2770 0.2525
O1 O -0.20307(11) -0.46160(10) 0.08980(7)
N1 N -0.25262(11) -0.56492(11) 0.07773(8)
N2 N -0.33829(13) -0.60639(11) 0.11993(8)
C1 C -0.21236(14) -0.63325(14) 0.01185(10)
C2 C -0.25277(17) -0.74734(16) 0.00109(12)
H2 H -0.3032 -0.7830 0.0374
C3 C -0.2155(2) -0.80674(19) -0.06574(14)
H3 H -0.2425 -0.8829 -0.0747
C4 C -0.0973(2) -0.6433(2) -0.10611(12)
H4 H -0.0441 -0.6094 -0.1414
C5 C -0.1394(2) -0.7550(2) -0.11889(12)
H5 H -0.1164 -0.7959 -0.1636
C6 C -0.13416(17) -0.58049(17) -0.04039(11)
H6 H -0.1067 -0.5044 -0.0318
C7 C -0.66363(13) -0.25174(13) 0.28379(8)
C8 C -0.71835(16) -0.14876(15) 0.30833(11)
H7 H -0.6778 -0.0774 0.3052
C9 C -0.83484(18) -0.15436(18) 0.33769(12)
H8 H -0.8735 -0.0859 0.3533
C10 C -0.89377(16) -0.2606(2) 0.34390(11)
H9 H -0.9717 -0.2637 0.3638
C11 C -0.83682(16) -0.36258(19) 0.32046(12)
H10 H -0.8766 -0.4341 0.3251
C12 C -0.72098(15) -0.35910(15) 0.29010(10)
H11 H -0.6826 -0.4276 0.2743
C13 C -0.04180(12) -0.04166(12) 0.01939(8)
C14 C -0.15395(15) -0.10791(14) 0.13071(10)
H12 H -0.1766 -0.0962 0.1826
C15 C -0.07899(15) -0.02648(14) 0.09656(10)
H13 H -0.0532 0.0387 0.1251
C16 C -0.08399(16) -0.14159(14) -0.01930(9)
H14 H -0.0610 -0.1567 -0.0707
C17 C -0.16027(15) -0.21838(14) 0.01908(9)
H15 H -0.1882 -0.2841 -0.0080
Sn1 Sn -0.327863(8) -0.342631(8) 0.160139(6)
C18 C -0.44910(19) -0.33789(19) 0.06250(14)
H16 H -0.4864 -0.2619 0.0593
H17 H -0.5104 -0.3967 0.0688
H18 H -0.4053 -0.3529 0.0152
C19 C -0.20200(17) -0.34573(16) 0.25453(10)
H19 H -0.1523 -0.4146 0.2507
H20 H -0.2446 -0.3470 0.3033
O2 O -0.37210(11) -0.53606(10) 0.17567(7)
O3 O -0.48464(11) -0.34826(10) 0.24565(8)
O4 O -0.39929(13) -0.15693(10) 0.19357(11)
N3 N -0.19587(12) -0.20300(12) 0.09310(8)
N4 N -0.54461(11) -0.24905(11) 0.25030(8)
N5 N -0.50491(15) -0.15005(12) 0.22445(11)
C13B C 0.04180(12) 0.04166(12) -0.01939(8)
C14B C 0.15395(15) 0.10791(14) -0.13071(10)
H12B H 0.1766 0.0962 -0.1826
C15B C 0.07899(15) 0.02648(14) -0.09656(10)
H13B H 0.0532 -0.0387 -0.1251
C16B C 0.08399(16) 0.14159(14) 0.01930(9)
H14B H 0.0610 0.1567 0.0707
C17B C 0.16027(15) 0.21838(14) -0.01908(9)
H15B H 0.1882 0.2841 0.0080
N3B N 0.19587(12) 0.20300(12) -0.09310(8)
H1B H 0.1519 0.2770 -0.2525
O1B O 0.20307(11) 0.46160(10) -0.08980(7)
N1B N 0.25262(11) 0.56492(11) -0.07773(8)
N2B N 0.33829(13) 0.60639(11) -0.11993(8)
C1B C 0.21236(14) 0.63325(14) -0.01185(10)
C2B C 0.25277(17) 0.74734(16) -0.00109(12)
H2B H 0.3032 0.7830 -0.0374
C3B C 0.2155(2) 0.80674(19) 0.06574(14)
H3B H 0.2425 0.8829 0.0747
C4B C 0.0973(2) 0.6433(2) 0.10611(12)
H4B H 0.0441 0.6094 0.1414
C5B C 0.1394(2) 0.7550(2) 0.11889(12)
H5B H 0.1164 0.7959 0.1636
C6B C 0.13416(17) 0.58049(17) 0.04039(11)
H6B H 0.1067 0.5044 0.0318
C7B C 0.66363(13) 0.25174(13) -0.28379(8)
C8B C 0.71835(16) 0.14876(15) -0.30833(11)
H7B H 0.6778 0.0774 -0.3052
C9B C 0.83484(18) 0.15436(18) -0.33769(12)
H8B H 0.8735 0.0859 -0.3533
C10B C 0.89377(16) 0.2606(2) -0.34390(11)
H9B H 0.9717 0.2637 -0.3638
C11B C 0.83682(16) 0.36258(19) -0.32046(12)
H10B H 0.8766 0.4341 -0.3251
C12B C 0.72098(15) 0.35910(15) -0.29010(10)
H11B H 0.6826 0.4276 -0.2743
Sn1B Sn 0.327863(8) 0.342631(8) -0.160139(6)
C18B C 0.44910(19) 0.33789(19) -0.06250(14)
H16B H 0.4864 0.2619 -0.0593
H17B H 0.5104 0.3967 -0.0688
H18B H 0.4053 0.3529 -0.0152
C19B C 0.20200(17) 0.34573(16) -0.25453(10)
H19B H 0.1523 0.4146 -0.2507
H20B H 0.2446 0.3470 -0.3033
O2B O 0.37210(11) 0.53606(10) -0.17567(7)
O3B O 0.48464(11) 0.34826(10) -0.24565(8)
O4B O 0.39929(13) 0.15693(10) -0.19357(11)
N4B N 0.54461(11) 0.24905(11) -0.25030(8)
N5B N 0.50491(15) 0.15005(12) -0.22445(11)
H1 H -0.1519 -0.2770 1.2525
O1 O -0.20307(11) -0.46160(10) 1.08980(7)
N1 N -0.25262(11) -0.56492(11) 1.07773(8)
N2 N -0.33829(13) -0.60639(11) 1.11993(8)
C1 C -0.21236(14) -0.63325(14) 1.01185(10)
C2 C -0.25277(17) -0.74734(16) 1.00109(12)
H2 H -0.3032 -0.7830 1.0374
C3 C -0.2155(2) -0.80674(19) 0.93426(14)
H3 H -0.2425 -0.8829 0.9253
C4 C -0.0973(2) -0.6433(2) 0.89389(12)
H4 H -0.0441 -0.6094 0.8586
C5 C -0.1394(2) -0.7550(2) 0.88111(12)
H5 H -0.1164 -0.7959 0.8364
C6 C -0.13416(17) -0.58049(17) 0.95961(11)
H6 H -0.1067 -0.5044 0.9682
C7 C -0.66363(13) -0.25174(13) 1.28379(8)
C8 C -0.71835(16) -0.14876(15) 1.30833(11)
H7 H -0.6778 -0.0774 1.3052
C9 C -0.83484(18) -0.15436(18) 1.33769(12)
H8 H -0.8735 -0.0859 1.3533
C10 C -0.89377(16) -0.2606(2) 1.34390(11)
H9 H -0.9717 -0.2637 1.3638
C11 C -0.83682(16) -0.36258(19) 1.32046(12)
H10 H -0.8766 -0.4341 1.3251
C12 C -0.72098(15) -0.35910(15) 1.29010(10)
H11 H -0.6826 -0.4276 1.2743
C13 C -0.04180(12) -0.04166(12) 1.01939(8)
C14 C -0.15395(15) -0.10791(14) 1.13071(10)
H12 H -0.1766 -0.0962 1.1826
C15 C -0.07899(15) -0.02648(14) 1.09656(10)
H13 H -0.0532 0.0387 1.1251
C16 C -0.08399(16) -0.14159(14) 0.98070(9)
H14 H -0.0610 -0.1567 0.9293
C17 C -0.16027(15) -0.21838(14) 1.01908(9)
H15 H -0.1882 -0.2841 0.9920
Sn1 Sn -0.327863(8) -0.342631(8) 1.160139(6)
C18 C -0.44910(19) -0.33789(19) 1.06250(14)
H16 H -0.4864 -0.2619 1.0593
H17 H -0.5104 -0.3967 1.0688
H18 H -0.4053 -0.3529 1.0152
C19 C -0.20200(17) -0.34573(16) 1.25453(10)
H19 H -0.1523 -0.4146 1.2507
H20 H -0.2446 -0.3470 1.3033
O2 O -0.37210(11) -0.53606(10) 1.17567(7)
O3 O -0.48464(11) -0.34826(10) 1.24565(8)
O4 O -0.39929(13) -0.15693(10) 1.19357(11)
N3 N -0.19587(12) -0.20300(12) 1.09310(8)
N4 N -0.54461(11) -0.24905(11) 1.25030(8)
N5 N -0.50491(15) -0.15005(12) 1.22445(11)
C13B C 0.04180(12) 0.04166(12) 0.98061(8)
C14B C 0.15395(15) 0.10791(14) 0.86929(10)
H12B H 0.1766 0.0962 0.8174
C15B C 0.07899(15) 0.02648(14) 0.90344(10)
H13B H 0.0532 -0.0387 0.8749
C16B C 0.08399(16) 0.14159(14) 1.01930(9)
H14B H 0.0610 0.1567 1.0707
C17B C 0.16027(15) 0.21838(14) 0.98092(9)
H15B H 0.1882 0.2841 1.0080
N3B N 0.19587(12) 0.20300(12) 0.90690(8)
H1B H 0.1519 0.2770 0.7475
O1B O 0.20307(11) 0.46160(10) 0.91020(7)
N1B N 0.25262(11) 0.56492(11) 0.92227(8)
N2B N 0.33829(13) 0.60639(11) 0.88007(8)
C1B C 0.21236(14) 0.63325(14) 0.98815(10)
C2B C 0.25277(17) 0.74734(16) 0.99891(12)
H2B H 0.3032 0.7830 0.9626
C3B C 0.2155(2) 0.80674(19) 1.06574(14)
H3B H 0.2425 0.8829 1.0747
C4B C 0.0973(2) 0.6433(2) 1.10611(12)
H4B H 0.0441 0.6094 1.1414
C5B C 0.1394(2) 0.7550(2) 1.11889(12)
H5B H 0.1164 0.7959 1.1636
C6B C 0.13416(17) 0.58049(17) 1.04039(11)
H6B H 0.1067 0.5044 1.0318
C7B C 0.66363(13) 0.25174(13) 0.71621(8)
C8B C 0.71835(16) 0.14876(15) 0.69167(11)
H7B H 0.6778 0.0774 0.6948
C9B C 0.83484(18) 0.15436(18) 0.66231(12)
H8B H 0.8735 0.0859 0.6467
C10B C 0.89377(16) 0.2606(2) 0.65610(11)
H9B H 0.9717 0.2637 0.6362
C11B C 0.83682(16) 0.36258(19) 0.67954(12)
H10B H 0.8766 0.4341 0.6749
C12B C 0.72098(15) 0.35910(15) 0.70990(10)
H11B H 0.6826 0.4276 0.7257
Sn1B Sn 0.327863(8) 0.342631(8) 0.839861(6)
C18B C 0.44910(19) 0.33789(19) 0.93750(14)
H16B H 0.4864 0.2619 0.9407
H17B H 0.5104 0.3967 0.9312
H18B H 0.4053 0.3529 0.9848
C19B C 0.20200(17) 0.34573(16) 0.74547(10)
H19B H 0.1523 0.4146 0.7493
H20B H 0.2446 0.3470 0.6967
O2B O 0.37210(11) 0.53606(10) 0.82433(7)
O3B O 0.48464(11) 0.34826(10) 0.75435(8)
O4B O 0.39929(13) 0.15693(10) 0.80643(11)
N4B N 0.54461(11) 0.24905(11) 0.74970(8)
N5B N 0.50491(15) 0.15005(12) 0.77555(11)
H1 H -0.1519 0.7230 0.2525
O1 O -0.20307(11) 0.53840(10) 0.08980(7)
N1 N -0.25262(11) 0.43508(11) 0.07773(8)
N2 N -0.33829(13) 0.39361(11) 0.11993(8)
C1 C -0.21236(14) 0.36675(14) 0.01185(10)
C2 C -0.25277(17) 0.25266(16) 0.00109(12)
H2 H -0.3032 0.2170 0.0374
C3 C -0.2155(2) 0.19326(19) -0.06574(14)
H3 H -0.2425 0.1171 -0.0747
C4 C -0.0973(2) 0.3567(2) -0.10611(12)
H4 H -0.0441 0.3906 -0.1414
C5 C -0.1394(2) 0.2450(2) -0.11889(12)
H5 H -0.1164 0.2041 -0.1636
C6 C -0.13416(17) 0.41951(17) -0.04039(11)
H6 H -0.1067 0.4956 -0.0318
C7 C -0.66363(13) 0.74826(13) 0.28379(8)
C8 C -0.71835(16) 0.85124(15) 0.30833(11)
H7 H -0.6778 0.9226 0.3052
C9 C -0.83484(18) 0.84564(18) 0.33769(12)
H8 H -0.8735 0.9141 0.3533
C10 C -0.89377(16) 0.7394(2) 0.34390(11)
H9 H -0.9717 0.7363 0.3638
C11 C -0.83682(16) 0.63742(19) 0.32046(12)
H10 H -0.8766 0.5659 0.3251
C12 C -0.72098(15) 0.64090(15) 0.29010(10)
H11 H -0.6826 0.5724 0.2743
C13 C -0.04180(12) 0.95834(12) 0.01939(8)
C14 C -0.15395(15) 0.89209(14) 0.13071(10)
H12 H -0.1766 0.9038 0.1826
C15 C -0.07899(15) 0.97352(14) 0.09656(10)
H13 H -0.0532 1.0387 0.1251
C16 C -0.08399(16) 0.85841(14) -0.01930(9)
H14 H -0.0610 0.8433 -0.0707
C17 C -0.16027(15) 0.78162(14) 0.01908(9)
H15 H -0.1882 0.7159 -0.0080
Sn1 Sn -0.327863(8) 0.657369(8) 0.160139(6)
C18 C -0.44910(19) 0.66211(19) 0.06250(14)
H16 H -0.4864 0.7381 0.0593
H17 H -0.5104 0.6033 0.0688
H18 H -0.4053 0.6471 0.0152
C19 C -0.20200(17) 0.65427(16) 0.25453(10)
H19 H -0.1523 0.5854 0.2507
H20 H -0.2446 0.6530 0.3033
O2 O -0.37210(11) 0.46394(10) 0.17567(7)
O3 O -0.48464(11) 0.65174(10) 0.24565(8)
O4 O -0.39929(13) 0.84307(10) 0.19357(11)
N3 N -0.19587(12) 0.79700(12) 0.09310(8)
N4 N -0.54461(11) 0.75095(11) 0.25030(8)
N5 N -0.50491(15) 0.84995(12) 0.22445(11)
C13B C 0.04180(12) 1.04166(12) -0.01939(8)
C14B C 0.15395(15) 1.10791(14) -0.13071(10)
H12B H 0.1766 1.0962 -0.1826
C15B C 0.07899(15) 1.02648(14) -0.09656(10)
H13B H 0.0532 0.9613 -0.1251
C16B C 0.08399(16) 1.14159(14) 0.01930(9)
H14B H 0.0610 1.1567 0.0707
C17B C 0.16027(15) 1.21838(14) -0.01908(9)
H15B H 0.1882 1.2841 0.0080
N3B N 0.19587(12) 1.20300(12) -0.09310(8)
H1B H 0.1519 1.2770 -0.2525
O1B O 0.20307(11) 1.46160(10) -0.08980(7)
N1B N 0.25262(11) 1.56492(11) -0.07773(8)
N2B N 0.33829(13) 1.60639(11) -0.11993(8)
C1B C 0.21236(14) 1.63325(14) -0.01185(10)
C2B C 0.25277(17) 1.74734(16) -0.00109(12)
H2B H 0.3032 1.7830 -0.0374
C3B C 0.2155(2) 1.80674(19) 0.06574(14)
H3B H 0.2425 1.8829 0.0747
C4B C 0.0973(2) 1.6433(2) 0.10611(12)
H4B H 0.0441 1.6094 0.1414
C5B C 0.1394(2) 1.7550(2) 0.11889(12)
H5B H 0.1164 1.7959 0.1636
C6B C 0.13416(17) 1.58049(17) 0.04039(11)
H6B H 0.1067 1.5044 0.0318
C7B C 0.66363(13) 1.25174(13) -0.28379(8)
C8B C 0.71835(16) 1.14876(15) -0.30833(11)
H7B H 0.6778 1.0774 -0.3052
C9B C 0.83484(18) 1.15436(18) -0.33769(12)
H8B H 0.8735 1.0859 -0.3533
C10B C 0.89377(16) 1.2606(2) -0.34390(11)
H9B H 0.9717 1.2637 -0.3638
C11B C 0.83682(16) 1.36258(19) -0.32046(12)
H10B H 0.8766 1.4341 -0.3251
C12B C 0.72098(15) 1.35910(15) -0.29010(10)
H11B H 0.6826 1.4276 -0.2743
Sn1B Sn 0.327863(8) 1.342631(8) -0.160139(6)
C18B C 0.44910(19) 1.33789(19) -0.06250(14)
H16B H 0.4864 1.2619 -0.0593
H17B H 0.5104 1.3967 -0.0688
H18B H 0.4053 1.3529 -0.0152
C19B C 0.20200(17) 1.34573(16) -0.25453(10)
H19B H 0.1523 1.4146 -0.2507
H20B H 0.2446 1.3470 -0.3033
O2B O 0.37210(11) 1.53606(10) -0.17567(7)
O3B O 0.48464(11) 1.34826(10) -0.24565(8)
O4B O 0.39929(13) 1.15693(10) -0.19357(11)
N4B N 0.54461(11) 1.24905(11) -0.25030(8)
N5B N 0.50491(15) 1.15005(12) -0.22445(11)
H1 H -0.1519 0.7230 1.2525
O1 O -0.20307(11) 0.53840(10) 1.08980(7)
N1 N -0.25262(11) 0.43508(11) 1.07773(8)
N2 N -0.33829(13) 0.39361(11) 1.11993(8)
C1 C -0.21236(14) 0.36675(14) 1.01185(10)
C2 C -0.25277(17) 0.25266(16) 1.00109(12)
H2 H -0.3032 0.2170 1.0374
C3 C -0.2155(2) 0.19326(19) 0.93426(14)
H3 H -0.2425 0.1171 0.9253
C4 C -0.0973(2) 0.3567(2) 0.89389(12)
H4 H -0.0441 0.3906 0.8586
C5 C -0.1394(2) 0.2450(2) 0.88111(12)
H5 H -0.1164 0.2041 0.8364
C6 C -0.13416(17) 0.41951(17) 0.95961(11)
H6 H -0.1067 0.4956 0.9682
C7 C -0.66363(13) 0.74826(13) 1.28379(8)
C8 C -0.71835(16) 0.85124(15) 1.30833(11)
H7 H -0.6778 0.9226 1.3052
C9 C -0.83484(18) 0.84564(18) 1.33769(12)
H8 H -0.8735 0.9141 1.3533
C10 C -0.89377(16) 0.7394(2) 1.34390(11)
H9 H -0.9717 0.7363 1.3638
C11 C -0.83682(16) 0.63742(19) 1.32046(12)
H10 H -0.8766 0.5659 1.3251
C12 C -0.72098(15) 0.64090(15) 1.29010(10)
H11 H -0.6826 0.5724 1.2743
C13 C -0.04180(12) 0.95834(12) 1.01939(8)
C14 C -0.15395(15) 0.89209(14) 1.13071(10)
H12 H -0.1766 0.9038 1.1826
C15 C -0.07899(15) 0.97352(14) 1.09656(10)
H13 H -0.0532 1.0387 1.1251
C16 C -0.08399(16) 0.85841(14) 0.98070(9)
H14 H -0.0610 0.8433 0.9293
C17 C -0.16027(15) 0.78162(14) 1.01908(9)
H15 H -0.1882 0.7159 0.9920
Sn1 Sn -0.327863(8) 0.657369(8) 1.160139(6)
C18 C -0.44910(19) 0.66211(19) 1.06250(14)
H16 H -0.4864 0.7381 1.0593
H17 H -0.5104 0.6033 1.0688
H18 H -0.4053 0.6471 1.0152
C19 C -0.20200(17) 0.65427(16) 1.25453(10)
H19 H -0.1523 0.5854 1.2507
H20 H -0.2446 0.6530 1.3033
O2 O -0.37210(11) 0.46394(10) 1.17567(7)
O3 O -0.48464(11) 0.65174(10) 1.24565(8)
O4 O -0.39929(13) 0.84307(10) 1.19357(11)
N3 N -0.19587(12) 0.79700(12) 1.09310(8)
N4 N -0.54461(11) 0.75095(11) 1.25030(8)
N5 N -0.50491(15) 0.84995(12) 1.22445(11)
C13B C 0.04180(12) 1.04166(12) 0.98061(8)
C14B C 0.15395(15) 1.10791(14) 0.86929(10)
H12B H 0.1766 1.0962 0.8174
C15B C 0.07899(15) 1.02648(14) 0.90344(10)
H13B H 0.0532 0.9613 0.8749
C16B C 0.08399(16) 1.14159(14) 1.01930(9)
H14B H 0.0610 1.1567 1.0707
C17B C 0.16027(15) 1.21838(14) 0.98092(9)
H15B H 0.1882 1.2841 1.0080
N3B N 0.19587(12) 1.20300(12) 0.90690(8)
H1B H 0.1519 1.2770 0.7475
O1B O 0.20307(11) 1.46160(10) 0.91020(7)
N1B N 0.25262(11) 1.56492(11) 0.92227(8)
N2B N 0.33829(13) 1.60639(11) 0.88007(8)
C1B C 0.21236(14) 1.63325(14) 0.98815(10)
C2B C 0.25277(17) 1.74734(16) 0.99891(12)
H2B H 0.3032 1.7830 0.9626
C3B C 0.2155(2) 1.80674(19) 1.06574(14)
H3B H 0.2425 1.8829 1.0747
C4B C 0.0973(2) 1.6433(2) 1.10611(12)
H4B H 0.0441 1.6094 1.1414
C5B C 0.1394(2) 1.7550(2) 1.11889(12)
H5B H 0.1164 1.7959 1.1636
C6B C 0.13416(17) 1.58049(17) 1.04039(11)
H6B H 0.1067 1.5044 1.0318
C7B C 0.66363(13) 1.25174(13) 0.71621(8)
C8B C 0.71835(16) 1.14876(15) 0.69167(11)
H7B H 0.6778 1.0774 0.6948
C9B C 0.83484(18) 1.15436(18) 0.66231(12)
H8B H 0.8735 1.0859 0.6467
C10B C 0.89377(16) 1.2606(2) 0.65610(11)
H9B H 0.9717 1.2637 0.6362
C11B C 0.83682(16) 1.36258(19) 0.67954(12)
H10B H 0.8766 1.4341 0.6749
C12B C 0.72098(15) 1.35910(15) 0.70990(10)
H11B H 0.6826 1.4276 0.7257
Sn1B Sn 0.327863(8) 1.342631(8) 0.839861(6)
C18B C 0.44910(19) 1.33789(19) 0.93750(14)
H16B H 0.4864 1.2619 0.9407
H17B H 0.5104 1.3967 0.9312
H18B H 0.4053 1.3529 0.9848
C19B C 0.20200(17) 1.34573(16) 0.74547(10)
H19B H 0.1523 1.4146 0.7493
H20B H 0.2446 1.3470 0.6967
O2B O 0.37210(11) 1.53606(10) 0.82433(7)
O3B O 0.48464(11) 1.34826(10) 0.75435(8)
O4B O 0.39929(13) 1.15693(10) 0.80643(11)
N4B N 0.54461(11) 1.24905(11) 0.74970(8)
N5B N 0.50491(15) 1.15005(12) 0.77555(11)
H1 H 0.8481 -0.2770 0.2525
O1 O 0.79693(11) -0.46160(10) 0.08980(7)
N1 N 0.74738(11) -0.56492(11) 0.07773(8)
N2 N 0.66171(13) -0.60639(11) 0.11993(8)
C1 C 0.78764(14) -0.63325(14) 0.01185(10)
C2 C 0.74723(17) -0.74734(16) 0.00109(12)
H2 H 0.6968 -0.7830 0.0374
C3 C 0.7845(2) -0.80674(19) -0.06574(14)
H3 H 0.7575 -0.8829 -0.0747
C4 C 0.9027(2) -0.6433(2) -0.10611(12)
H4 H 0.9559 -0.6094 -0.1414
C5 C 0.8606(2) -0.7550(2) -0.11889(12)
H5 H 0.8836 -0.7959 -0.1636
C6 C 0.86584(17) -0.58049(17) -0.04039(11)
H6 H 0.8933 -0.5044 -0.0318
C7 C 0.33637(13) -0.25174(13) 0.28379(8)
C8 C 0.28165(16) -0.14876(15) 0.30833(11)
H7 H 0.3222 -0.0774 0.3052
C9 C 0.16516(18) -0.15436(18) 0.33769(12)
H8 H 0.1265 -0.0859 0.3533
C10 C 0.10623(16) -0.2606(2) 0.34390(11)
H9 H 0.0283 -0.2637 0.3638
C11 C 0.16318(16) -0.36258(19) 0.32046(12)
H10 H 0.1234 -0.4341 0.3251
C12 C 0.27902(15) -0.35910(15) 0.29010(10)
H11 H 0.3174 -0.4276 0.2743
C13 C 0.95820(12) -0.04166(12) 0.01939(8)
C14 C 0.84605(15) -0.10791(14) 0.13071(10)
H12 H 0.8234 -0.0962 0.1826
C15 C 0.92101(15) -0.02648(14) 0.09656(10)
H13 H 0.9468 0.0387 0.1251
C16 C 0.91601(16) -0.14159(14) -0.01930(9)
H14 H 0.9390 -0.1567 -0.0707
C17 C 0.83973(15) -0.21838(14) 0.01908(9)
H15 H 0.8118 -0.2841 -0.0080
Sn1 Sn 0.672137(8) -0.342631(8) 0.160139(6)
C18 C 0.55090(19) -0.33789(19) 0.06250(14)
H16 H 0.5136 -0.2619 0.0593
H17 H 0.4896 -0.3967 0.0688
H18 H 0.5947 -0.3529 0.0152
C19 C 0.79800(17) -0.34573(16) 0.25453(10)
H19 H 0.8477 -0.4146 0.2507
H20 H 0.7554 -0.3470 0.3033
O2 O 0.62790(11) -0.53606(10) 0.17567(7)
O3 O 0.51536(11) -0.34826(10) 0.24565(8)
O4 O 0.60071(13) -0.15693(10) 0.19357(11)
N3 N 0.80413(12) -0.20300(12) 0.09310(8)
N4 N 0.45539(11) -0.24905(11) 0.25030(8)
N5 N 0.49509(15) -0.15005(12) 0.22445(11)
C13B C 1.04180(12) 0.04166(12) -0.01939(8)
C14B C 1.15395(15) 0.10791(14) -0.13071(10)
H12B H 1.1766 0.0962 -0.1826
C15B C 1.07899(15) 0.02648(14) -0.09656(10)
H13B H 1.0532 -0.0387 -0.1251
C16B C 1.08399(16) 0.14159(14) 0.01930(9)
H14B H 1.0610 0.1567 0.0707
C17B C 1.16027(15) 0.21838(14) -0.01908(9)
H15B H 1.1882 0.2841 0.0080
N3B N 1.19587(12) 0.20300(12) -0.09310(8)
H1B H 1.1519 0.2770 -0.2525
O1B O 1.20307(11) 0.46160(10) -0.08980(7)
N1B N 1.25262(11) 0.56492(11) -0.07773(8)
N2B N 1.33829(13) 0.60639(11) -0.11993(8)
C1B C 1.21236(14) 0.63325(14) -0.01185(10)
C2B C 1.25277(17) 0.74734(16) -0.00109(12)
H2B H 1.3032 0.7830 -0.0374
C3B C 1.2155(2) 0.80674(19) 0.06574(14)
H3B H 1.2425 0.8829 0.0747
C4B C 1.0973(2) 0.6433(2) 0.10611(12)
H4B H 1.0441 0.6094 0.1414
C5B C 1.1394(2) 0.7550(2) 0.11889(12)
H5B H 1.1164 0.7959 0.1636
C6B C 1.13416(17) 0.58049(17) 0.04039(11)
H6B H 1.1067 0.5044 0.0318
C7B C 1.66363(13) 0.25174(13) -0.28379(8)
C8B C 1.71835(16) 0.14876(15) -0.30833(11)
H7B H 1.6778 0.0774 -0.3052
C9B C 1.83484(18) 0.15436(18) -0.33769(12)
H8B H 1.8735 0.0859 -0.3533
C10B C 1.89377(16) 0.2606(2) -0.34390(11)
H9B H 1.9717 0.2637 -0.3638
C11B C 1.83682(16) 0.36258(19) -0.32046(12)
H10B H 1.8766 0.4341 -0.3251
C12B C 1.72098(15) 0.35910(15) -0.29010(10)
H11B H 1.6826 0.4276 -0.2743
Sn1B Sn 1.327863(8) 0.342631(8) -0.160139(6)
C18B C 1.44910(19) 0.33789(19) -0.06250(14)
H16B H 1.4864 0.2619 -0.0593
H17B H 1.5104 0.3967 -0.0688
H18B H 1.4053 0.3529 -0.0152
C19B C 1.20200(17) 0.34573(16) -0.25453(10)
H19B H 1.1523 0.4146 -0.2507
H20B H 1.2446 0.3470 -0.3033
O2B O 1.37210(11) 0.53606(10) -0.17567(7)
O3B O 1.48464(11) 0.34826(10) -0.24565(8)
O4B O 1.39929(13) 0.15693(10) -0.19357(11)
N4B N 1.54461(11) 0.24905(11) -0.25030(8)
N5B N 1.50491(15) 0.15005(12) -0.22445(11)
H1 H 0.8481 -0.2770 1.2525
O1 O 0.79693(11) -0.46160(10) 1.08980(7)
N1 N 0.74738(11) -0.56492(11) 1.07773(8)
N2 N 0.66171(13) -0.60639(11) 1.11993(8)
C1 C 0.78764(14) -0.63325(14) 1.01185(10)
C2 C 0.74723(17) -0.74734(16) 1.00109(12)
H2 H 0.6968 -0.7830 1.0374
C3 C 0.7845(2) -0.80674(19) 0.93426(14)
H3 H 0.7575 -0.8829 0.9253
C4 C 0.9027(2) -0.6433(2) 0.89389(12)
H4 H 0.9559 -0.6094 0.8586
C5 C 0.8606(2) -0.7550(2) 0.88111(12)
H5 H 0.8836 -0.7959 0.8364
C6 C 0.86584(17) -0.58049(17) 0.95961(11)
H6 H 0.8933 -0.5044 0.9682
C7 C 0.33637(13) -0.25174(13) 1.28379(8)
C8 C 0.28165(16) -0.14876(15) 1.30833(11)
H7 H 0.3222 -0.0774 1.3052
C9 C 0.16516(18) -0.15436(18) 1.33769(12)
H8 H 0.1265 -0.0859 1.3533
C10 C 0.10623(16) -0.2606(2) 1.34390(11)
H9 H 0.0283 -0.2637 1.3638
C11 C 0.16318(16) -0.36258(19) 1.32046(12)
H10 H 0.1234 -0.4341 1.3251
C12 C 0.27902(15) -0.35910(15) 1.29010(10)
H11 H 0.3174 -0.4276 1.2743
C13 C 0.95820(12) -0.04166(12) 1.01939(8)
C14 C 0.84605(15) -0.10791(14) 1.13071(10)
H12 H 0.8234 -0.0962 1.1826
C15 C 0.92101(15) -0.02648(14) 1.09656(10)
H13 H 0.9468 0.0387 1.1251
C16 C 0.91601(16) -0.14159(14) 0.98070(9)
H14 H 0.9390 -0.1567 0.9293
C17 C 0.83973(15) -0.21838(14) 1.01908(9)
H15 H 0.8118 -0.2841 0.9920
Sn1 Sn 0.672137(8) -0.342631(8) 1.160139(6)
C18 C 0.55090(19) -0.33789(19) 1.06250(14)
H16 H 0.5136 -0.2619 1.0593
H17 H 0.4896 -0.3967 1.0688
H18 H 0.5947 -0.3529 1.0152
C19 C 0.79800(17) -0.34573(16) 1.25453(10)
H19 H 0.8477 -0.4146 1.2507
H20 H 0.7554 -0.3470 1.3033
O2 O 0.62790(11) -0.53606(10) 1.17567(7)
O3 O 0.51536(11) -0.34826(10) 1.24565(8)
O4 O 0.60071(13) -0.15693(10) 1.19357(11)
N3 N 0.80413(12) -0.20300(12) 1.09310(8)
N4 N 0.45539(11) -0.24905(11) 1.25030(8)
N5 N 0.49509(15) -0.15005(12) 1.22445(11)
C13B C 1.04180(12) 0.04166(12) 0.98061(8)
C14B C 1.15395(15) 0.10791(14) 0.86929(10)
H12B H 1.1766 0.0962 0.8174
C15B C 1.07899(15) 0.02648(14) 0.90344(10)
H13B H 1.0532 -0.0387 0.8749
C16B C 1.08399(16) 0.14159(14) 1.01930(9)
H14B H 1.0610 0.1567 1.0707
C17B C 1.16027(15) 0.21838(14) 0.98092(9)
H15B H 1.1882 0.2841 1.0080
N3B N 1.19587(12) 0.20300(12) 0.90690(8)
H1B H 1.1519 0.2770 0.7475
O1B O 1.20307(11) 0.46160(10) 0.91020(7)
N1B N 1.25262(11) 0.56492(11) 0.92227(8)
N2B N 1.33829(13) 0.60639(11) 0.88007(8)
C1B C 1.21236(14) 0.63325(14) 0.98815(10)
C2B C 1.25277(17) 0.74734(16) 0.99891(12)
H2B H 1.3032 0.7830 0.9626
C3B C 1.2155(2) 0.80674(19) 1.06574(14)
H3B H 1.2425 0.8829 1.0747
C4B C 1.0973(2) 0.6433(2) 1.10611(12)
H4B H 1.0441 0.6094 1.1414
C5B C 1.1394(2) 0.7550(2) 1.11889(12)
H5B H 1.1164 0.7959 1.1636
C6B C 1.13416(17) 0.58049(17) 1.04039(11)
H6B H 1.1067 0.5044 1.0318
C7B C 1.66363(13) 0.25174(13) 0.71621(8)
C8B C 1.71835(16) 0.14876(15) 0.69167(11)
H7B H 1.6778 0.0774 0.6948
C9B C 1.83484(18) 0.15436(18) 0.66231(12)
H8B H 1.8735 0.0859 0.6467
C10B C 1.89377(16) 0.2606(2) 0.65610(11)
H9B H 1.9717 0.2637 0.6362
C11B C 1.83682(16) 0.36258(19) 0.67954(12)
H10B H 1.8766 0.4341 0.6749
C12B C 1.72098(15) 0.35910(15) 0.70990(10)
H11B H 1.6826 0.4276 0.7257
Sn1B Sn 1.327863(8) 0.342631(8) 0.839861(6)
C18B C 1.44910(19) 0.33789(19) 0.93750(14)
H16B H 1.4864 0.2619 0.9407
H17B H 1.5104 0.3967 0.9312
H18B H 1.4053 0.3529 0.9848
C19B C 1.20200(17) 0.34573(16) 0.74547(10)
H19B H 1.1523 0.4146 0.7493
H20B H 1.2446 0.3470 0.6967
O2B O 1.37210(11) 0.53606(10) 0.82433(7)
O3B O 1.48464(11) 0.34826(10) 0.75435(8)
O4B O 1.39929(13) 0.15693(10) 0.80643(11)
N4B N 1.54461(11) 0.24905(11) 0.74970(8)
N5B N 1.50491(15) 0.15005(12) 0.77555(11)
H1 H 0.8481 0.7230 0.2525
O1 O 0.79693(11) 0.53840(10) 0.08980(7)
N1 N 0.74738(11) 0.43508(11) 0.07773(8)
N2 N 0.66171(13) 0.39361(11) 0.11993(8)
C1 C 0.78764(14) 0.36675(14) 0.01185(10)
C2 C 0.74723(17) 0.25266(16) 0.00109(12)
H2 H 0.6968 0.2170 0.0374
C3 C 0.7845(2) 0.19326(19) -0.06574(14)
H3 H 0.7575 0.1171 -0.0747
C4 C 0.9027(2) 0.3567(2) -0.10611(12)
H4 H 0.9559 0.3906 -0.1414
C5 C 0.8606(2) 0.2450(2) -0.11889(12)
H5 H 0.8836 0.2041 -0.1636
C6 C 0.86584(17) 0.41951(17) -0.04039(11)
H6 H 0.8933 0.4956 -0.0318
C7 C 0.33637(13) 0.74826(13) 0.28379(8)
C8 C 0.28165(16) 0.85124(15) 0.30833(11)
H7 H 0.3222 0.9226 0.3052
C9 C 0.16516(18) 0.84564(18) 0.33769(12)
H8 H 0.1265 0.9141 0.3533
C10 C 0.10623(16) 0.7394(2) 0.34390(11)
H9 H 0.0283 0.7363 0.3638
C11 C 0.16318(16) 0.63742(19) 0.32046(12)
H10 H 0.1234 0.5659 0.3251
C12 C 0.27902(15) 0.64090(15) 0.29010(10)
H11 H 0.3174 0.5724 0.2743
C13 C 0.95820(12) 0.95834(12) 0.01939(8)
C14 C 0.84605(15) 0.89209(14) 0.13071(10)
H12 H 0.8234 0.9038 0.1826
C15 C 0.92101(15) 0.97352(14) 0.09656(10)
H13 H 0.9468 1.0387 0.1251
C16 C 0.91601(16) 0.85841(14) -0.01930(9)
H14 H 0.9390 0.8433 -0.0707
C17 C 0.83973(15) 0.78162(14) 0.01908(9)
H15 H 0.8118 0.7159 -0.0080
Sn1 Sn 0.672137(8) 0.657369(8) 0.160139(6)
C18 C 0.55090(19) 0.66211(19) 0.06250(14)
H16 H 0.5136 0.7381 0.0593
H17 H 0.4896 0.6033 0.0688
H18 H 0.5947 0.6471 0.0152
C19 C 0.79800(17) 0.65427(16) 0.25453(10)
H19 H 0.8477 0.5854 0.2507
H20 H 0.7554 0.6530 0.3033
O2 O 0.62790(11) 0.46394(10) 0.17567(7)
O3 O 0.51536(11) 0.65174(10) 0.24565(8)
O4 O 0.60071(13) 0.84307(10) 0.19357(11)
N3 N 0.80413(12) 0.79700(12) 0.09310(8)
N4 N 0.45539(11) 0.75095(11) 0.25030(8)
N5 N 0.49509(15) 0.84995(12) 0.22445(11)
C13B C 1.04180(12) 1.04166(12) -0.01939(8)
C14B C 1.15395(15) 1.10791(14) -0.13071(10)
H12B H 1.1766 1.0962 -0.1826
C15B C 1.07899(15) 1.02648(14) -0.09656(10)
H13B H 1.0532 0.9613 -0.1251
C16B C 1.08399(16) 1.14159(14) 0.01930(9)
H14B H 1.0610 1.1567 0.0707
C17B C 1.16027(15) 1.21838(14) -0.01908(9)
H15B H 1.1882 1.2841 0.0080
N3B N 1.19587(12) 1.20300(12) -0.09310(8)
H1B H 1.1519 1.2770 -0.2525
O1B O 1.20307(11) 1.46160(10) -0.08980(7)
N1B N 1.25262(11) 1.56492(11) -0.07773(8)
N2B N 1.33829(13) 1.60639(11) -0.11993(8)
C1B C 1.21236(14) 1.63325(14) -0.01185(10)
C2B C 1.25277(17) 1.74734(16) -0.00109(12)
H2B H 1.3032 1.7830 -0.0374
C3B C 1.2155(2) 1.80674(19) 0.06574(14)
H3B H 1.2425 1.8829 0.0747
C4B C 1.0973(2) 1.6433(2) 0.10611(12)
H4B H 1.0441 1.6094 0.1414
C5B C 1.1394(2) 1.7550(2) 0.11889(12)
H5B H 1.1164 1.7959 0.1636
C6B C 1.13416(17) 1.58049(17) 0.04039(11)
H6B H 1.1067 1.5044 0.0318
C7B C 1.66363(13) 1.25174(13) -0.28379(8)
C8B C 1.71835(16) 1.14876(15) -0.30833(11)
H7B H 1.6778 1.0774 -0.3052
C9B C 1.83484(18) 1.15436(18) -0.33769(12)
H8B H 1.8735 1.0859 -0.3533
C10B C 1.89377(16) 1.2606(2) -0.34390(11)
H9B H 1.9717 1.2637 -0.3638
C11B C 1.83682(16) 1.36258(19) -0.32046(12)
H10B H 1.8766 1.4341 -0.3251
C12B C 1.72098(15) 1.35910(15) -0.29010(10)
H11B H 1.6826 1.4276 -0.2743
Sn1B Sn 1.327863(8) 1.342631(8) -0.160139(6)
C18B C 1.44910(19) 1.33789(19) -0.06250(14)
H16B H 1.4864 1.2619 -0.0593
H17B H 1.5104 1.3967 -0.0688
H18B H 1.4053 1.3529 -0.0152
C19B C 1.20200(17) 1.34573(16) -0.25453(10)
H19B H 1.1523 1.4146 -0.2507
H20B H 1.2446 1.3470 -0.3033
O2B O 1.37210(11) 1.53606(10) -0.17567(7)
O3B O 1.48464(11) 1.34826(10) -0.24565(8)
O4B O 1.39929(13) 1.15693(10) -0.19357(11)
N4B N 1.54461(11) 1.24905(11) -0.25030(8)
N5B N 1.50491(15) 1.15005(12) -0.22445(11)
H1 H 0.8481 0.7230 1.2525
O1 O 0.79693(11) 0.53840(10) 1.08980(7)
N1 N 0.74738(11) 0.43508(11) 1.07773(8)
N2 N 0.66171(13) 0.39361(11) 1.11993(8)
C1 C 0.78764(14) 0.36675(14) 1.01185(10)
C2 C 0.74723(17) 0.25266(16) 1.00109(12)
H2 H 0.6968 0.2170 1.0374
C3 C 0.7845(2) 0.19326(19) 0.93426(14)
H3 H 0.7575 0.1171 0.9253
C4 C 0.9027(2) 0.3567(2) 0.89389(12)
H4 H 0.9559 0.3906 0.8586
C5 C 0.8606(2) 0.2450(2) 0.88111(12)
H5 H 0.8836 0.2041 0.8364
C6 C 0.86584(17) 0.41951(17) 0.95961(11)
H6 H 0.8933 0.4956 0.9682
C7 C 0.33637(13) 0.74826(13) 1.28379(8)
C8 C 0.28165(16) 0.85124(15) 1.30833(11)
H7 H 0.3222 0.9226 1.3052
C9 C 0.16516(18) 0.84564(18) 1.33769(12)
H8 H 0.1265 0.9141 1.3533
C10 C 0.10623(16) 0.7394(2) 1.34390(11)
H9 H 0.0283 0.7363 1.3638
C11 C 0.16318(16) 0.63742(19) 1.32046(12)
H10 H 0.1234 0.5659 1.3251
C12 C 0.27902(15) 0.64090(15) 1.29010(10)
H11 H 0.3174 0.5724 1.2743
C13 C 0.95820(12) 0.95834(12) 1.01939(8)
C14 C 0.84605(15) 0.89209(14) 1.13071(10)
H12 H 0.8234 0.9038 1.1826
C15 C 0.92101(15) 0.97352(14) 1.09656(10)
H13 H 0.9468 1.0387 1.1251
C16 C 0.91601(16) 0.85841(14) 0.98070(9)
H14 H 0.9390 0.8433 0.9293
C17 C 0.83973(15) 0.78162(14) 1.01908(9)
H15 H 0.8118 0.7159 0.9920
Sn1 Sn 0.672137(8) 0.657369(8) 1.160139(6)
C18 C 0.55090(19) 0.66211(19) 1.06250(14)
H16 H 0.5136 0.7381 1.0593
H17 H 0.4896 0.6033 1.0688
H18 H 0.5947 0.6471 1.0152
C19 C 0.79800(17) 0.65427(16) 1.25453(10)
H19 H 0.8477 0.5854 1.2507
H20 H 0.7554 0.6530 1.3033
O2 O 0.62790(11) 0.46394(10) 1.17567(7)
O3 O 0.51536(11) 0.65174(10) 1.24565(8)
O4 O 0.60071(13) 0.84307(10) 1.19357(11)
N3 N 0.80413(12) 0.79700(12) 1.09310(8)
N4 N 0.45539(11) 0.75095(11) 1.25030(8)
N5 N 0.49509(15) 0.84995(12) 1.22445(11)
C13B C 1.04180(12) 1.04166(12) 0.98061(8)
C14B C 1.15395(15) 1.10791(14) 0.86929(10)
H12B H 1.1766 1.0962 0.8174
C15B C 1.07899(15) 1.02648(14) 0.90344(10)
H13B H 1.0532 0.9613 0.8749
C16B C 1.08399(16) 1.14159(14) 1.01930(9)
H14B H 1.0610 1.1567 1.0707
C17B C 1.16027(15) 1.21838(14) 0.98092(9)
H15B H 1.1882 1.2841 1.0080
N3B N 1.19587(12) 1.20300(12) 0.90690(8)
H1B H 1.1519 1.2770 0.7475
O1B O 1.20307(11) 1.46160(10) 0.91020(7)
N1B N 1.25262(11) 1.56492(11) 0.92227(8)
N2B N 1.33829(13) 1.60639(11) 0.88007(8)
C1B C 1.21236(14) 1.63325(14) 0.98815(10)
C2B C 1.25277(17) 1.74734(16) 0.99891(12)
H2B H 1.3032 1.7830 0.9626
C3B C 1.2155(2) 1.80674(19) 1.06574(14)
H3B H 1.2425 1.8829 1.0747
C4B C 1.0973(2) 1.6433(2) 1.10611(12)
H4B H 1.0441 1.6094 1.1414
C5B C 1.1394(2) 1.7550(2) 1.11889(12)
H5B H 1.1164 1.7959 1.1636
C6B C 1.13416(17) 1.58049(17) 1.04039(11)
H6B H 1.1067 1.5044 1.0318
C7B C 1.66363(13) 1.25174(13) 0.71621(8)
C8B C 1.71835(16) 1.14876(15) 0.69167(11)
H7B H 1.6778 1.0774 0.6948
C9B C 1.83484(18) 1.15436(18) 0.66231(12)
H8B H 1.8735 1.0859 0.6467
C10B C 1.89377(16) 1.2606(2) 0.65610(11)
H9B H 1.9717 1.2637 0.6362
C11B C 1.83682(16) 1.36258(19) 0.67954(12)
H10B H 1.8766 1.4341 0.6749
C12B C 1.72098(15) 1.35910(15) 0.70990(10)
H11B H 1.6826 1.4276 0.7257
Sn1B Sn 1.327863(8) 1.342631(8) 0.839861(6)
C18B C 1.44910(19) 1.33789(19) 0.93750(14)
H16B H 1.4864 1.2619 0.9407
H17B H 1.5104 1.3967 0.9312
H18B H 1.4053 1.3529 0.9848
C19B C 1.20200(17) 1.34573(16) 0.74547(10)
H19B H 1.1523 1.4146 0.7493
H20B H 1.2446 1.3470 0.6967
O2B O 1.37210(11) 1.53606(10) 0.82433(7)
O3B O 1.48464(11) 1.34826(10) 0.75435(8)
O4B O 1.39929(13) 1.15693(10) 0.80643(11)
N4B N 1.54461(11) 1.24905(11) 0.74970(8)
N5B N 1.50491(15) 1.15005(12) 0.77555(11)
H1 H 0.6519 0.2230 0.2475
O1 O 0.70307(11) 0.03840(10) 0.41020(7)
N1 N 0.75262(11) -0.06492(11) 0.42227(8)
N2 N 0.83829(13) -0.10639(11) 0.38007(8)
C1 C 0.71236(14) -0.13325(14) 0.48815(10)
C2 C 0.75277(17) -0.24734(16) 0.49891(12)
H2 H 0.8032 -0.2830 0.4626
C3 C 0.7155(2) -0.30674(19) 0.56574(14)
H3 H 0.7425 -0.3829 0.5747
C4 C 0.5973(2) -0.1433(2) 0.60611(12)
H4 H 0.5441 -0.1094 0.6414
C5 C 0.6394(2) -0.2550(2) 0.61889(12)
H5 H 0.6164 -0.2959 0.6636
C6 C 0.63416(17) -0.08049(17) 0.54039(11)
H6 H 0.6067 -0.0044 0.5318
C7 C 1.16363(13) 0.24826(13) 0.21621(8)
C8 C 1.21835(16) 0.35124(15) 0.19167(11)
H7 H 1.1778 0.4226 0.1948
C9 C 1.33484(18) 0.34564(18) 0.16231(12)
H8 H 1.3735 0.4141 0.1467
C10 C 1.39377(16) 0.2394(2) 0.15610(11)
H9 H 1.4717 0.2363 0.1362
C11 C 1.33682(16) 0.13742(19) 0.17954(12)
H10 H 1.3766 0.0659 0.1749
C12 C 1.22098(15) 0.14090(15) 0.20990(10)
H11 H 1.1826 0.0724 0.2257
C13 C 0.54180(12) 0.45834(12) 0.48061(8)
C14 C 0.65395(15) 0.39209(14) 0.36929(10)
H12 H 0.6766 0.4038 0.3174
C15 C 0.57899(15) 0.47352(14) 0.40344(10)
H13 H 0.5532 0.5387 0.3749
C16 C 0.58399(16) 0.35841(14) 0.51930(9)
H14 H 0.5610 0.3433 0.5707
C17 C 0.66027(15) 0.28162(14) 0.48092(9)
H15 H 0.6882 0.2159 0.5080
Sn1 Sn 0.827863(8) 0.157369(8) 0.339861(6)
C18 C 0.94910(19) 0.16211(19) 0.43750(14)
H16 H 0.9864 0.2381 0.4407
H17 H 1.0104 0.1033 0.4312
H18 H 0.9053 0.1471 0.4848
C19 C 0.70200(17) 0.15427(16) 0.24547(10)
H19 H 0.6523 0.0854 0.2493
H20 H 0.7446 0.1530 0.1967
O2 O 0.87210(11) -0.03606(10) 0.32433(7)
O3 O 0.98464(11) 0.15174(10) 0.25435(8)
O4 O 0.89929(13) 0.34307(10) 0.30643(11)
N3 N 0.69587(12) 0.29700(12) 0.40690(8)
N4 N 1.04461(11) 0.25095(11) 0.24970(8)
N5 N 1.00491(15) 0.34995(12) 0.27555(11)
C13B C 0.45820(12) 0.54166(12) 0.51939(8)
C14B C 0.34605(15) 0.60791(14) 0.63071(10)
H12B H 0.3234 0.5962 0.6826
C15B C 0.42101(15) 0.52648(14) 0.59656(10)
H13B H 0.4468 0.4613 0.6251
C16B C 0.41601(16) 0.64159(14) 0.48070(9)
H14B H 0.4390 0.6567 0.4293
C17B C 0.33973(15) 0.71838(14) 0.51908(9)
H15B H 0.3118 0.7841 0.4920
N3B N 0.30413(12) 0.70300(12) 0.59310(8)
H1B H 0.3481 0.7770 0.7525
O1B O 0.29693(11) 0.96160(10) 0.58980(7)
N1B N 0.24738(11) 1.06492(11) 0.57773(8)
N2B N 0.16171(13) 1.10639(11) 0.61993(8)
C1B C 0.28764(14) 1.13325(14) 0.51185(10)
C2B C 0.24723(17) 1.24734(16) 0.50109(12)
H2B H 0.1968 1.2830 0.5374
C3B C 0.2845(2) 1.30674(19) 0.43426(14)
H3B H 0.2575 1.3829 0.4253
C4B C 0.4027(2) 1.1433(2) 0.39389(12)
H4B H 0.4559 1.1094 0.3586
C5B C 0.3606(2) 1.2550(2) 0.38111(12)
H5B H 0.3836 1.2959 0.3364
C6B C 0.36584(17) 1.08049(17) 0.45961(11)
H6B H 0.3933 1.0044 0.4682
C7B C -0.16363(13) 0.75174(13) 0.78379(8)
C8B C -0.21835(16) 0.64876(15) 0.80833(11)
H7B H -0.1778 0.5774 0.8052
C9B C -0.33484(18) 0.65436(18) 0.83769(12)
H8B H -0.3735 0.5859 0.8533
C10B C -0.39377(16) 0.7606(2) 0.84390(11)
H9B H -0.4717 0.7637 0.8638
C11B C -0.33682(16) 0.86258(19) 0.82046(12)
H10B H -0.3766 0.9341 0.8251
C12B C -0.22098(15) 0.85910(15) 0.79010(10)
H11B H -0.1826 0.9276 0.7743
Sn1B Sn 0.172137(8) 0.842631(8) 0.660139(6)
C18B C 0.05090(19) 0.83789(19) 0.56250(14)
H16B H 0.0136 0.7619 0.5593
H17B H -0.0104 0.8967 0.5688
H18B H 0.0947 0.8529 0.5152
C19B C 0.29800(17) 0.84573(16) 0.75453(10)
H19B H 0.3477 0.9146 0.7507
H20B H 0.2554 0.8470 0.8033
O2B O 0.12790(11) 1.03606(10) 0.67567(7)
O3B O 0.01536(11) 0.84826(10) 0.74565(8)
O4B O 0.10071(13) 0.65693(10) 0.69357(11)
N4B N -0.04461(11) 0.74905(11) 0.75030(8)
N5B N -0.00491(15) 0.65005(12) 0.72445(11)

#END
