./ACIKAY_from_xyz.cif_generated_by_CrystalShift
_symmetry_cell_setting triclinic
_symmetry_space_group_name_H-M 'P 1'
loop_
_symmetry_equiv_pos_site_id
_symmetry_equiv_pos_as_xyz
1 x,y,z
_cell_length_a 10.406300
_cell_length_b 18.762300
_cell_length_c 16.156400
_cell_angle_alpha 90.000000
_cell_angle_beta 98.960000
_cell_angle_gamma 90.000000
_cell_volume 3115.981290
loop_
_atom_site_label
_atom_site_type_symbol
_atom_site_fract_x
_atom_site_fract_y
_atom_site_fract_z
P1 P 0.453770 0.163400 0.614610
C2 C 0.327330 0.146140 0.672020
C3 C 0.248750 0.208040 0.679670
C4 C 0.141990 0.216020 0.722950
H5 H 0.114700 0.177300 0.753900
C6 C 0.077600 0.280120 0.720180
H7 H 0.006700 0.285700 0.750200
C8 C 0.115060 0.337270 0.673640
H9 H 0.067200 0.380600 0.670800
C10 C 0.219770 0.331710 0.632030
H11 H 0.244900 0.371100 0.601300
C12 C 0.290270 0.267070 0.635000
C13 C 0.403660 0.251130 0.597760
P14 P 0.306910 0.063780 0.717250
C15 C 0.432800 0.003510 0.695480
C16 C 0.417500 -0.032320 0.619350
H17 H 0.343100 -0.023800 0.578400
C18 C 0.511600 -0.080720 0.603470
H19 H 0.502000 -0.105000 0.551300
C20 C 0.618800 -0.093700 0.663010
H21 H 0.681300 -0.128000 0.652200
C22 C 0.636500 -0.057680 0.737820
H23 H 0.711700 -0.066100 0.778100
C24 C 0.543400 -0.008700 0.754320
H25 H 0.555300 0.016500 0.805900
C26 C 0.154570 0.021770 0.675450
C27 C 0.130200 -0.048840 0.695430
H28 H 0.194100 -0.075100 0.731400
C29 C 0.013200 -0.080690 0.662990
H30 H -0.003400 -0.128500 0.677500
C31 C -0.079300 -0.043320 0.609740
H32 H -0.159100 -0.065500 0.587100
C33 C -0.055600 0.026550 0.589380
H34 H -0.119700 0.052400 0.553000
C35 C 0.060700 0.059010 0.621640
H36 H 0.076500 0.106900 0.607000
C37 C 0.319290 0.071370 0.829410
C38 C 0.412500 0.118150 0.870490
H39 H 0.462400 0.146800 0.838900
C40 C 0.432400 0.122860 0.956910
H41 H 0.496600 0.154300 0.984700
C42 C 0.358800 0.081920 1.002660
H43 H 0.372600 0.085200 1.062100
C44 C 0.265200 0.036130 0.962950
H45 H 0.214400 0.008500 0.995000
C46 C 0.245100 0.030410 0.876300
H47 H 0.181000 -0.001300 0.849000
P48 P 0.489560 0.315720 0.547680
S49 S 0.538490 0.402320 0.614010
C50 C 0.393410 0.335420 0.446140
C51 C 0.421000 0.396560 0.403270
H52 H 0.482100 0.430200 0.429900
C53 C 0.359700 0.408570 0.322000
H54 H 0.380500 0.449700 0.292500
C55 C 0.268200 0.360750 0.283930
H56 H 0.226500 0.369000 0.228200
C57 C 0.237200 0.300940 0.326710
H58 H 0.173000 0.268600 0.300800
C59 C 0.299900 0.288190 0.407590
H60 H 0.278800 0.246900 0.436800
C61 C 0.630780 0.268890 0.521820
C62 C 0.641400 0.247770 0.440830
H63 H 0.573100 0.258300 0.396300
C64 C 0.750600 0.211490 0.424450
H65 H 0.757400 0.197700 0.368700
C66 C 0.849200 0.195390 0.488700
H67 H 0.923800 0.170200 0.477400
C68 C 0.839700 0.215830 0.569920
H69 H 0.907200 0.204200 0.614500
C70 C 0.732500 0.252980 0.585890
H71 H 0.727600 0.268000 0.641500
P72 P 0.953770 0.336600 0.114610
C73 C 0.827330 0.353860 0.172020
C74 C 0.748750 0.291960 0.179670
C75 C 0.641990 0.283980 0.222950
H76 H 0.614700 0.322700 0.253900
C77 C 0.577600 0.219880 0.220180
H78 H 0.506700 0.214300 0.250200
C79 C 0.615060 0.162730 0.173640
H80 H 0.567200 0.119400 0.170800
C81 C 0.719770 0.168290 0.132030
H82 H 0.744900 0.128900 0.101300
C83 C 0.790270 0.232930 0.135000
C84 C 0.903660 0.248870 0.097760
P85 P 0.806910 0.436220 0.217250
C86 C 0.932800 0.496490 0.195480
C87 C 0.917500 0.532320 0.119350
H88 H 0.843100 0.523800 0.078400
C89 C 1.011600 0.580720 0.103470
H90 H 1.002000 0.605000 0.051300
C91 C 1.118800 0.593700 0.163010
H92 H 1.181300 0.628000 0.152200
C93 C 1.136500 0.557680 0.237820
H94 H 1.211700 0.566100 0.278100
C95 C 1.043400 0.508700 0.254320
H96 H 1.055300 0.483500 0.305900
C97 C 0.654570 0.478230 0.175450
C98 C 0.630200 0.548840 0.195430
H99 H 0.694100 0.575100 0.231400
C100 C 0.513200 0.580690 0.162990
H101 H 0.496600 0.628500 0.177500
C102 C 0.420700 0.543320 0.109740
H103 H 0.340900 0.565500 0.087100
C104 C 0.444400 0.473450 0.089380
H105 H 0.380300 0.447600 0.053000
C106 C 0.560700 0.440990 0.121640
H107 H 0.576500 0.393100 0.107000
C108 C 0.819290 0.428630 0.329410
C109 C 0.912500 0.381850 0.370490
H110 H 0.962400 0.353200 0.338900
C111 C 0.932400 0.377140 0.456910
H112 H 0.996600 0.345700 0.484700
C113 C 0.858800 0.418080 0.502660
H114 H 0.872600 0.414800 0.562100
C115 C 0.765200 0.463870 0.462950
H116 H 0.714400 0.491500 0.495000
C117 C 0.745100 0.469590 0.376300
H118 H 0.681000 0.501300 0.349000
P119 P 0.989560 0.184280 0.047680
S120 S 1.038490 0.097680 0.114010
C121 C 0.893410 0.164580 -0.053860
C122 C 0.921000 0.103440 -0.096730
H123 H 0.982100 0.069800 -0.070100
C124 C 0.859700 0.091430 -0.178000
H125 H 0.880500 0.050300 -0.207500
C126 C 0.768200 0.139250 -0.216070
H127 H 0.726500 0.131000 -0.271800
C128 C 0.737200 0.199060 -0.173290
H129 H 0.673000 0.231400 -0.199200
C130 C 0.799900 0.211810 -0.092410
H131 H 0.778800 0.253100 -0.063200
C132 C 1.130780 0.231110 0.021820
C133 C 1.141400 0.252230 -0.059170
H134 H 1.073100 0.241700 -0.103700
C135 C 1.250600 0.288510 -0.075550
H136 H 1.257400 0.302300 -0.131300
C137 C 1.349200 0.304610 -0.011300
H138 H 1.423800 0.329800 -0.022600
C139 C 1.339700 0.284170 0.069920
H140 H 1.407200 0.295800 0.114500
C141 C 1.232500 0.247020 0.085890
H142 H 1.227600 0.232000 0.141500
P143 P 0.546230 0.836600 0.385390
C144 C 0.672670 0.853860 0.327980
C145 C 0.751250 0.791960 0.320330
C146 C 0.858010 0.783980 0.277050
H147 H 0.885300 0.822700 0.246100
C148 C 0.922400 0.719880 0.279820
H149 H 0.993300 0.714300 0.249800
C150 C 0.884940 0.662730 0.326360
H151 H 0.932800 0.619400 0.329200
C152 C 0.780230 0.668290 0.367970
H153 H 0.755100 0.628900 0.398700
C154 C 0.709730 0.732930 0.365000
C155 C 0.596340 0.748870 0.402240
P156 P 0.693090 0.936220 0.282750
C157 C 0.567200 0.996490 0.304520
C158 C 0.582500 1.032320 0.380650
H159 H 0.656900 1.023800 0.421600
C160 C 0.488400 1.080720 0.396530
H161 H 0.498000 1.105000 0.448700
C162 C 0.381200 1.093700 0.336990
H163 H 0.318700 1.128000 0.347800
C164 C 0.363500 1.057680 0.262180
H165 H 0.288300 1.066100 0.221900
C166 C 0.456600 1.008700 0.245680
H167 H 0.444700 0.983500 0.194100
C168 C 0.845430 0.978230 0.324550
C169 C 0.869800 1.048840 0.304570
H170 H 0.805900 1.075100 0.268600
C171 C 0.986800 1.080690 0.337010
H172 H 1.003400 1.128500 0.322500
C173 C 1.079300 1.043320 0.390260
H174 H 1.159100 1.065500 0.412900
C175 C 1.055600 0.973450 0.410620
H176 H 1.119700 0.947600 0.447000
C177 C 0.939300 0.940990 0.378360
H178 H 0.923500 0.893100 0.393000
C179 C 0.680710 0.928630 0.170590
C180 C 0.587500 0.881850 0.129510
H181 H 0.537600 0.853200 0.161100
C182 C 0.567600 0.877140 0.043090
H183 H 0.503400 0.845700 0.015300
C184 C 0.641200 0.918080 -0.002660
H185 H 0.627400 0.914800 -0.062100
C186 C 0.734800 0.963870 0.037050
H187 H 0.785600 0.991500 0.005000
C188 C 0.754900 0.969590 0.123700
H189 H 0.819000 1.001300 0.151000
P190 P 0.510440 0.684280 0.452320
S191 S 0.461510 0.597680 0.385990
C192 C 0.606590 0.664580 0.553860
C193 C 0.579000 0.603440 0.596730
H194 H 0.517900 0.569800 0.570100
C195 C 0.640300 0.591430 0.678000
H196 H 0.619500 0.550300 0.707500
C197 C 0.731800 0.639250 0.716070
H198 H 0.773500 0.631000 0.771800
C199 C 0.762800 0.699060 0.673290
H200 H 0.827000 0.731400 0.699200
C201 C 0.700100 0.711810 0.592410
H202 H 0.721200 0.753100 0.563200
C203 C 0.369220 0.731110 0.478180
C204 C 0.358600 0.752230 0.559170
H205 H 0.426900 0.741700 0.603700
C206 C 0.249400 0.788510 0.575550
H207 H 0.242600 0.802300 0.631300
C208 C 0.150800 0.804610 0.511300
H209 H 0.076200 0.829800 0.522600
C210 C 0.160300 0.784170 0.430080
H211 H 0.092800 0.795800 0.385500
C212 C 0.267500 0.747020 0.414110
H213 H 0.272400 0.732000 0.358500
P214 P 0.046230 0.663400 0.885390
C215 C 0.172670 0.646140 0.827980
C216 C 0.251250 0.708040 0.820330
C217 C 0.358010 0.716020 0.777050
H218 H 0.385300 0.677300 0.746100
C219 C 0.422400 0.780120 0.779820
H220 H 0.493300 0.785700 0.749800
C221 C 0.384940 0.837270 0.826360
H222 H 0.432800 0.880600 0.829200
C223 C 0.280230 0.831710 0.867970
H224 H 0.255100 0.871100 0.898700
C225 C 0.209730 0.767070 0.865000
C226 C 0.096340 0.751130 0.902240
P227 P 0.193090 0.563780 0.782750
C228 C 0.067200 0.503510 0.804520
C229 C 0.082500 0.467680 0.880650
H230 H 0.156900 0.476200 0.921600
C231 C -0.011600 0.419280 0.896530
H232 H -0.002000 0.395000 0.948700
C233 C -0.118800 0.406300 0.836990
H234 H -0.181300 0.372000 0.847800
C235 C -0.136500 0.442320 0.762180
H236 H -0.211700 0.433900 0.721900
C237 C -0.043400 0.491300 0.745680
H238 H -0.055300 0.516500 0.694100
C239 C 0.345430 0.521770 0.824550
C240 C 0.369800 0.451160 0.804570
H241 H 0.305900 0.424900 0.768600
C242 C 0.486800 0.419310 0.837010
H243 H 0.503400 0.371500 0.822500
C244 C 0.579300 0.456680 0.890260
H245 H 0.659100 0.434500 0.912900
C246 C 0.555600 0.526550 0.910620
H247 H 0.619700 0.552400 0.947000
C248 C 0.439300 0.559010 0.878360
H249 H 0.423500 0.606900 0.893000
C250 C 0.180710 0.571370 0.670590
C251 C 0.087500 0.618150 0.629510
H252 H 0.037600 0.646800 0.661100
C253 C 0.067600 0.622860 0.543090
H254 H 0.003400 0.654300 0.515300
C255 C 0.141200 0.581920 0.497340
H256 H 0.127400 0.585200 0.437900
C257 C 0.234800 0.536130 0.537050
H258 H 0.285600 0.508500 0.505000
C259 C 0.254900 0.530410 0.623700
H260 H 0.319000 0.498700 0.651000
P261 P 0.010440 0.815720 0.952320
S262 S -0.038490 0.902320 0.885990
C263 C 0.106590 0.835420 1.053860
C264 C 0.079000 0.896560 1.096730
H265 H 0.017900 0.930200 1.070100
C266 C 0.140300 0.908570 1.178000
H267 H 0.119500 0.949700 1.207500
C268 C 0.231800 0.860750 1.216070
H269 H 0.273500 0.869000 1.271800
C270 C 0.262800 0.800940 1.173290
H271 H 0.327000 0.768600 1.199200
C272 C 0.200100 0.788190 1.092410
H273 H 0.221200 0.746900 1.063200
C274 C -0.130780 0.768890 0.978180
C275 C -0.141400 0.747770 1.059170
H276 H -0.073100 0.758300 1.103700
C277 C -0.250600 0.711490 1.075550
H278 H -0.257400 0.697700 1.131300
C279 C -0.349200 0.695390 1.011300
H280 H -0.423800 0.670200 1.022600
C281 C -0.339700 0.715830 0.930080
H282 H -0.407200 0.704200 0.885500
C283 C -0.232500 0.752980 0.914110
H284 H -0.227600 0.768000 0.858500

#END
