./ACIKIG_from_xyz.cif_generated_by_CrystalShift
_symmetry_cell_setting triclinic
_symmetry_space_group_name_H-M 'P 1'
loop_
_symmetry_equiv_pos_site_id
_symmetry_equiv_pos_as_xyz
1 x,y,z
_cell_length_a 11.047000
_cell_length_b 11.395000
_cell_length_c 17.025000
_cell_angle_alpha 90.000000
_cell_angle_beta 90.700000
_cell_angle_gamma 90.000000
_cell_volume 2142.956625
loop_
_atom_site_label
_atom_site_type_symbol
_atom_site_fract_x
_atom_site_fract_y
_atom_site_fract_z
O1 O 0.500000 0.000000 0.000000
H2 H 0.457500 -0.056300 0.011400
C3 C 0.579200 0.030200 0.067700
H4 H 0.661100 0.038700 0.050300
H5 H 0.575500 -0.031100 0.106300
H6 H 0.552600 0.102700 0.090500
H7 H 0.542500 0.056300 -0.011400
C8 C 0.420800 -0.030200 -0.067700
H9 H 0.338900 -0.038700 -0.050300
H10 H 0.424500 0.031100 -0.106300
H11 H 0.447400 -0.102700 -0.090500
O12 O 0.500000 0.000000 1.000000
H13 H 0.457500 -0.056300 1.011400
C14 C 0.579200 0.030200 1.067700
H15 H 0.661100 0.038700 1.050300
H16 H 0.575500 -0.031100 1.106300
H17 H 0.552600 0.102700 1.090500
H18 H 0.542500 0.056300 0.988600
C19 C 0.420800 -0.030200 0.932300
H20 H 0.338900 -0.038700 0.949700
H21 H 0.424500 0.031100 0.893700
H22 H 0.447400 -0.102700 0.909500
O23 O 0.500000 1.000000 0.000000
H24 H 0.457500 0.943700 0.011400
C25 C 0.579200 1.030200 0.067700
H26 H 0.661100 1.038700 0.050300
H27 H 0.575500 0.968900 0.106300
H28 H 0.552600 1.102700 0.090500
H29 H 0.542500 1.056300 -0.011400
C30 C 0.420800 0.969800 -0.067700
H31 H 0.338900 0.961300 -0.050300
H32 H 0.424500 1.031100 -0.106300
H33 H 0.447400 0.897300 -0.090500
O34 O 0.500000 1.000000 1.000000
H35 H 0.457500 0.943700 1.011400
C36 C 0.579200 1.030200 1.067700
H37 H 0.661100 1.038700 1.050300
H38 H 0.575500 0.968900 1.106300
H39 H 0.552600 1.102700 1.090500
H40 H 0.542500 1.056300 0.988600
C41 C 0.420800 0.969800 0.932300
H42 H 0.338900 0.961300 0.949700
H43 H 0.424500 1.031100 0.893700
H44 H 0.447400 0.897300 0.909500
O45 O 0.000000 0.500000 0.500000
H46 H 0.042500 0.443700 0.488600
C47 C -0.079200 0.530200 0.432300
H48 H -0.161100 0.538700 0.449700
H49 H -0.075500 0.468900 0.393700
H50 H -0.052600 0.602700 0.409500
H51 H -0.042500 0.556300 0.511400
C52 C 0.079200 0.469800 0.567700
H53 H 0.161100 0.461300 0.550300
H54 H 0.075500 0.531100 0.606300
H55 H 0.052600 0.397300 0.590500
O56 O 1.000000 0.500000 0.500000
H57 H 1.042500 0.443700 0.488600
C58 C 0.920800 0.530200 0.432300
H59 H 0.838900 0.538700 0.449700
H60 H 0.924500 0.468900 0.393700
H61 H 0.947400 0.602700 0.409500
H62 H 0.957500 0.556300 0.511400
C63 C 1.079200 0.469800 0.567700
H64 H 1.161100 0.461300 0.550300
H65 H 1.075500 0.531100 0.606300
H66 H 1.052600 0.397300 0.590500
H67 H -0.151900 -0.277000 0.252500
O68 O -0.203070 -0.461600 0.089800
N69 N -0.252620 -0.564920 0.077730
N70 N -0.338290 -0.606390 0.119930
C71 C -0.212360 -0.633250 0.011850
C72 C -0.252770 -0.747340 0.001090
H73 H -0.303200 -0.783000 0.037400
C74 C -0.215500 -0.806740 -0.065740
H75 H -0.242500 -0.882900 -0.074700
C76 C -0.097300 -0.643300 -0.106110
H77 H -0.044100 -0.609400 -0.141400
C78 C -0.139400 -0.755000 -0.118890
H79 H -0.116400 -0.795900 -0.163600
C80 C -0.134160 -0.580490 -0.040390
H81 H -0.106700 -0.504400 -0.031800
C82 C -0.663630 -0.251740 0.283790
C83 C -0.718350 -0.148760 0.308330
H84 H -0.677800 -0.077400 0.305200
C85 C -0.834840 -0.154360 0.337690
H86 H -0.873500 -0.085900 0.353300
C87 C -0.893770 -0.260600 0.343900
H88 H -0.971700 -0.263700 0.363800
C89 C -0.836820 -0.362580 0.320460
H90 H -0.876600 -0.434100 0.325100
C91 C -0.720980 -0.359100 0.290100
H92 H -0.682600 -0.427600 0.274300
C93 C -0.041800 -0.041660 0.019390
C94 C -0.153950 -0.107910 0.130710
H95 H -0.176600 -0.096200 0.182600
C96 C -0.078990 -0.026480 0.096560
H97 H -0.053200 0.038700 0.125100
C98 C -0.083990 -0.141590 -0.019300
H99 H -0.061000 -0.156700 -0.070700
C100 C -0.160270 -0.218380 0.019080
H101 H -0.188200 -0.284100 -0.008000
Sn102 Sn -0.327863 -0.342631 0.160139
C103 C -0.449100 -0.337890 0.062500
H104 H -0.486400 -0.261900 0.059300
H105 H -0.510400 -0.396700 0.068800
H106 H -0.405300 -0.352900 0.015200
C107 C -0.202000 -0.345730 0.254530
H108 H -0.152300 -0.414600 0.250700
H109 H -0.244600 -0.347000 0.303300
O110 O -0.372100 -0.536060 0.175670
O111 O -0.484640 -0.348260 0.245650
O112 O -0.399290 -0.156930 0.193570
N113 N -0.195870 -0.203000 0.093100
N114 N -0.544610 -0.249050 0.250300
N115 N -0.504910 -0.150050 0.224450
C116 C 0.041800 0.041660 -0.019390
C117 C 0.153950 0.107910 -0.130710
H118 H 0.176600 0.096200 -0.182600
C119 C 0.078990 0.026480 -0.096560
H120 H 0.053200 -0.038700 -0.125100
C121 C 0.083990 0.141590 0.019300
H122 H 0.061000 0.156700 0.070700
C123 C 0.160270 0.218380 -0.019080
H124 H 0.188200 0.284100 0.008000
N125 N 0.195870 0.203000 -0.093100
H126 H 0.151900 0.277000 -0.252500
O127 O 0.203070 0.461600 -0.089800
N128 N 0.252620 0.564920 -0.077730
N129 N 0.338290 0.606390 -0.119930
C130 C 0.212360 0.633250 -0.011850
C131 C 0.252770 0.747340 -0.001090
H132 H 0.303200 0.783000 -0.037400
C133 C 0.215500 0.806740 0.065740
H134 H 0.242500 0.882900 0.074700
C135 C 0.097300 0.643300 0.106110
H136 H 0.044100 0.609400 0.141400
C137 C 0.139400 0.755000 0.118890
H138 H 0.116400 0.795900 0.163600
C139 C 0.134160 0.580490 0.040390
H140 H 0.106700 0.504400 0.031800
C141 C 0.663630 0.251740 -0.283790
C142 C 0.718350 0.148760 -0.308330
H143 H 0.677800 0.077400 -0.305200
C144 C 0.834840 0.154360 -0.337690
H145 H 0.873500 0.085900 -0.353300
C146 C 0.893770 0.260600 -0.343900
H147 H 0.971700 0.263700 -0.363800
C148 C 0.836820 0.362580 -0.320460
H149 H 0.876600 0.434100 -0.325100
C150 C 0.720980 0.359100 -0.290100
H151 H 0.682600 0.427600 -0.274300
Sn152 Sn 0.327863 0.342631 -0.160139
C153 C 0.449100 0.337890 -0.062500
H154 H 0.486400 0.261900 -0.059300
H155 H 0.510400 0.396700 -0.068800
H156 H 0.405300 0.352900 -0.015200
C157 C 0.202000 0.345730 -0.254530
H158 H 0.152300 0.414600 -0.250700
H159 H 0.244600 0.347000 -0.303300
O160 O 0.372100 0.536060 -0.175670
O161 O 0.484640 0.348260 -0.245650
O162 O 0.399290 0.156930 -0.193570
N163 N 0.544610 0.249050 -0.250300
N164 N 0.504910 0.150050 -0.224450
H165 H -0.151900 -0.277000 1.252500
O166 O -0.203070 -0.461600 1.089800
N167 N -0.252620 -0.564920 1.077730
N168 N -0.338290 -0.606390 1.119930
C169 C -0.212360 -0.633250 1.011850
C170 C -0.252770 -0.747340 1.001090
H171 H -0.303200 -0.783000 1.037400
C172 C -0.215500 -0.806740 0.934260
H173 H -0.242500 -0.882900 0.925300
C174 C -0.097300 -0.643300 0.893890
H175 H -0.044100 -0.609400 0.858600
C176 C -0.139400 -0.755000 0.881110
H177 H -0.116400 -0.795900 0.836400
C178 C -0.134160 -0.580490 0.959610
H179 H -0.106700 -0.504400 0.968200
C180 C -0.663630 -0.251740 1.283790
C181 C -0.718350 -0.148760 1.308330
H182 H -0.677800 -0.077400 1.305200
C183 C -0.834840 -0.154360 1.337690
H184 H -0.873500 -0.085900 1.353300
C185 C -0.893770 -0.260600 1.343900
H186 H -0.971700 -0.263700 1.363800
C187 C -0.836820 -0.362580 1.320460
H188 H -0.876600 -0.434100 1.325100
C189 C -0.720980 -0.359100 1.290100
H190 H -0.682600 -0.427600 1.274300
C191 C -0.041800 -0.041660 1.019390
C192 C -0.153950 -0.107910 1.130710
H193 H -0.176600 -0.096200 1.182600
C194 C -0.078990 -0.026480 1.096560
H195 H -0.053200 0.038700 1.125100
C196 C -0.083990 -0.141590 0.980700
H197 H -0.061000 -0.156700 0.929300
C198 C -0.160270 -0.218380 1.019080
H199 H -0.188200 -0.284100 0.992000
Sn200 Sn -0.327863 -0.342631 1.160139
C201 C -0.449100 -0.337890 1.062500
H202 H -0.486400 -0.261900 1.059300
H203 H -0.510400 -0.396700 1.068800
H204 H -0.405300 -0.352900 1.015200
C205 C -0.202000 -0.345730 1.254530
H206 H -0.152300 -0.414600 1.250700
H207 H -0.244600 -0.347000 1.303300
O208 O -0.372100 -0.536060 1.175670
O209 O -0.484640 -0.348260 1.245650
O210 O -0.399290 -0.156930 1.193570
N211 N -0.195870 -0.203000 1.093100
N212 N -0.544610 -0.249050 1.250300
N213 N -0.504910 -0.150050 1.224450
C214 C 0.041800 0.041660 0.980610
C215 C 0.153950 0.107910 0.869290
H216 H 0.176600 0.096200 0.817400
C217 C 0.078990 0.026480 0.903440
H218 H 0.053200 -0.038700 0.874900
C219 C 0.083990 0.141590 1.019300
H220 H 0.061000 0.156700 1.070700
C221 C 0.160270 0.218380 0.980920
H222 H 0.188200 0.284100 1.008000
N223 N 0.195870 0.203000 0.906900
H224 H 0.151900 0.277000 0.747500
O225 O 0.203070 0.461600 0.910200
N226 N 0.252620 0.564920 0.922270
N227 N 0.338290 0.606390 0.880070
C228 C 0.212360 0.633250 0.988150
C229 C 0.252770 0.747340 0.998910
H230 H 0.303200 0.783000 0.962600
C231 C 0.215500 0.806740 1.065740
H232 H 0.242500 0.882900 1.074700
C233 C 0.097300 0.643300 1.106110
H234 H 0.044100 0.609400 1.141400
C235 C 0.139400 0.755000 1.118890
H236 H 0.116400 0.795900 1.163600
C237 C 0.134160 0.580490 1.040390
H238 H 0.106700 0.504400 1.031800
C239 C 0.663630 0.251740 0.716210
C240 C 0.718350 0.148760 0.691670
H241 H 0.677800 0.077400 0.694800
C242 C 0.834840 0.154360 0.662310
H243 H 0.873500 0.085900 0.646700
C244 C 0.893770 0.260600 0.656100
H245 H 0.971700 0.263700 0.636200
C246 C 0.836820 0.362580 0.679540
H247 H 0.876600 0.434100 0.674900
C248 C 0.720980 0.359100 0.709900
H249 H 0.682600 0.427600 0.725700
Sn250 Sn 0.327863 0.342631 0.839861
C251 C 0.449100 0.337890 0.937500
H252 H 0.486400 0.261900 0.940700
H253 H 0.510400 0.396700 0.931200
H254 H 0.405300 0.352900 0.984800
C255 C 0.202000 0.345730 0.745470
H256 H 0.152300 0.414600 0.749300
H257 H 0.244600 0.347000 0.696700
O258 O 0.372100 0.536060 0.824330
O259 O 0.484640 0.348260 0.754350
O260 O 0.399290 0.156930 0.806430
N261 N 0.544610 0.249050 0.749700
N262 N 0.504910 0.150050 0.775550
H263 H -0.151900 0.723000 0.252500
O264 O -0.203070 0.538400 0.089800
N265 N -0.252620 0.435080 0.077730
N266 N -0.338290 0.393610 0.119930
C267 C -0.212360 0.366750 0.011850
C268 C -0.252770 0.252660 0.001090
H269 H -0.303200 0.217000 0.037400
C270 C -0.215500 0.193260 -0.065740
H271 H -0.242500 0.117100 -0.074700
C272 C -0.097300 0.356700 -0.106110
H273 H -0.044100 0.390600 -0.141400
C274 C -0.139400 0.245000 -0.118890
H275 H -0.116400 0.204100 -0.163600
C276 C -0.134160 0.419510 -0.040390
H277 H -0.106700 0.495600 -0.031800
C278 C -0.663630 0.748260 0.283790
C279 C -0.718350 0.851240 0.308330
H280 H -0.677800 0.922600 0.305200
C281 C -0.834840 0.845640 0.337690
H282 H -0.873500 0.914100 0.353300
C283 C -0.893770 0.739400 0.343900
H284 H -0.971700 0.736300 0.363800
C285 C -0.836820 0.637420 0.320460
H286 H -0.876600 0.565900 0.325100
C287 C -0.720980 0.640900 0.290100
H288 H -0.682600 0.572400 0.274300
C289 C -0.041800 0.958340 0.019390
C290 C -0.153950 0.892090 0.130710
H291 H -0.176600 0.903800 0.182600
C292 C -0.078990 0.973520 0.096560
H293 H -0.053200 1.038700 0.125100
C294 C -0.083990 0.858410 -0.019300
H295 H -0.061000 0.843300 -0.070700
C296 C -0.160270 0.781620 0.019080
H297 H -0.188200 0.715900 -0.008000
Sn298 Sn -0.327863 0.657369 0.160139
C299 C -0.449100 0.662110 0.062500
H300 H -0.486400 0.738100 0.059300
H301 H -0.510400 0.603300 0.068800
H302 H -0.405300 0.647100 0.015200
C303 C -0.202000 0.654270 0.254530
H304 H -0.152300 0.585400 0.250700
H305 H -0.244600 0.653000 0.303300
O306 O -0.372100 0.463940 0.175670
O307 O -0.484640 0.651740 0.245650
O308 O -0.399290 0.843070 0.193570
N309 N -0.195870 0.797000 0.093100
N310 N -0.544610 0.750950 0.250300
N311 N -0.504910 0.849950 0.224450
C312 C 0.041800 1.041660 -0.019390
C313 C 0.153950 1.107910 -0.130710
H314 H 0.176600 1.096200 -0.182600
C315 C 0.078990 1.026480 -0.096560
H316 H 0.053200 0.961300 -0.125100
C317 C 0.083990 1.141590 0.019300
H318 H 0.061000 1.156700 0.070700
C319 C 0.160270 1.218380 -0.019080
H320 H 0.188200 1.284100 0.008000
N321 N 0.195870 1.203000 -0.093100
H322 H 0.151900 1.277000 -0.252500
O323 O 0.203070 1.461600 -0.089800
N324 N 0.252620 1.564920 -0.077730
N325 N 0.338290 1.606390 -0.119930
C326 C 0.212360 1.633250 -0.011850
C327 C 0.252770 1.747340 -0.001090
H328 H 0.303200 1.783000 -0.037400
C329 C 0.215500 1.806740 0.065740
H330 H 0.242500 1.882900 0.074700
C331 C 0.097300 1.643300 0.106110
H332 H 0.044100 1.609400 0.141400
C333 C 0.139400 1.755000 0.118890
H334 H 0.116400 1.795900 0.163600
C335 C 0.134160 1.580490 0.040390
H336 H 0.106700 1.504400 0.031800
C337 C 0.663630 1.251740 -0.283790
C338 C 0.718350 1.148760 -0.308330
H339 H 0.677800 1.077400 -0.305200
C340 C 0.834840 1.154360 -0.337690
H341 H 0.873500 1.085900 -0.353300
C342 C 0.893770 1.260600 -0.343900
H343 H 0.971700 1.263700 -0.363800
C344 C 0.836820 1.362580 -0.320460
H345 H 0.876600 1.434100 -0.325100
C346 C 0.720980 1.359100 -0.290100
H347 H 0.682600 1.427600 -0.274300
Sn348 Sn 0.327863 1.342631 -0.160139
C349 C 0.449100 1.337890 -0.062500
H350 H 0.486400 1.261900 -0.059300
H351 H 0.510400 1.396700 -0.068800
H352 H 0.405300 1.352900 -0.015200
C353 C 0.202000 1.345730 -0.254530
H354 H 0.152300 1.414600 -0.250700
H355 H 0.244600 1.347000 -0.303300
O356 O 0.372100 1.536060 -0.175670
O357 O 0.484640 1.348260 -0.245650
O358 O 0.399290 1.156930 -0.193570
N359 N 0.544610 1.249050 -0.250300
N360 N 0.504910 1.150050 -0.224450
H361 H -0.151900 0.723000 1.252500
O362 O -0.203070 0.538400 1.089800
N363 N -0.252620 0.435080 1.077730
N364 N -0.338290 0.393610 1.119930
C365 C -0.212360 0.366750 1.011850
C366 C -0.252770 0.252660 1.001090
H367 H -0.303200 0.217000 1.037400
C368 C -0.215500 0.193260 0.934260
H369 H -0.242500 0.117100 0.925300
C370 C -0.097300 0.356700 0.893890
H371 H -0.044100 0.390600 0.858600
C372 C -0.139400 0.245000 0.881110
H373 H -0.116400 0.204100 0.836400
C374 C -0.134160 0.419510 0.959610
H375 H -0.106700 0.495600 0.968200
C376 C -0.663630 0.748260 1.283790
C377 C -0.718350 0.851240 1.308330
H378 H -0.677800 0.922600 1.305200
C379 C -0.834840 0.845640 1.337690
H380 H -0.873500 0.914100 1.353300
C381 C -0.893770 0.739400 1.343900
H382 H -0.971700 0.736300 1.363800
C383 C -0.836820 0.637420 1.320460
H384 H -0.876600 0.565900 1.325100
C385 C -0.720980 0.640900 1.290100
H386 H -0.682600 0.572400 1.274300
C387 C -0.041800 0.958340 1.019390
C388 C -0.153950 0.892090 1.130710
H389 H -0.176600 0.903800 1.182600
C390 C -0.078990 0.973520 1.096560
H391 H -0.053200 1.038700 1.125100
C392 C -0.083990 0.858410 0.980700
H393 H -0.061000 0.843300 0.929300
C394 C -0.160270 0.781620 1.019080
H395 H -0.188200 0.715900 0.992000
Sn396 Sn -0.327863 0.657369 1.160139
C397 C -0.449100 0.662110 1.062500
H398 H -0.486400 0.738100 1.059300
H399 H -0.510400 0.603300 1.068800
H400 H -0.405300 0.647100 1.015200
C401 C -0.202000 0.654270 1.254530
H402 H -0.152300 0.585400 1.250700
H403 H -0.244600 0.653000 1.303300
O404 O -0.372100 0.463940 1.175670
O405 O -0.484640 0.651740 1.245650
O406 O -0.399290 0.843070 1.193570
N407 N -0.195870 0.797000 1.093100
N408 N -0.544610 0.750950 1.250300
N409 N -0.504910 0.849950 1.224450
C410 C 0.041800 1.041660 0.980610
C411 C 0.153950 1.107910 0.869290
H412 H 0.176600 1.096200 0.817400
C413 C 0.078990 1.026480 0.903440
H414 H 0.053200 0.961300 0.874900
C415 C 0.083990 1.141590 1.019300
H416 H 0.061000 1.156700 1.070700
C417 C 0.160270 1.218380 0.980920
H418 H 0.188200 1.284100 1.008000
N419 N 0.195870 1.203000 0.906900
H420 H 0.151900 1.277000 0.747500
O421 O 0.203070 1.461600 0.910200
N422 N 0.252620 1.564920 0.922270
N423 N 0.338290 1.606390 0.880070
C424 C 0.212360 1.633250 0.988150
C425 C 0.252770 1.747340 0.998910
H426 H 0.303200 1.783000 0.962600
C427 C 0.215500 1.806740 1.065740
H428 H 0.242500 1.882900 1.074700
C429 C 0.097300 1.643300 1.106110
H430 H 0.044100 1.609400 1.141400
C431 C 0.139400 1.755000 1.118890
H432 H 0.116400 1.795900 1.163600
C433 C 0.134160 1.580490 1.040390
H434 H 0.106700 1.504400 1.031800
C435 C 0.663630 1.251740 0.716210
C436 C 0.718350 1.148760 0.691670
H437 H 0.677800 1.077400 0.694800
C438 C 0.834840 1.154360 0.662310
H439 H 0.873500 1.085900 0.646700
C440 C 0.893770 1.260600 0.656100
H441 H 0.971700 1.263700 0.636200
C442 C 0.836820 1.362580 0.679540
H443 H 0.876600 1.434100 0.674900
C444 C 0.720980 1.359100 0.709900
H445 H 0.682600 1.427600 0.725700
Sn446 Sn 0.327863 1.342631 0.839861
C447 C 0.449100 1.337890 0.937500
H448 H 0.486400 1.261900 0.940700
H449 H 0.510400 1.396700 0.931200
H450 H 0.405300 1.352900 0.984800
C451 C 0.202000 1.345730 0.745470
H452 H 0.152300 1.414600 0.749300
H453 H 0.244600 1.347000 0.696700
O454 O 0.372100 1.536060 0.824330
O455 O 0.484640 1.348260 0.754350
O456 O 0.399290 1.156930 0.806430
N457 N 0.544610 1.249050 0.749700
N458 N 0.504910 1.150050 0.775550
H459 H 0.848100 -0.277000 0.252500
O460 O 0.796930 -0.461600 0.089800
N461 N 0.747380 -0.564920 0.077730
N462 N 0.661710 -0.606390 0.119930
C463 C 0.787640 -0.633250 0.011850
C464 C 0.747230 -0.747340 0.001090
H465 H 0.696800 -0.783000 0.037400
C466 C 0.784500 -0.806740 -0.065740
H467 H 0.757500 -0.882900 -0.074700
C468 C 0.902700 -0.643300 -0.106110
H469 H 0.955900 -0.609400 -0.141400
C470 C 0.860600 -0.755000 -0.118890
H471 H 0.883600 -0.795900 -0.163600
C472 C 0.865840 -0.580490 -0.040390
H473 H 0.893300 -0.504400 -0.031800
C474 C 0.336370 -0.251740 0.283790
C475 C 0.281650 -0.148760 0.308330
H476 H 0.322200 -0.077400 0.305200
C477 C 0.165160 -0.154360 0.337690
H478 H 0.126500 -0.085900 0.353300
C479 C 0.106230 -0.260600 0.343900
H480 H 0.028300 -0.263700 0.363800
C481 C 0.163180 -0.362580 0.320460
H482 H 0.123400 -0.434100 0.325100
C483 C 0.279020 -0.359100 0.290100
H484 H 0.317400 -0.427600 0.274300
C485 C 0.958200 -0.041660 0.019390
C486 C 0.846050 -0.107910 0.130710
H487 H 0.823400 -0.096200 0.182600
C488 C 0.921010 -0.026480 0.096560
H489 H 0.946800 0.038700 0.125100
C490 C 0.916010 -0.141590 -0.019300
H491 H 0.939000 -0.156700 -0.070700
C492 C 0.839730 -0.218380 0.019080
H493 H 0.811800 -0.284100 -0.008000
Sn494 Sn 0.672137 -0.342631 0.160139
C495 C 0.550900 -0.337890 0.062500
H496 H 0.513600 -0.261900 0.059300
H497 H 0.489600 -0.396700 0.068800
H498 H 0.594700 -0.352900 0.015200
C499 C 0.798000 -0.345730 0.254530
H500 H 0.847700 -0.414600 0.250700
H501 H 0.755400 -0.347000 0.303300
O502 O 0.627900 -0.536060 0.175670
O503 O 0.515360 -0.348260 0.245650
O504 O 0.600710 -0.156930 0.193570
N505 N 0.804130 -0.203000 0.093100
N506 N 0.455390 -0.249050 0.250300
N507 N 0.495090 -0.150050 0.224450
C508 C 1.041800 0.041660 -0.019390
C509 C 1.153950 0.107910 -0.130710
H510 H 1.176600 0.096200 -0.182600
C511 C 1.078990 0.026480 -0.096560
H512 H 1.053200 -0.038700 -0.125100
C513 C 1.083990 0.141590 0.019300
H514 H 1.061000 0.156700 0.070700
C515 C 1.160270 0.218380 -0.019080
H516 H 1.188200 0.284100 0.008000
N517 N 1.195870 0.203000 -0.093100
H518 H 1.151900 0.277000 -0.252500
O519 O 1.203070 0.461600 -0.089800
N520 N 1.252620 0.564920 -0.077730
N521 N 1.338290 0.606390 -0.119930
C522 C 1.212360 0.633250 -0.011850
C523 C 1.252770 0.747340 -0.001090
H524 H 1.303200 0.783000 -0.037400
C525 C 1.215500 0.806740 0.065740
H526 H 1.242500 0.882900 0.074700
C527 C 1.097300 0.643300 0.106110
H528 H 1.044100 0.609400 0.141400
C529 C 1.139400 0.755000 0.118890
H530 H 1.116400 0.795900 0.163600
C531 C 1.134160 0.580490 0.040390
H532 H 1.106700 0.504400 0.031800
C533 C 1.663630 0.251740 -0.283790
C534 C 1.718350 0.148760 -0.308330
H535 H 1.677800 0.077400 -0.305200
C536 C 1.834840 0.154360 -0.337690
H537 H 1.873500 0.085900 -0.353300
C538 C 1.893770 0.260600 -0.343900
H539 H 1.971700 0.263700 -0.363800
C540 C 1.836820 0.362580 -0.320460
H541 H 1.876600 0.434100 -0.325100
C542 C 1.720980 0.359100 -0.290100
H543 H 1.682600 0.427600 -0.274300
Sn544 Sn 1.327863 0.342631 -0.160139
C545 C 1.449100 0.337890 -0.062500
H546 H 1.486400 0.261900 -0.059300
H547 H 1.510400 0.396700 -0.068800
H548 H 1.405300 0.352900 -0.015200
C549 C 1.202000 0.345730 -0.254530
H550 H 1.152300 0.414600 -0.250700
H551 H 1.244600 0.347000 -0.303300
O552 O 1.372100 0.536060 -0.175670
O553 O 1.484640 0.348260 -0.245650
O554 O 1.399290 0.156930 -0.193570
N555 N 1.544610 0.249050 -0.250300
N556 N 1.504910 0.150050 -0.224450
H557 H 0.848100 -0.277000 1.252500
O558 O 0.796930 -0.461600 1.089800
N559 N 0.747380 -0.564920 1.077730
N560 N 0.661710 -0.606390 1.119930
C561 C 0.787640 -0.633250 1.011850
C562 C 0.747230 -0.747340 1.001090
H563 H 0.696800 -0.783000 1.037400
C564 C 0.784500 -0.806740 0.934260
H565 H 0.757500 -0.882900 0.925300
C566 C 0.902700 -0.643300 0.893890
H567 H 0.955900 -0.609400 0.858600
C568 C 0.860600 -0.755000 0.881110
H569 H 0.883600 -0.795900 0.836400
C570 C 0.865840 -0.580490 0.959610
H571 H 0.893300 -0.504400 0.968200
C572 C 0.336370 -0.251740 1.283790
C573 C 0.281650 -0.148760 1.308330
H574 H 0.322200 -0.077400 1.305200
C575 C 0.165160 -0.154360 1.337690
H576 H 0.126500 -0.085900 1.353300
C577 C 0.106230 -0.260600 1.343900
H578 H 0.028300 -0.263700 1.363800
C579 C 0.163180 -0.362580 1.320460
H580 H 0.123400 -0.434100 1.325100
C581 C 0.279020 -0.359100 1.290100
H582 H 0.317400 -0.427600 1.274300
C583 C 0.958200 -0.041660 1.019390
C584 C 0.846050 -0.107910 1.130710
H585 H 0.823400 -0.096200 1.182600
C586 C 0.921010 -0.026480 1.096560
H587 H 0.946800 0.038700 1.125100
C588 C 0.916010 -0.141590 0.980700
H589 H 0.939000 -0.156700 0.929300
C590 C 0.839730 -0.218380 1.019080
H591 H 0.811800 -0.284100 0.992000
Sn592 Sn 0.672137 -0.342631 1.160139
C593 C 0.550900 -0.337890 1.062500
H594 H 0.513600 -0.261900 1.059300
H595 H 0.489600 -0.396700 1.068800
H596 H 0.594700 -0.352900 1.015200
C597 C 0.798000 -0.345730 1.254530
H598 H 0.847700 -0.414600 1.250700
H599 H 0.755400 -0.347000 1.303300
O600 O 0.627900 -0.536060 1.175670
O601 O 0.515360 -0.348260 1.245650
O602 O 0.600710 -0.156930 1.193570
N603 N 0.804130 -0.203000 1.093100
N604 N 0.455390 -0.249050 1.250300
N605 N 0.495090 -0.150050 1.224450
C606 C 1.041800 0.041660 0.980610
C607 C 1.153950 0.107910 0.869290
H608 H 1.176600 0.096200 0.817400
C609 C 1.078990 0.026480 0.903440
H610 H 1.053200 -0.038700 0.874900
C611 C 1.083990 0.141590 1.019300
H612 H 1.061000 0.156700 1.070700
C613 C 1.160270 0.218380 0.980920
H614 H 1.188200 0.284100 1.008000
N615 N 1.195870 0.203000 0.906900
H616 H 1.151900 0.277000 0.747500
O617 O 1.203070 0.461600 0.910200
N618 N 1.252620 0.564920 0.922270
N619 N 1.338290 0.606390 0.880070
C620 C 1.212360 0.633250 0.988150
C621 C 1.252770 0.747340 0.998910
H622 H 1.303200 0.783000 0.962600
C623 C 1.215500 0.806740 1.065740
H624 H 1.242500 0.882900 1.074700
C625 C 1.097300 0.643300 1.106110
H626 H 1.044100 0.609400 1.141400
C627 C 1.139400 0.755000 1.118890
H628 H 1.116400 0.795900 1.163600
C629 C 1.134160 0.580490 1.040390
H630 H 1.106700 0.504400 1.031800
C631 C 1.663630 0.251740 0.716210
C632 C 1.718350 0.148760 0.691670
H633 H 1.677800 0.077400 0.694800
C634 C 1.834840 0.154360 0.662310
H635 H 1.873500 0.085900 0.646700
C636 C 1.893770 0.260600 0.656100
H637 H 1.971700 0.263700 0.636200
C638 C 1.836820 0.362580 0.679540
H639 H 1.876600 0.434100 0.674900
C640 C 1.720980 0.359100 0.709900
H641 H 1.682600 0.427600 0.725700
Sn642 Sn 1.327863 0.342631 0.839861
C643 C 1.449100 0.337890 0.937500
H644 H 1.486400 0.261900 0.940700
H645 H 1.510400 0.396700 0.931200
H646 H 1.405300 0.352900 0.984800
C647 C 1.202000 0.345730 0.745470
H648 H 1.152300 0.414600 0.749300
H649 H 1.244600 0.347000 0.696700
O650 O 1.372100 0.536060 0.824330
O651 O 1.484640 0.348260 0.754350
O652 O 1.399290 0.156930 0.806430
N653 N 1.544610 0.249050 0.749700
N654 N 1.504910 0.150050 0.775550
H655 H 0.848100 0.723000 0.252500
O656 O 0.796930 0.538400 0.089800
N657 N 0.747380 0.435080 0.077730
N658 N 0.661710 0.393610 0.119930
C659 C 0.787640 0.366750 0.011850
C660 C 0.747230 0.252660 0.001090
H661 H 0.696800 0.217000 0.037400
C662 C 0.784500 0.193260 -0.065740
H663 H 0.757500 0.117100 -0.074700
C664 C 0.902700 0.356700 -0.106110
H665 H 0.955900 0.390600 -0.141400
C666 C 0.860600 0.245000 -0.118890
H667 H 0.883600 0.204100 -0.163600
C668 C 0.865840 0.419510 -0.040390
H669 H 0.893300 0.495600 -0.031800
C670 C 0.336370 0.748260 0.283790
C671 C 0.281650 0.851240 0.308330
H672 H 0.322200 0.922600 0.305200
C673 C 0.165160 0.845640 0.337690
H674 H 0.126500 0.914100 0.353300
C675 C 0.106230 0.739400 0.343900
H676 H 0.028300 0.736300 0.363800
C677 C 0.163180 0.637420 0.320460
H678 H 0.123400 0.565900 0.325100
C679 C 0.279020 0.640900 0.290100
H680 H 0.317400 0.572400 0.274300
C681 C 0.958200 0.958340 0.019390
C682 C 0.846050 0.892090 0.130710
H683 H 0.823400 0.903800 0.182600
C684 C 0.921010 0.973520 0.096560
H685 H 0.946800 1.038700 0.125100
C686 C 0.916010 0.858410 -0.019300
H687 H 0.939000 0.843300 -0.070700
C688 C 0.839730 0.781620 0.019080
H689 H 0.811800 0.715900 -0.008000
Sn690 Sn 0.672137 0.657369 0.160139
C691 C 0.550900 0.662110 0.062500
H692 H 0.513600 0.738100 0.059300
H693 H 0.489600 0.603300 0.068800
H694 H 0.594700 0.647100 0.015200
C695 C 0.798000 0.654270 0.254530
H696 H 0.847700 0.585400 0.250700
H697 H 0.755400 0.653000 0.303300
O698 O 0.627900 0.463940 0.175670
O699 O 0.515360 0.651740 0.245650
O700 O 0.600710 0.843070 0.193570
N701 N 0.804130 0.797000 0.093100
N702 N 0.455390 0.750950 0.250300
N703 N 0.495090 0.849950 0.224450
C704 C 1.041800 1.041660 -0.019390
C705 C 1.153950 1.107910 -0.130710
H706 H 1.176600 1.096200 -0.182600
C707 C 1.078990 1.026480 -0.096560
H708 H 1.053200 0.961300 -0.125100
C709 C 1.083990 1.141590 0.019300
H710 H 1.061000 1.156700 0.070700
C711 C 1.160270 1.218380 -0.019080
H712 H 1.188200 1.284100 0.008000
N713 N 1.195870 1.203000 -0.093100
H714 H 1.151900 1.277000 -0.252500
O715 O 1.203070 1.461600 -0.089800
N716 N 1.252620 1.564920 -0.077730
N717 N 1.338290 1.606390 -0.119930
C718 C 1.212360 1.633250 -0.011850
C719 C 1.252770 1.747340 -0.001090
H720 H 1.303200 1.783000 -0.037400
C721 C 1.215500 1.806740 0.065740
H722 H 1.242500 1.882900 0.074700
C723 C 1.097300 1.643300 0.106110
H724 H 1.044100 1.609400 0.141400
C725 C 1.139400 1.755000 0.118890
H726 H 1.116400 1.795900 0.163600
C727 C 1.134160 1.580490 0.040390
H728 H 1.106700 1.504400 0.031800
C729 C 1.663630 1.251740 -0.283790
C730 C 1.718350 1.148760 -0.308330
H731 H 1.677800 1.077400 -0.305200
C732 C 1.834840 1.154360 -0.337690
H733 H 1.873500 1.085900 -0.353300
C734 C 1.893770 1.260600 -0.343900
H735 H 1.971700 1.263700 -0.363800
C736 C 1.836820 1.362580 -0.320460
H737 H 1.876600 1.434100 -0.325100
C738 C 1.720980 1.359100 -0.290100
H739 H 1.682600 1.427600 -0.274300
Sn740 Sn 1.327863 1.342631 -0.160139
C741 C 1.449100 1.337890 -0.062500
H742 H 1.486400 1.261900 -0.059300
H743 H 1.510400 1.396700 -0.068800
H744 H 1.405300 1.352900 -0.015200
C745 C 1.202000 1.345730 -0.254530
H746 H 1.152300 1.414600 -0.250700
H747 H 1.244600 1.347000 -0.303300
O748 O 1.372100 1.536060 -0.175670
O749 O 1.484640 1.348260 -0.245650
O750 O 1.399290 1.156930 -0.193570
N751 N 1.544610 1.249050 -0.250300
N752 N 1.504910 1.150050 -0.224450
H753 H 0.848100 0.723000 1.252500
O754 O 0.796930 0.538400 1.089800
N755 N 0.747380 0.435080 1.077730
N756 N 0.661710 0.393610 1.119930
C757 C 0.787640 0.366750 1.011850
C758 C 0.747230 0.252660 1.001090
H759 H 0.696800 0.217000 1.037400
C760 C 0.784500 0.193260 0.934260
H761 H 0.757500 0.117100 0.925300
C762 C 0.902700 0.356700 0.893890
H763 H 0.955900 0.390600 0.858600
C764 C 0.860600 0.245000 0.881110
H765 H 0.883600 0.204100 0.836400
C766 C 0.865840 0.419510 0.959610
H767 H 0.893300 0.495600 0.968200
C768 C 0.336370 0.748260 1.283790
C769 C 0.281650 0.851240 1.308330
H770 H 0.322200 0.922600 1.305200
C771 C 0.165160 0.845640 1.337690
H772 H 0.126500 0.914100 1.353300
C773 C 0.106230 0.739400 1.343900
H774 H 0.028300 0.736300 1.363800
C775 C 0.163180 0.637420 1.320460
H776 H 0.123400 0.565900 1.325100
C777 C 0.279020 0.640900 1.290100
H778 H 0.317400 0.572400 1.274300
C779 C 0.958200 0.958340 1.019390
C780 C 0.846050 0.892090 1.130710
H781 H 0.823400 0.903800 1.182600
C782 C 0.921010 0.973520 1.096560
H783 H 0.946800 1.038700 1.125100
C784 C 0.916010 0.858410 0.980700
H785 H 0.939000 0.843300 0.929300
C786 C 0.839730 0.781620 1.019080
H787 H 0.811800 0.715900 0.992000
Sn788 Sn 0.672137 0.657369 1.160139
C789 C 0.550900 0.662110 1.062500
H790 H 0.513600 0.738100 1.059300
H791 H 0.489600 0.603300 1.068800
H792 H 0.594700 0.647100 1.015200
C793 C 0.798000 0.654270 1.254530
H794 H 0.847700 0.585400 1.250700
H795 H 0.755400 0.653000 1.303300
O796 O 0.627900 0.463940 1.175670
O797 O 0.515360 0.651740 1.245650
O798 O 0.600710 0.843070 1.193570
N799 N 0.804130 0.797000 1.093100
N800 N 0.455390 0.750950 1.250300
N801 N 0.495090 0.849950 1.224450
C802 C 1.041800 1.041660 0.980610
C803 C 1.153950 1.107910 0.869290
H804 H 1.176600 1.096200 0.817400
C805 C 1.078990 1.026480 0.903440
H806 H 1.053200 0.961300 0.874900
C807 C 1.083990 1.141590 1.019300
H808 H 1.061000 1.156700 1.070700
C809 C 1.160270 1.218380 0.980920
H810 H 1.188200 1.284100 1.008000
N811 N 1.195870 1.203000 0.906900
H812 H 1.151900 1.277000 0.747500
O813 O 1.203070 1.461600 0.910200
N814 N 1.252620 1.564920 0.922270
N815 N 1.338290 1.606390 0.880070
C816 C 1.212360 1.633250 0.988150
C817 C 1.252770 1.747340 0.998910
H818 H 1.303200 1.783000 0.962600
C819 C 1.215500 1.806740 1.065740
H820 H 1.242500 1.882900 1.074700
C821 C 1.097300 1.643300 1.106110
H822 H 1.044100 1.609400 1.141400
C823 C 1.139400 1.755000 1.118890
H824 H 1.116400 1.795900 1.163600
C825 C 1.134160 1.580490 1.040390
H826 H 1.106700 1.504400 1.031800
C827 C 1.663630 1.251740 0.716210
C828 C 1.718350 1.148760 0.691670
H829 H 1.677800 1.077400 0.694800
C830 C 1.834840 1.154360 0.662310
H831 H 1.873500 1.085900 0.646700
C832 C 1.893770 1.260600 0.656100
H833 H 1.971700 1.263700 0.636200
C834 C 1.836820 1.362580 0.679540
H835 H 1.876600 1.434100 0.674900
C836 C 1.720980 1.359100 0.709900
H837 H 1.682600 1.427600 0.725700
Sn838 Sn 1.327863 1.342631 0.839861
C839 C 1.449100 1.337890 0.937500
H840 H 1.486400 1.261900 0.940700
H841 H 1.510400 1.396700 0.931200
H842 H 1.405300 1.352900 0.984800
C843 C 1.202000 1.345730 0.745470
H844 H 1.152300 1.414600 0.749300
H845 H 1.244600 1.347000 0.696700
O846 O 1.372100 1.536060 0.824330
O847 O 1.484640 1.348260 0.754350
O848 O 1.399290 1.156930 0.806430
N849 N 1.544610 1.249050 0.749700
N850 N 1.504910 1.150050 0.775550
H851 H 0.651900 0.223000 0.247500
O852 O 0.703070 0.038400 0.410200
N853 N 0.752620 -0.064920 0.422270
N854 N 0.838290 -0.106390 0.380070
C855 C 0.712360 -0.133250 0.488150
C856 C 0.752770 -0.247340 0.498910
H857 H 0.803200 -0.283000 0.462600
C858 C 0.715500 -0.306740 0.565740
H859 H 0.742500 -0.382900 0.574700
C860 C 0.597300 -0.143300 0.606110
H861 H 0.544100 -0.109400 0.641400
C862 C 0.639400 -0.255000 0.618890
H863 H 0.616400 -0.295900 0.663600
C864 C 0.634160 -0.080490 0.540390
H865 H 0.606700 -0.004400 0.531800
C866 C 1.163630 0.248260 0.216210
C867 C 1.218350 0.351240 0.191670
H868 H 1.177800 0.422600 0.194800
C869 C 1.334840 0.345640 0.162310
H870 H 1.373500 0.414100 0.146700
C871 C 1.393770 0.239400 0.156100
H872 H 1.471700 0.236300 0.136200
C873 C 1.336820 0.137420 0.179540
H874 H 1.376600 0.065900 0.174900
C875 C 1.220980 0.140900 0.209900
H876 H 1.182600 0.072400 0.225700
C877 C 0.541800 0.458340 0.480610
C878 C 0.653950 0.392090 0.369290
H879 H 0.676600 0.403800 0.317400
C880 C 0.578990 0.473520 0.403440
H881 H 0.553200 0.538700 0.374900
C882 C 0.583990 0.358410 0.519300
H883 H 0.561000 0.343300 0.570700
C884 C 0.660270 0.281620 0.480920
H885 H 0.688200 0.215900 0.508000
Sn886 Sn 0.827863 0.157369 0.339861
C887 C 0.949100 0.162110 0.437500
H888 H 0.986400 0.238100 0.440700
H889 H 1.010400 0.103300 0.431200
H890 H 0.905300 0.147100 0.484800
C891 C 0.702000 0.154270 0.245470
H892 H 0.652300 0.085400 0.249300
H893 H 0.744600 0.153000 0.196700
O894 O 0.872100 -0.036060 0.324330
O895 O 0.984640 0.151740 0.254350
O896 O 0.899290 0.343070 0.306430
N897 N 0.695870 0.297000 0.406900
N898 N 1.044610 0.250950 0.249700
N899 N 1.004910 0.349950 0.275550
C900 C 0.458200 0.541660 0.519390
C901 C 0.346050 0.607910 0.630710
H902 H 0.323400 0.596200 0.682600
C903 C 0.421010 0.526480 0.596560
H904 H 0.446800 0.461300 0.625100
C905 C 0.416010 0.641590 0.480700
H906 H 0.439000 0.656700 0.429300
C907 C 0.339730 0.718380 0.519080
H908 H 0.311800 0.784100 0.492000
N909 N 0.304130 0.703000 0.593100
H910 H 0.348100 0.777000 0.752500
O911 O 0.296930 0.961600 0.589800
N912 N 0.247380 1.064920 0.577730
N913 N 0.161710 1.106390 0.619930
C914 C 0.287640 1.133250 0.511850
C915 C 0.247230 1.247340 0.501090
H916 H 0.196800 1.283000 0.537400
C917 C 0.284500 1.306740 0.434260
H918 H 0.257500 1.382900 0.425300
C919 C 0.402700 1.143300 0.393890
H920 H 0.455900 1.109400 0.358600
C921 C 0.360600 1.255000 0.381110
H922 H 0.383600 1.295900 0.336400
C923 C 0.365840 1.080490 0.459610
H924 H 0.393300 1.004400 0.468200
C925 C -0.163630 0.751740 0.783790
C926 C -0.218350 0.648760 0.808330
H927 H -0.177800 0.577400 0.805200
C928 C -0.334840 0.654360 0.837690
H929 H -0.373500 0.585900 0.853300
C930 C -0.393770 0.760600 0.843900
H931 H -0.471700 0.763700 0.863800
C932 C -0.336820 0.862580 0.820460
H933 H -0.376600 0.934100 0.825100
C934 C -0.220980 0.859100 0.790100
H935 H -0.182600 0.927600 0.774300
Sn936 Sn 0.172137 0.842631 0.660139
C937 C 0.050900 0.837890 0.562500
H938 H 0.013600 0.761900 0.559300
H939 H -0.010400 0.896700 0.568800
H940 H 0.094700 0.852900 0.515200
C941 C 0.298000 0.845730 0.754530
H942 H 0.347700 0.914600 0.750700
H943 H 0.255400 0.847000 0.803300
O944 O 0.127900 1.036060 0.675670
O945 O 0.015360 0.848260 0.745650
O946 O 0.100710 0.656930 0.693570
N947 N -0.044610 0.749050 0.750300
N948 N -0.004910 0.650050 0.724450

#END
