./ACIREL_from_xyz.cif_generated_by_CrystalShift
_symmetry_cell_setting triclinic
_symmetry_space_group_name_H-M 'P 1'
loop_
_symmetry_equiv_pos_site_id
_symmetry_equiv_pos_as_xyz
1 x,y,z
_cell_length_a 4.530600
_cell_length_b 8.205800
_cell_length_c 11.009000
_cell_angle_alpha 73.492000
_cell_angle_beta 82.107000
_cell_angle_gamma 75.042000
_cell_volume 378.210850
loop_
_atom_site_label
_atom_site_type_symbol
_atom_site_fract_x
_atom_site_fract_y
_atom_site_fract_z
I1 I 0.311870 0.238540 0.572710
C2 C 0.083400 0.201800 0.331700
H3 H 0.003900 0.105600 0.374800
C4 C 0.228300 0.292600 0.383800
C5 C 0.301800 0.423600 0.283200
H6 H 0.401800 0.505700 0.290600
C7 C -0.016300 0.221900 0.108200
H8 H -0.102600 0.322900 0.041900
H9 H -0.174500 0.158300 0.144200
C10 C 0.247400 0.106500 0.051700
C11 C 0.340500 -0.070600 0.108900
H12 H 0.233700 -0.119600 0.182800
C13 C 0.587900 -0.176000 0.058900
H14 H 0.644900 -0.294400 0.099400
N15 N 0.080100 0.280000 0.206800
N16 N 0.213000 0.418700 0.174500
I17 I 0.688130 -0.238540 -0.572710
C18 C 0.916600 -0.201800 -0.331700
H19 H 0.996100 -0.105600 -0.374800
C20 C 0.771700 -0.292600 -0.383800
C21 C 0.698200 -0.423600 -0.283200
H22 H 0.598200 -0.505700 -0.290600
C23 C 1.016300 -0.221900 -0.108200
H24 H 1.102600 -0.322900 -0.041900
H25 H 1.174500 -0.158300 -0.144200
C26 C 0.752600 -0.106500 -0.051700
C27 C 0.659500 0.070600 -0.108900
H28 H 0.766300 0.119600 -0.182800
C29 C 0.412100 0.176000 -0.058900
H30 H 0.355100 0.294400 -0.099400
N31 N 0.919900 -0.280000 -0.206800
N32 N 0.787000 -0.418700 -0.174500
I33 I 0.311870 0.238540 1.572710
C34 C 0.083400 0.201800 1.331700
H35 H 0.003900 0.105600 1.374800
C36 C 0.228300 0.292600 1.383800
C37 C 0.301800 0.423600 1.283200
H38 H 0.401800 0.505700 1.290600
C39 C -0.016300 0.221900 1.108200
H40 H -0.102600 0.322900 1.041900
H41 H -0.174500 0.158300 1.144200
C42 C 0.247400 0.106500 1.051700
C43 C 0.340500 -0.070600 1.108900
H44 H 0.233700 -0.119600 1.182800
C45 C 0.587900 -0.176000 1.058900
H46 H 0.644900 -0.294400 1.099400
N47 N 0.080100 0.280000 1.206800
N48 N 0.213000 0.418700 1.174500
I49 I 0.688130 -0.238540 0.427290
C50 C 0.916600 -0.201800 0.668300
H51 H 0.996100 -0.105600 0.625200
C52 C 0.771700 -0.292600 0.616200
C53 C 0.698200 -0.423600 0.716800
H54 H 0.598200 -0.505700 0.709400
C55 C 1.016300 -0.221900 0.891800
H56 H 1.102600 -0.322900 0.958100
H57 H 1.174500 -0.158300 0.855800
C58 C 0.752600 -0.106500 0.948300
C59 C 0.659500 0.070600 0.891100
H60 H 0.766300 0.119600 0.817200
C61 C 0.412100 0.176000 0.941100
H62 H 0.355100 0.294400 0.900600
N63 N 0.919900 -0.280000 0.793200
N64 N 0.787000 -0.418700 0.825500
I65 I 0.311870 1.238540 0.572710
C66 C 0.083400 1.201800 0.331700
H67 H 0.003900 1.105600 0.374800
C68 C 0.228300 1.292600 0.383800
C69 C 0.301800 1.423600 0.283200
H70 H 0.401800 1.505700 0.290600
C71 C -0.016300 1.221900 0.108200
H72 H -0.102600 1.322900 0.041900
H73 H -0.174500 1.158300 0.144200
C74 C 0.247400 1.106500 0.051700
C75 C 0.340500 0.929400 0.108900
H76 H 0.233700 0.880400 0.182800
C77 C 0.587900 0.824000 0.058900
H78 H 0.644900 0.705600 0.099400
N79 N 0.080100 1.280000 0.206800
N80 N 0.213000 1.418700 0.174500
I81 I 0.688130 0.761460 -0.572710
C82 C 0.916600 0.798200 -0.331700
H83 H 0.996100 0.894400 -0.374800
C84 C 0.771700 0.707400 -0.383800
C85 C 0.698200 0.576400 -0.283200
H86 H 0.598200 0.494300 -0.290600
C87 C 1.016300 0.778100 -0.108200
H88 H 1.102600 0.677100 -0.041900
H89 H 1.174500 0.841700 -0.144200
C90 C 0.752600 0.893500 -0.051700
C91 C 0.659500 1.070600 -0.108900
H92 H 0.766300 1.119600 -0.182800
C93 C 0.412100 1.176000 -0.058900
H94 H 0.355100 1.294400 -0.099400
N95 N 0.919900 0.720000 -0.206800
N96 N 0.787000 0.581300 -0.174500
I97 I 0.311870 1.238540 1.572710
C98 C 0.083400 1.201800 1.331700
H99 H 0.003900 1.105600 1.374800
C100 C 0.228300 1.292600 1.383800
C101 C 0.301800 1.423600 1.283200
H102 H 0.401800 1.505700 1.290600
C103 C -0.016300 1.221900 1.108200
H104 H -0.102600 1.322900 1.041900
H105 H -0.174500 1.158300 1.144200
C106 C 0.247400 1.106500 1.051700
C107 C 0.340500 0.929400 1.108900
H108 H 0.233700 0.880400 1.182800
C109 C 0.587900 0.824000 1.058900
H110 H 0.644900 0.705600 1.099400
N111 N 0.080100 1.280000 1.206800
N112 N 0.213000 1.418700 1.174500
I113 I 0.688130 0.761460 0.427290
C114 C 0.916600 0.798200 0.668300
H115 H 0.996100 0.894400 0.625200
C116 C 0.771700 0.707400 0.616200
C117 C 0.698200 0.576400 0.716800
H118 H 0.598200 0.494300 0.709400
C119 C 1.016300 0.778100 0.891800
H120 H 1.102600 0.677100 0.958100
H121 H 1.174500 0.841700 0.855800
C122 C 0.752600 0.893500 0.948300
C123 C 0.659500 1.070600 0.891100
H124 H 0.766300 1.119600 0.817200
C125 C 0.412100 1.176000 0.941100
H126 H 0.355100 1.294400 0.900600
N127 N 0.919900 0.720000 0.793200
N128 N 0.787000 0.581300 0.825500

#END
