./ACISAI_from_xyz.cif_generated_by_CrystalShift
_symmetry_cell_setting triclinic
_symmetry_space_group_name_H-M 'P 1'
loop_
_symmetry_equiv_pos_site_id
_symmetry_equiv_pos_as_xyz
1 x,y,z
_cell_length_a 11.151000
_cell_length_b 4.595400
_cell_length_c 14.707000
_cell_angle_alpha 90.000000
_cell_angle_beta 106.200000
_cell_angle_gamma 90.000000
_cell_volume 723.711201
loop_
_atom_site_label
_atom_site_type_symbol
_atom_site_fract_x
_atom_site_fract_y
_atom_site_fract_z
C1 C 0.058300 0.051300 0.093900
H2 H 0.098400 0.085200 0.157500
C3 C -0.053300 0.189300 0.051890
C4 C -0.111400 0.136800 -0.042680
H5 H -0.186600 0.228400 -0.072100
C6 C -0.110500 0.391700 0.108970
H7 H -0.047100 0.450200 0.165800
H8 H -0.140500 0.565400 0.072100
C9 C -0.300300 -0.036100 0.210970
H10 H -0.313500 -0.175000 0.253100
C11 C -0.394200 0.108200 0.144870
C12 C -0.335600 0.293900 0.097920
H13 H -0.373300 0.421800 0.049400
N14 N -0.214620 0.253800 0.135720
N15 N -0.189290 0.050100 0.206030
N16 N -0.524900 0.078200 0.129300
O17 O -0.563370 -0.103000 0.175080
O18 O -0.594830 0.236500 0.071210
C19 C -0.058300 -0.051300 -0.093900
H20 H -0.098400 -0.085200 -0.157500
C21 C 0.053300 -0.189300 -0.051890
C22 C 0.111400 -0.136800 0.042680
H23 H 0.186600 -0.228400 0.072100
C24 C 0.110500 -0.391700 -0.108970
H25 H 0.047100 -0.450200 -0.165800
H26 H 0.140500 -0.565400 -0.072100
C27 C 0.300300 0.036100 -0.210970
H28 H 0.313500 0.175000 -0.253100
C29 C 0.394200 -0.108200 -0.144870
C30 C 0.335600 -0.293900 -0.097920
H31 H 0.373300 -0.421800 -0.049400
N32 N 0.214620 -0.253800 -0.135720
N33 N 0.189290 -0.050100 -0.206030
N34 N 0.524900 -0.078200 -0.129300
O35 O 0.563370 0.103000 -0.175080
O36 O 0.594830 -0.236500 -0.071210
C37 C 0.058300 0.051300 1.093900
H38 H 0.098400 0.085200 1.157500
C39 C -0.053300 0.189300 1.051890
C40 C -0.111400 0.136800 0.957320
H41 H -0.186600 0.228400 0.927900
C42 C -0.110500 0.391700 1.108970
H43 H -0.047100 0.450200 1.165800
H44 H -0.140500 0.565400 1.072100
C45 C -0.300300 -0.036100 1.210970
H46 H -0.313500 -0.175000 1.253100
C47 C -0.394200 0.108200 1.144870
C48 C -0.335600 0.293900 1.097920
H49 H -0.373300 0.421800 1.049400
N50 N -0.214620 0.253800 1.135720
N51 N -0.189290 0.050100 1.206030
N52 N -0.524900 0.078200 1.129300
O53 O -0.563370 -0.103000 1.175080
O54 O -0.594830 0.236500 1.071210
C55 C -0.058300 -0.051300 0.906100
H56 H -0.098400 -0.085200 0.842500
C57 C 0.053300 -0.189300 0.948110
C58 C 0.111400 -0.136800 1.042680
H59 H 0.186600 -0.228400 1.072100
C60 C 0.110500 -0.391700 0.891030
H61 H 0.047100 -0.450200 0.834200
H62 H 0.140500 -0.565400 0.927900
C63 C 0.300300 0.036100 0.789030
H64 H 0.313500 0.175000 0.746900
C65 C 0.394200 -0.108200 0.855130
C66 C 0.335600 -0.293900 0.902080
H67 H 0.373300 -0.421800 0.950600
N68 N 0.214620 -0.253800 0.864280
N69 N 0.189290 -0.050100 0.793970
N70 N 0.524900 -0.078200 0.870700
O71 O 0.563370 0.103000 0.824920
O72 O 0.594830 -0.236500 0.928790
C73 C 0.058300 1.051300 0.093900
H74 H 0.098400 1.085200 0.157500
C75 C -0.053300 1.189300 0.051890
C76 C -0.111400 1.136800 -0.042680
H77 H -0.186600 1.228400 -0.072100
C78 C -0.110500 1.391700 0.108970
H79 H -0.047100 1.450200 0.165800
H80 H -0.140500 1.565400 0.072100
C81 C -0.300300 0.963900 0.210970
H82 H -0.313500 0.825000 0.253100
C83 C -0.394200 1.108200 0.144870
C84 C -0.335600 1.293900 0.097920
H85 H -0.373300 1.421800 0.049400
N86 N -0.214620 1.253800 0.135720
N87 N -0.189290 1.050100 0.206030
N88 N -0.524900 1.078200 0.129300
O89 O -0.563370 0.897000 0.175080
O90 O -0.594830 1.236500 0.071210
C91 C -0.058300 0.948700 -0.093900
H92 H -0.098400 0.914800 -0.157500
C93 C 0.053300 0.810700 -0.051890
C94 C 0.111400 0.863200 0.042680
H95 H 0.186600 0.771600 0.072100
C96 C 0.110500 0.608300 -0.108970
H97 H 0.047100 0.549800 -0.165800
H98 H 0.140500 0.434600 -0.072100
C99 C 0.300300 1.036100 -0.210970
H100 H 0.313500 1.175000 -0.253100
C101 C 0.394200 0.891800 -0.144870
C102 C 0.335600 0.706100 -0.097920
H103 H 0.373300 0.578200 -0.049400
N104 N 0.214620 0.746200 -0.135720
N105 N 0.189290 0.949900 -0.206030
N106 N 0.524900 0.921800 -0.129300
O107 O 0.563370 1.103000 -0.175080
O108 O 0.594830 0.763500 -0.071210
C109 C 0.058300 1.051300 1.093900
H110 H 0.098400 1.085200 1.157500
C111 C -0.053300 1.189300 1.051890
C112 C -0.111400 1.136800 0.957320
H113 H -0.186600 1.228400 0.927900
C114 C -0.110500 1.391700 1.108970
H115 H -0.047100 1.450200 1.165800
H116 H -0.140500 1.565400 1.072100
C117 C -0.300300 0.963900 1.210970
H118 H -0.313500 0.825000 1.253100
C119 C -0.394200 1.108200 1.144870
C120 C -0.335600 1.293900 1.097920
H121 H -0.373300 1.421800 1.049400
N122 N -0.214620 1.253800 1.135720
N123 N -0.189290 1.050100 1.206030
N124 N -0.524900 1.078200 1.129300
O125 O -0.563370 0.897000 1.175080
O126 O -0.594830 1.236500 1.071210
C127 C -0.058300 0.948700 0.906100
H128 H -0.098400 0.914800 0.842500
C129 C 0.053300 0.810700 0.948110
C130 C 0.111400 0.863200 1.042680
H131 H 0.186600 0.771600 1.072100
C132 C 0.110500 0.608300 0.891030
H133 H 0.047100 0.549800 0.834200
H134 H 0.140500 0.434600 0.927900
C135 C 0.300300 1.036100 0.789030
H136 H 0.313500 1.175000 0.746900
C137 C 0.394200 0.891800 0.855130
C138 C 0.335600 0.706100 0.902080
H139 H 0.373300 0.578200 0.950600
N140 N 0.214620 0.746200 0.864280
N141 N 0.189290 0.949900 0.793970
N142 N 0.524900 0.921800 0.870700
O143 O 0.563370 1.103000 0.824920
O144 O 0.594830 0.763500 0.928790
C145 C 1.058300 0.051300 0.093900
H146 H 1.098400 0.085200 0.157500
C147 C 0.946700 0.189300 0.051890
C148 C 0.888600 0.136800 -0.042680
H149 H 0.813400 0.228400 -0.072100
C150 C 0.889500 0.391700 0.108970
H151 H 0.952900 0.450200 0.165800
H152 H 0.859500 0.565400 0.072100
C153 C 0.699700 -0.036100 0.210970
H154 H 0.686500 -0.175000 0.253100
C155 C 0.605800 0.108200 0.144870
C156 C 0.664400 0.293900 0.097920
H157 H 0.626700 0.421800 0.049400
N158 N 0.785380 0.253800 0.135720
N159 N 0.810710 0.050100 0.206030
N160 N 0.475100 0.078200 0.129300
O161 O 0.436630 -0.103000 0.175080
O162 O 0.405170 0.236500 0.071210
C163 C 0.941700 -0.051300 -0.093900
H164 H 0.901600 -0.085200 -0.157500
C165 C 1.053300 -0.189300 -0.051890
C166 C 1.111400 -0.136800 0.042680
H167 H 1.186600 -0.228400 0.072100
C168 C 1.110500 -0.391700 -0.108970
H169 H 1.047100 -0.450200 -0.165800
H170 H 1.140500 -0.565400 -0.072100
C171 C 1.300300 0.036100 -0.210970
H172 H 1.313500 0.175000 -0.253100
C173 C 1.394200 -0.108200 -0.144870
C174 C 1.335600 -0.293900 -0.097920
H175 H 1.373300 -0.421800 -0.049400
N176 N 1.214620 -0.253800 -0.135720
N177 N 1.189290 -0.050100 -0.206030
N178 N 1.524900 -0.078200 -0.129300
O179 O 1.563370 0.103000 -0.175080
O180 O 1.594830 -0.236500 -0.071210
C181 C 1.058300 0.051300 1.093900
H182 H 1.098400 0.085200 1.157500
C183 C 0.946700 0.189300 1.051890
C184 C 0.888600 0.136800 0.957320
H185 H 0.813400 0.228400 0.927900
C186 C 0.889500 0.391700 1.108970
H187 H 0.952900 0.450200 1.165800
H188 H 0.859500 0.565400 1.072100
C189 C 0.699700 -0.036100 1.210970
H190 H 0.686500 -0.175000 1.253100
C191 C 0.605800 0.108200 1.144870
C192 C 0.664400 0.293900 1.097920
H193 H 0.626700 0.421800 1.049400
N194 N 0.785380 0.253800 1.135720
N195 N 0.810710 0.050100 1.206030
N196 N 0.475100 0.078200 1.129300
O197 O 0.436630 -0.103000 1.175080
O198 O 0.405170 0.236500 1.071210
C199 C 0.941700 -0.051300 0.906100
H200 H 0.901600 -0.085200 0.842500
C201 C 1.053300 -0.189300 0.948110
C202 C 1.111400 -0.136800 1.042680
H203 H 1.186600 -0.228400 1.072100
C204 C 1.110500 -0.391700 0.891030
H205 H 1.047100 -0.450200 0.834200
H206 H 1.140500 -0.565400 0.927900
C207 C 1.300300 0.036100 0.789030
H208 H 1.313500 0.175000 0.746900
C209 C 1.394200 -0.108200 0.855130
C210 C 1.335600 -0.293900 0.902080
H211 H 1.373300 -0.421800 0.950600
N212 N 1.214620 -0.253800 0.864280
N213 N 1.189290 -0.050100 0.793970
N214 N 1.524900 -0.078200 0.870700
O215 O 1.563370 0.103000 0.824920
O216 O 1.594830 -0.236500 0.928790
C217 C 1.058300 1.051300 0.093900
H218 H 1.098400 1.085200 0.157500
C219 C 0.946700 1.189300 0.051890
C220 C 0.888600 1.136800 -0.042680
H221 H 0.813400 1.228400 -0.072100
C222 C 0.889500 1.391700 0.108970
H223 H 0.952900 1.450200 0.165800
H224 H 0.859500 1.565400 0.072100
C225 C 0.699700 0.963900 0.210970
H226 H 0.686500 0.825000 0.253100
C227 C 0.605800 1.108200 0.144870
C228 C 0.664400 1.293900 0.097920
H229 H 0.626700 1.421800 0.049400
N230 N 0.785380 1.253800 0.135720
N231 N 0.810710 1.050100 0.206030
N232 N 0.475100 1.078200 0.129300
O233 O 0.436630 0.897000 0.175080
O234 O 0.405170 1.236500 0.071210
C235 C 0.941700 0.948700 -0.093900
H236 H 0.901600 0.914800 -0.157500
C237 C 1.053300 0.810700 -0.051890
C238 C 1.111400 0.863200 0.042680
H239 H 1.186600 0.771600 0.072100
C240 C 1.110500 0.608300 -0.108970
H241 H 1.047100 0.549800 -0.165800
H242 H 1.140500 0.434600 -0.072100
C243 C 1.300300 1.036100 -0.210970
H244 H 1.313500 1.175000 -0.253100
C245 C 1.394200 0.891800 -0.144870
C246 C 1.335600 0.706100 -0.097920
H247 H 1.373300 0.578200 -0.049400
N248 N 1.214620 0.746200 -0.135720
N249 N 1.189290 0.949900 -0.206030
N250 N 1.524900 0.921800 -0.129300
O251 O 1.563370 1.103000 -0.175080
O252 O 1.594830 0.763500 -0.071210
C253 C 1.058300 1.051300 1.093900
H254 H 1.098400 1.085200 1.157500
C255 C 0.946700 1.189300 1.051890
C256 C 0.888600 1.136800 0.957320
H257 H 0.813400 1.228400 0.927900
C258 C 0.889500 1.391700 1.108970
H259 H 0.952900 1.450200 1.165800
H260 H 0.859500 1.565400 1.072100
C261 C 0.699700 0.963900 1.210970
H262 H 0.686500 0.825000 1.253100
C263 C 0.605800 1.108200 1.144870
C264 C 0.664400 1.293900 1.097920
H265 H 0.626700 1.421800 1.049400
N266 N 0.785380 1.253800 1.135720
N267 N 0.810710 1.050100 1.206030
N268 N 0.475100 1.078200 1.129300
O269 O 0.436630 0.897000 1.175080
O270 O 0.405170 1.236500 1.071210
C271 C 0.941700 0.948700 0.906100
H272 H 0.901600 0.914800 0.842500
C273 C 1.053300 0.810700 0.948110
C274 C 1.111400 0.863200 1.042680
H275 H 1.186600 0.771600 1.072100
C276 C 1.110500 0.608300 0.891030
H277 H 1.047100 0.549800 0.834200
H278 H 1.140500 0.434600 0.927900
C279 C 1.300300 1.036100 0.789030
H280 H 1.313500 1.175000 0.746900
C281 C 1.394200 0.891800 0.855130
C282 C 1.335600 0.706100 0.902080
H283 H 1.373300 0.578200 0.950600
N284 N 1.214620 0.746200 0.864280
N285 N 1.189290 0.949900 0.793970
N286 N 1.524900 0.921800 0.870700
O287 O 1.563370 1.103000 0.824920
O288 O 1.594830 0.763500 0.928790
C289 C -0.058300 0.551300 0.406100
H290 H -0.098400 0.585200 0.342500
C291 C 0.053300 0.689300 0.448110
C292 C 0.111400 0.636800 0.542680
H293 H 0.186600 0.728400 0.572100
C294 C 0.110500 0.891700 0.391030
H295 H 0.047100 0.950200 0.334200
H296 H 0.140500 1.065400 0.427900
C297 C 0.300300 0.463900 0.289030
H298 H 0.313500 0.325000 0.246900
C299 C 0.394200 0.608200 0.355130
C300 C 0.335600 0.793900 0.402080
H301 H 0.373300 0.921800 0.450600
N302 N 0.214620 0.753800 0.364280
N303 N 0.189290 0.550100 0.293970
N304 N 0.524900 0.578200 0.370700
O305 O 0.563370 0.397000 0.324920
O306 O 0.594830 0.736500 0.428790
C307 C 0.058300 0.448700 0.593900
H308 H 0.098400 0.414800 0.657500
C309 C -0.053300 0.310700 0.551890
C310 C -0.111400 0.363200 0.457320
H311 H -0.186600 0.271600 0.427900
C312 C -0.110500 0.108300 0.608970
H313 H -0.047100 0.049800 0.665800
H314 H -0.140500 -0.065400 0.572100
C315 C -0.300300 0.536100 0.710970
H316 H -0.313500 0.675000 0.753100
C317 C -0.394200 0.391800 0.644870
C318 C -0.335600 0.206100 0.597920
H319 H -0.373300 0.078200 0.549400
N320 N -0.214620 0.246200 0.635720
N321 N -0.189290 0.449900 0.706030
N322 N -0.524900 0.421800 0.629300
O323 O -0.563370 0.603000 0.675080
O324 O -0.594830 0.263500 0.571210
C325 C 0.941700 0.551300 0.406100
H326 H 0.901600 0.585200 0.342500
C327 C 1.053300 0.689300 0.448110
C328 C 1.111400 0.636800 0.542680
H329 H 1.186600 0.728400 0.572100
C330 C 1.110500 0.891700 0.391030
H331 H 1.047100 0.950200 0.334200
H332 H 1.140500 1.065400 0.427900
C333 C 1.300300 0.463900 0.289030
H334 H 1.313500 0.325000 0.246900
C335 C 1.394200 0.608200 0.355130
C336 C 1.335600 0.793900 0.402080
H337 H 1.373300 0.921800 0.450600
N338 N 1.214620 0.753800 0.364280
N339 N 1.189290 0.550100 0.293970
N340 N 1.524900 0.578200 0.370700
O341 O 1.563370 0.397000 0.324920
O342 O 1.594830 0.736500 0.428790
C343 C 1.058300 0.448700 0.593900
H344 H 1.098400 0.414800 0.657500
C345 C 0.946700 0.310700 0.551890
C346 C 0.888600 0.363200 0.457320
H347 H 0.813400 0.271600 0.427900
C348 C 0.889500 0.108300 0.608970
H349 H 0.952900 0.049800 0.665800
H350 H 0.859500 -0.065400 0.572100
C351 C 0.699700 0.536100 0.710970
H352 H 0.686500 0.675000 0.753100
C353 C 0.605800 0.391800 0.644870
C354 C 0.664400 0.206100 0.597920
H355 H 0.626700 0.078200 0.549400
N356 N 0.785380 0.246200 0.635720
N357 N 0.810710 0.449900 0.706030
N358 N 0.475100 0.421800 0.629300
O359 O 0.436630 0.603000 0.675080
O360 O 0.405170 0.263500 0.571210

#END
