./ACIXOZ_from_xyz.cif_generated_by_CrystalShift
_symmetry_cell_setting triclinic
_symmetry_space_group_name_H-M 'P 1'
loop_
_symmetry_equiv_pos_site_id
_symmetry_equiv_pos_as_xyz
1 x,y,z
_cell_length_a 10.622000
_cell_length_b 12.417000
_cell_length_c 20.960000
_cell_angle_alpha 86.078000
_cell_angle_beta 87.948000
_cell_angle_gamma 74.079000
_cell_volume 2651.797267
loop_
_atom_site_label
_atom_site_type_symbol
_atom_site_fract_x
_atom_site_fract_y
_atom_site_fract_z
Li1 Li 0.733200 0.285100 0.372900
Li2 Li 0.893900 0.387400 0.344800
Li3 Li 0.740500 0.443500 0.256200
Li4 Li 0.896500 0.157800 0.310900
Li5 Li 0.662800 0.242800 0.229300
Li6 Li 0.986200 0.292300 0.205500
Li7 Li 0.920600 0.140500 0.159970
Li8 Li 0.753800 0.308200 0.126900
O9 O 0.709510 0.436070 0.345390
O10 O 0.915200 0.241770 0.380850
O11 O 0.926280 0.412820 0.256800
O12 O 0.707790 0.188550 0.312880
O13 O 0.656000 0.392650 0.193330
O14 O 1.000280 0.141180 0.238100
O15 O 0.935400 0.278510 0.120790
O16 O 0.737710 0.165850 0.156210
C17 C 0.587400 0.505200 0.363870
H18 H 0.548000 0.462700 0.395300
H19 H 0.531700 0.522400 0.326800
C20 C 0.587100 0.613200 0.391250
C21 C 0.664300 0.590800 0.451300
H22 H 0.626200 0.547200 0.481900
H23 H 0.663100 0.660700 0.468600
H24 H 0.753000 0.550000 0.441900
C25 C 0.644300 0.681700 0.342600
H26 H 0.593700 0.695300 0.304400
H27 H 0.733000 0.641600 0.332800
H28 H 0.642700 0.752000 0.359500
C29 C 0.449300 0.679400 0.407710
H30 H 0.398400 0.697400 0.369600
H31 H 0.451500 0.747500 0.426200
H32 H 0.410500 0.635600 0.437800
C33 C 1.014300 0.181100 0.422340
H34 H 1.098400 0.181700 0.402800
H35 H 1.010800 0.103700 0.426500
C36 C 1.007900 0.224000 0.488710
C37 C 1.120200 0.146700 0.527270
H38 H 1.117600 0.172200 0.569700
H39 H 1.202200 0.147900 0.506800
H40 H 1.111600 0.071600 0.529600
C41 C 1.021500 0.342700 0.484950
H42 H 0.950600 0.391300 0.460900
H43 H 1.103200 0.343900 0.464300
H44 H 1.019200 0.368000 0.527300
C45 C 0.879500 0.221600 0.521290
H46 H 0.808500 0.270400 0.497400
H47 H 0.877400 0.246500 0.563800
H48 H 0.871000 0.146400 0.523400
C49 C 0.971700 0.504700 0.234840
H50 H 0.912900 0.572400 0.250700
H51 H 0.968600 0.511600 0.188500
C52 C 1.109900 0.497400 0.254810
C53 C 1.120100 0.483200 0.326880
H54 H 1.060200 0.546200 0.345600
H55 H 1.207900 0.479100 0.338800
H56 H 1.098900 0.415500 0.341900
C57 C 1.206600 0.397000 0.225860
H58 H 1.200700 0.404900 0.180100
H59 H 1.185800 0.329200 0.241300
H60 H 1.293900 0.393800 0.238000
C61 C 1.143000 0.604600 0.229100
H62 H 1.135800 0.611900 0.183400
H63 H 1.230900 0.601200 0.240400
H64 H 1.083200 0.668200 0.247300
C65 C 0.666500 0.093000 0.333190
H66 H 0.737500 0.040000 0.356000
H67 H 0.649900 0.057700 0.295700
C68 C 0.544200 0.115700 0.376140
C69 C 0.429100 0.195600 0.341390
H70 H 0.353000 0.209400 0.369000
H71 H 0.412200 0.162800 0.303600
H72 H 0.449500 0.265100 0.329700
C73 C 0.513600 0.004700 0.394130
H74 H 0.436600 0.017500 0.421000
H75 H 0.586100 -0.045000 0.416600
H76 H 0.499000 -0.028600 0.356000
C77 C 0.568200 0.166400 0.437170
H78 H 0.490400 0.180900 0.463600
H79 H 0.590500 0.235400 0.426500
H80 H 0.638900 0.114800 0.459900
C81 C 0.537400 0.467400 0.173160
H82 H 0.489500 0.500800 0.210400
H83 H 0.485400 0.425200 0.154200
C84 C 0.552200 0.561700 0.124780
C85 C 0.629600 0.512500 0.066260
H86 H 0.585300 0.465600 0.047000
H87 H 0.715500 0.468700 0.078800
H88 H 0.637100 0.572200 0.036000
C89 C 0.622700 0.636500 0.154740
H90 H 0.708900 0.592900 0.166900
H91 H 0.574500 0.667500 0.191900
H92 H 0.629300 0.696200 0.124300
C93 C 0.415700 0.630500 0.104860
H94 H 0.371500 0.582900 0.086100
H95 H 0.422700 0.689700 0.074200
H96 H 0.366900 0.662100 0.141700
C97 C 1.130000 0.077800 0.244250
H98 H 1.163700 0.095700 0.283400
H99 H 1.181100 0.099700 0.208900
C100 C 1.150100 -0.048800 0.245490
C101 C 1.077800 -0.085100 0.302530
H102 H 0.985900 -0.048600 0.299000
H103 H 1.109800 -0.064900 0.341000
H104 H 1.091600 -0.164900 0.303900
C105 C 1.101400 -0.080600 0.184870
H106 H 1.009200 -0.045400 0.181300
H107 H 1.117100 -0.160600 0.185800
H108 H 1.146900 -0.056100 0.148800
C109 C 1.295400 -0.106500 0.251000
H110 H 1.341400 -0.083400 0.214600
H111 H 1.309300 -0.186400 0.252400
H112 H 1.327500 -0.086300 0.289400
C113 C 1.014600 0.310800 0.072760
H114 H 1.101300 0.299500 0.089800
H115 H 0.979500 0.390500 0.062200
C116 C 1.028100 0.249900 0.011570
C117 C 1.083600 0.125500 0.025040
H118 H 1.090900 0.088300 -0.014100
H119 H 1.026700 0.098000 0.054500
H120 H 1.168700 0.110900 0.043400
C121 C 1.117700 0.293300 -0.035060
H122 H 1.126400 0.254700 -0.073800
H123 H 1.202300 0.280300 -0.016500
H124 H 1.081300 0.372300 -0.044400
C125 C 0.894500 0.272500 -0.017530
H126 H 0.902000 0.233800 -0.056200
H127 H 0.859700 0.351600 -0.027100
H128 H 0.836900 0.246300 0.012200
C129 C 0.704500 0.070300 0.138440
H130 H 0.706000 0.020400 0.176300
H131 H 0.771300 0.031400 0.108900
C132 C 0.571600 0.092700 0.107400
C133 C 0.550100 -0.019500 0.092810
H134 H 0.552300 -0.065100 0.131800
H135 H 0.618000 -0.057100 0.064200
H136 H 0.466500 -0.006900 0.073300
C137 C 0.567600 0.165300 0.045940
H138 H 0.634900 0.127800 0.017000
H139 H 0.581700 0.235700 0.055300
H140 H 0.483700 0.178500 0.026700
C141 C 0.464800 0.151200 0.153510
H142 H 0.468000 0.105000 0.192400
H143 H 0.380900 0.163900 0.134400
H144 H 0.478300 0.221800 0.162900
Li145 Li 0.266800 0.714900 0.627100
Li146 Li 0.106100 0.612600 0.655200
Li147 Li 0.259500 0.556500 0.743800
Li148 Li 0.103500 0.842200 0.689100
Li149 Li 0.337200 0.757200 0.770700
Li150 Li 0.013800 0.707700 0.794500
Li151 Li 0.079400 0.859500 0.840030
Li152 Li 0.246200 0.691800 0.873100
O153 O 0.290490 0.563930 0.654610
O154 O 0.084800 0.758230 0.619150
O155 O 0.073720 0.587180 0.743200
O156 O 0.292210 0.811450 0.687120
O157 O 0.344000 0.607350 0.806670
O158 O -0.000280 0.858820 0.761900
O159 O 0.064600 0.721490 0.879210
O160 O 0.262290 0.834150 0.843790
C161 C 0.412600 0.494800 0.636130
H162 H 0.452000 0.537300 0.604700
H163 H 0.468300 0.477600 0.673200
C164 C 0.412900 0.386800 0.608750
C165 C 0.335700 0.409200 0.548700
H166 H 0.373800 0.452800 0.518100
H167 H 0.336900 0.339300 0.531400
H168 H 0.247000 0.450000 0.558100
C169 C 0.355700 0.318300 0.657400
H170 H 0.406300 0.304700 0.695600
H171 H 0.267000 0.358400 0.667200
H172 H 0.357300 0.248000 0.640500
C173 C 0.550700 0.320600 0.592290
H174 H 0.601600 0.302600 0.630400
H175 H 0.548500 0.252500 0.573800
H176 H 0.589500 0.364400 0.562200
C177 C -0.014300 0.818900 0.577660
H178 H -0.098400 0.818300 0.597200
H179 H -0.010800 0.896300 0.573500
C180 C -0.007900 0.776000 0.511290
C181 C -0.120200 0.853300 0.472730
H182 H -0.117600 0.827800 0.430300
H183 H -0.202200 0.852100 0.493200
H184 H -0.111600 0.928400 0.470400
C185 C -0.021500 0.657300 0.515050
H186 H 0.049400 0.608700 0.539100
H187 H -0.103200 0.656100 0.535700
H188 H -0.019200 0.632000 0.472700
C189 C 0.120500 0.778400 0.478710
H190 H 0.191500 0.729600 0.502600
H191 H 0.122600 0.753500 0.436200
H192 H 0.129000 0.853600 0.476600
C193 C 0.028300 0.495300 0.765160
H194 H 0.087100 0.427600 0.749300
H195 H 0.031400 0.488400 0.811500
C196 C -0.109900 0.502600 0.745190
C197 C -0.120100 0.516800 0.673120
H198 H -0.060200 0.453800 0.654400
H199 H -0.207900 0.520900 0.661200
H200 H -0.098900 0.584500 0.658100
C201 C -0.206600 0.603000 0.774140
H202 H -0.200700 0.595100 0.819900
H203 H -0.185800 0.670800 0.758700
H204 H -0.293900 0.606200 0.762000
C205 C -0.143000 0.395400 0.770900
H206 H -0.135800 0.388100 0.816600
H207 H -0.230900 0.398800 0.759600
H208 H -0.083200 0.331800 0.752700
C209 C 0.333500 0.907000 0.666810
H210 H 0.262500 0.960000 0.644000
H211 H 0.350100 0.942300 0.704300
C212 C 0.455800 0.884300 0.623860
C213 C 0.570900 0.804400 0.658610
H214 H 0.647000 0.790600 0.631000
H215 H 0.587800 0.837200 0.696400
H216 H 0.550500 0.734900 0.670300
C217 C 0.486400 0.995300 0.605870
H218 H 0.563400 0.982500 0.579000
H219 H 0.413900 1.045000 0.583400
H220 H 0.501000 1.028600 0.644000
C221 C 0.431800 0.833600 0.562830
H222 H 0.509600 0.819100 0.536400
H223 H 0.409500 0.764600 0.573500
H224 H 0.361100 0.885200 0.540100
C225 C 0.462600 0.532600 0.826840
H226 H 0.510500 0.499200 0.789600
H227 H 0.514600 0.574800 0.845800
C228 C 0.447800 0.438300 0.875220
C229 C 0.370400 0.487500 0.933740
H230 H 0.414700 0.534400 0.953000
H231 H 0.284500 0.531300 0.921200
H232 H 0.362900 0.427800 0.964000
C233 C 0.377300 0.363500 0.845260
H234 H 0.291100 0.407100 0.833100
H235 H 0.425500 0.332500 0.808100
H236 H 0.370700 0.303800 0.875700
C237 C 0.584300 0.369500 0.895140
H238 H 0.628500 0.417100 0.913900
H239 H 0.577300 0.310300 0.925800
H240 H 0.633100 0.337900 0.858300
C241 C -0.130000 0.922200 0.755750
H242 H -0.163700 0.904300 0.716600
H243 H -0.181100 0.900300 0.791100
C244 C -0.150100 1.048800 0.754510
C245 C -0.077800 1.085100 0.697470
H246 H 0.014100 1.048600 0.701000
H247 H -0.109800 1.064900 0.659000
H248 H -0.091600 1.164900 0.696100
C249 C -0.101400 1.080600 0.815130
H250 H -0.009200 1.045400 0.818700
H251 H -0.117100 1.160600 0.814200
H252 H -0.146900 1.056100 0.851200
C253 C -0.295400 1.106500 0.749000
H254 H -0.341400 1.083400 0.785400
H255 H -0.309300 1.186400 0.747600
H256 H -0.327500 1.086300 0.710600
C257 C -0.014600 0.689200 0.927240
H258 H -0.101300 0.700500 0.910200
H259 H 0.020500 0.609500 0.937800
C260 C -0.028100 0.750100 0.988430
C261 C -0.083600 0.874500 0.974960
H262 H -0.090900 0.911700 1.014100
H263 H -0.026700 0.902000 0.945500
H264 H -0.168700 0.889100 0.956600
C265 C -0.117700 0.706700 1.035060
H266 H -0.126400 0.745300 1.073800
H267 H -0.202300 0.719700 1.016500
H268 H -0.081300 0.627700 1.044400
C269 C 0.105500 0.727500 1.017530
H270 H 0.098000 0.766200 1.056200
H271 H 0.140300 0.648400 1.027100
H272 H 0.163100 0.753700 0.987800
C273 C 0.295500 0.929700 0.861560
H274 H 0.294000 0.979600 0.823700
H275 H 0.228700 0.968600 0.891100
C276 C 0.428400 0.907300 0.892600
C277 C 0.449900 1.019500 0.907190
H278 H 0.447700 1.065100 0.868200
H279 H 0.382000 1.057100 0.935800
H280 H 0.533500 1.006900 0.926700
C281 C 0.432400 0.834700 0.954060
H282 H 0.365100 0.872200 0.983000
H283 H 0.418300 0.764300 0.944700
H284 H 0.516300 0.821500 0.973300
C285 C 0.535200 0.848800 0.846490
H286 H 0.532000 0.895000 0.807600
H287 H 0.619100 0.836100 0.865600
H288 H 0.521700 0.778200 0.837100

#END
