./ACNPOL01_from_xyz.cif_generated_by_CrystalShift
_symmetry_cell_setting triclinic
_symmetry_space_group_name_H-M 'P 1'
loop_
_symmetry_equiv_pos_site_id
_symmetry_equiv_pos_as_xyz
1 x,y,z
_cell_length_a 12.958500
_cell_length_b 4.932600
_cell_length_c 15.674900
_cell_angle_alpha 90.000000
_cell_angle_beta 119.398000
_cell_angle_gamma 90.000000
_cell_volume 872.908465
loop_
_atom_site_label
_atom_site_type_symbol
_atom_site_fract_x
_atom_site_fract_y
_atom_site_fract_z
O1 O 0.055370 0.703600 0.266860
C2 C 0.249390 0.941700 0.197220
C3 C 0.239500 0.843600 0.276630
C4 C 0.313340 0.945700 0.367600
H5 H 0.309100 0.884500 0.421900
C6 C 0.396860 1.147700 0.377600
H7 H 0.446800 1.218500 0.439500
C8 C 0.406640 1.241700 0.300150
H9 H 0.462800 1.373300 0.309900
C10 C 0.331020 1.139100 0.204150
C11 C 0.328110 1.214100 0.115610
H12 H 0.380200 1.344600 0.116000
C13 C 0.248480 1.093800 0.029790
H14 H 0.248000 1.144800 -0.027500
C15 C 0.166910 0.895700 0.024100
H16 H 0.114000 0.818400 -0.035800
C17 C 0.166690 0.819200 0.107470
C18 C 0.093850 0.619000 0.128120
C19 C 0.143550 0.630400 0.241070
H20 H 0.175900 0.451000 0.270200
H21 H 0.100800 0.432000 0.106300
H22 H 0.006400 0.666000 0.096300
H23 H 0.016400 0.566000 0.257000
O24 O 0.944630 0.203600 0.233140
C25 C 0.750610 0.441700 0.302780
C26 C 0.760500 0.343600 0.223370
C27 C 0.686660 0.445700 0.132400
H28 H 0.690900 0.384500 0.078100
C29 C 0.603140 0.647700 0.122400
H30 H 0.553200 0.718500 0.060500
C31 C 0.593360 0.741700 0.199850
H32 H 0.537200 0.873300 0.190100
C33 C 0.668980 0.639100 0.295850
C34 C 0.671890 0.714100 0.384390
H35 H 0.619800 0.844600 0.384000
C36 C 0.751520 0.593800 0.470210
H37 H 0.752000 0.644800 0.527500
C38 C 0.833090 0.395700 0.475900
H39 H 0.886000 0.318400 0.535800
C40 C 0.833310 0.319200 0.392530
C41 C 0.906150 0.119000 0.371880
C42 C 0.856450 0.130400 0.258930
H43 H 0.824100 -0.049000 0.229800
H44 H 0.899200 -0.068000 0.393700
H45 H 0.993600 0.166000 0.403700
H46 H 0.983600 0.066000 0.243000
O47 O 0.944630 0.296400 0.733140
C48 C 0.750610 0.058300 0.802780
C49 C 0.760500 0.156400 0.723370
C50 C 0.686660 0.054300 0.632400
H51 H 0.690900 0.115500 0.578100
C52 C 0.603140 -0.147700 0.622400
H53 H 0.553200 -0.218500 0.560500
C54 C 0.593360 -0.241700 0.699850
H55 H 0.537200 -0.373300 0.690100
C56 C 0.668980 -0.139100 0.795850
C57 C 0.671890 -0.214100 0.884390
H58 H 0.619800 -0.344600 0.884000
C59 C 0.751520 -0.093800 0.970210
H60 H 0.752000 -0.144800 1.027500
C61 C 0.833090 0.104300 0.975900
H62 H 0.886000 0.181600 1.035800
C63 C 0.833310 0.180800 0.892530
C64 C 0.906150 0.381000 0.871880
C65 C 0.856450 0.369600 0.758930
H66 H 0.824100 0.549000 0.729800
H67 H 0.899200 0.568000 0.893700
H68 H 0.993600 0.334000 0.903700
H69 H 0.983600 0.434000 0.743000
O70 O 0.055370 0.796400 0.766860
C71 C 0.249390 0.558300 0.697220
C72 C 0.239500 0.656400 0.776630
C73 C 0.313340 0.554300 0.867600
H74 H 0.309100 0.615500 0.921900
C75 C 0.396860 0.352300 0.877600
H76 H 0.446800 0.281500 0.939500
C77 C 0.406640 0.258300 0.800150
H78 H 0.462800 0.126700 0.809900
C79 C 0.331020 0.360900 0.704150
C80 C 0.328110 0.285900 0.615610
H81 H 0.380200 0.155400 0.616000
C82 C 0.248480 0.406200 0.529790
H83 H 0.248000 0.355200 0.472500
C84 C 0.166910 0.604300 0.524100
H85 H 0.114000 0.681600 0.464200
C86 C 0.166690 0.680800 0.607470
C87 C 0.093850 0.881000 0.628120
C88 C 0.143550 0.869600 0.741070
H89 H 0.175900 1.049000 0.770200
H90 H 0.100800 1.068000 0.606300
H91 H 0.006400 0.834000 0.596300
H92 H 0.016400 0.934000 0.757000

#END
