./ACOBOK01_from_xyz.cif_generated_by_CrystalShift
_symmetry_cell_setting triclinic
_symmetry_space_group_name_H-M 'P 1'
loop_
_symmetry_equiv_pos_site_id
_symmetry_equiv_pos_as_xyz
1 x,y,z
_cell_length_a 11.980300
_cell_length_b 15.660300
_cell_length_c 15.376700
_cell_angle_alpha 90.000000
_cell_angle_beta 99.467000
_cell_angle_gamma 90.000000
_cell_volume 2845.610071
loop_
_atom_site_label
_atom_site_type_symbol
_atom_site_fract_x
_atom_site_fract_y
_atom_site_fract_z
Zr1 Zr 0.094731 -0.079351 0.069409
H2 H 0.135000 0.019000 0.136000
Si3 Si 0.235380 -0.267130 -0.062140
Si4 Si 0.410740 -0.002650 0.183380
Si5 Si 0.027560 0.006170 0.302840
Si6 Si -0.148790 -0.258460 0.049780
O7 O 0.014700 0.020700 0.019100
C8 C 0.309360 -0.055420 0.094270
C9 C 0.262640 -0.017420 0.011730
H10 H 0.259000 0.040400 -0.000800
C11 C 0.219790 -0.081190 -0.047160
H12 H 0.182000 -0.070900 -0.103400
C13 C 0.236560 -0.162540 -0.004490
C14 C 0.293550 -0.144340 0.082190
H15 H 0.319800 -0.188500 0.126300
C16 C -0.043310 -0.188000 0.119090
C17 C 0.068230 -0.210790 0.161000
H18 H 0.104600 -0.258800 0.147400
C19 C 0.110620 -0.147260 0.221240
H20 H 0.182000 -0.148600 0.256200
C21 C 0.028050 -0.081440 0.220050
C22 C -0.065870 -0.108740 0.156870
H23 H -0.134000 -0.078600 0.142200
C24 C 0.175100 -0.356380 -0.004440
H25 H 0.214300 -0.359600 0.056700
H26 H 0.185200 -0.410300 -0.034600
H27 H 0.094300 -0.346200 -0.005000
C28 C 0.154100 -0.258790 -0.175640
H29 H 0.076200 -0.241400 -0.172800
H30 H 0.153600 -0.314400 -0.205000
H31 H 0.189600 -0.216200 -0.209000
C32 C 0.386600 -0.291100 -0.065100
H33 H 0.415800 -0.250900 -0.104700
H34 H 0.393600 -0.349500 -0.086400
H35 H 0.430400 -0.285600 -0.005600
C36 C 0.554800 -0.032000 0.163400
H37 H 0.566100 -0.010200 0.105700
H38 H 0.562800 -0.094200 0.164300
H39 H 0.611600 -0.006900 0.209500
C40 C 0.394600 -0.042050 0.294610
H41 H 0.458100 -0.021600 0.338100
H42 H 0.393800 -0.104600 0.294500
H43 H 0.323400 -0.020700 0.309900
C44 C 0.395800 0.115100 0.175390
H45 H 0.320400 0.131600 0.186200
H46 H 0.405700 0.133800 0.116300
H47 H 0.453400 0.142100 0.219500
C48 C 0.107700 -0.032820 0.409960
H49 H 0.074400 -0.086500 0.426200
H50 H 0.103900 0.010000 0.455900
H51 H 0.186900 -0.042500 0.404000
C52 C -0.122200 0.027160 0.315410
H53 H -0.158300 -0.026500 0.328200
H54 H -0.163100 0.051600 0.260600
H55 H -0.123900 0.067400 0.364000
C56 C 0.091400 0.108870 0.273600
H57 H 0.078100 0.153200 0.315700
H58 H 0.056500 0.126000 0.214000
H59 H 0.173000 0.101300 0.275700
C60 C -0.293410 -0.230150 0.071220
H61 H -0.310300 -0.170700 0.053900
H62 H -0.296400 -0.237100 0.134100
H63 H -0.349300 -0.267800 0.036800
C64 C -0.147100 -0.248000 -0.070170
H65 H -0.077300 -0.273200 -0.084200
H66 H -0.150400 -0.187400 -0.086500
H67 H -0.212600 -0.277800 -0.103200
C68 C -0.118800 -0.370590 0.085770
H69 H -0.173500 -0.408700 0.050800
H70 H -0.124900 -0.376100 0.148300
H71 H -0.042000 -0.386000 0.077200
Zr72 Zr -0.094731 0.079351 -0.069409
H73 H -0.135000 -0.019000 -0.136000
Si74 Si -0.235380 0.267130 0.062140
Si75 Si -0.410740 0.002650 -0.183380
Si76 Si -0.027560 -0.006170 -0.302840
Si77 Si 0.148790 0.258460 -0.049780
O78 O -0.014700 -0.020700 -0.019100
C79 C -0.309360 0.055420 -0.094270
C80 C -0.262640 0.017420 -0.011730
H81 H -0.259000 -0.040400 0.000800
C82 C -0.219790 0.081190 0.047160
H83 H -0.182000 0.070900 0.103400
C84 C -0.236560 0.162540 0.004490
C85 C -0.293550 0.144340 -0.082190
H86 H -0.319800 0.188500 -0.126300
C87 C 0.043310 0.188000 -0.119090
C88 C -0.068230 0.210790 -0.161000
H89 H -0.104600 0.258800 -0.147400
C90 C -0.110620 0.147260 -0.221240
H91 H -0.182000 0.148600 -0.256200
C92 C -0.028050 0.081440 -0.220050
C93 C 0.065870 0.108740 -0.156870
H94 H 0.134000 0.078600 -0.142200
C95 C -0.175100 0.356380 0.004440
H96 H -0.214300 0.359600 -0.056700
H97 H -0.185200 0.410300 0.034600
H98 H -0.094300 0.346200 0.005000
C99 C -0.154100 0.258790 0.175640
H100 H -0.076200 0.241400 0.172800
H101 H -0.153600 0.314400 0.205000
H102 H -0.189600 0.216200 0.209000
C103 C -0.386600 0.291100 0.065100
H104 H -0.415800 0.250900 0.104700
H105 H -0.393600 0.349500 0.086400
H106 H -0.430400 0.285600 0.005600
C107 C -0.554800 0.032000 -0.163400
H108 H -0.566100 0.010200 -0.105700
H109 H -0.562800 0.094200 -0.164300
H110 H -0.611600 0.006900 -0.209500
C111 C -0.394600 0.042050 -0.294610
H112 H -0.458100 0.021600 -0.338100
H113 H -0.393800 0.104600 -0.294500
H114 H -0.323400 0.020700 -0.309900
C115 C -0.395800 -0.115100 -0.175390
H116 H -0.320400 -0.131600 -0.186200
H117 H -0.405700 -0.133800 -0.116300
H118 H -0.453400 -0.142100 -0.219500
C119 C -0.107700 0.032820 -0.409960
H120 H -0.074400 0.086500 -0.426200
H121 H -0.103900 -0.010000 -0.455900
H122 H -0.186900 0.042500 -0.404000
C123 C 0.122200 -0.027160 -0.315410
H124 H 0.158300 0.026500 -0.328200
H125 H 0.163100 -0.051600 -0.260600
H126 H 0.123900 -0.067400 -0.364000
C127 C -0.091400 -0.108870 -0.273600
H128 H -0.078100 -0.153200 -0.315700
H129 H -0.056500 -0.126000 -0.214000
H130 H -0.173000 -0.101300 -0.275700
C131 C 0.293410 0.230150 -0.071220
H132 H 0.310300 0.170700 -0.053900
H133 H 0.296400 0.237100 -0.134100
H134 H 0.349300 0.267800 -0.036800
C135 C 0.147100 0.248000 0.070170
H136 H 0.077300 0.273200 0.084200
H137 H 0.150400 0.187400 0.086500
H138 H 0.212600 0.277800 0.103200
C139 C 0.118800 0.370590 -0.085770
H140 H 0.173500 0.408700 -0.050800
H141 H 0.124900 0.376100 -0.148300
H142 H 0.042000 0.386000 -0.077200
Zr143 Zr 0.094731 -0.079351 1.069409
H144 H 0.135000 0.019000 1.136000
Si145 Si 0.235380 -0.267130 0.937860
Si146 Si 0.410740 -0.002650 1.183380
Si147 Si 0.027560 0.006170 1.302840
Si148 Si -0.148790 -0.258460 1.049780
O149 O 0.014700 0.020700 1.019100
C150 C 0.309360 -0.055420 1.094270
C151 C 0.262640 -0.017420 1.011730
H152 H 0.259000 0.040400 0.999200
C153 C 0.219790 -0.081190 0.952840
H154 H 0.182000 -0.070900 0.896600
C155 C 0.236560 -0.162540 0.995510
C156 C 0.293550 -0.144340 1.082190
H157 H 0.319800 -0.188500 1.126300
C158 C -0.043310 -0.188000 1.119090
C159 C 0.068230 -0.210790 1.161000
H160 H 0.104600 -0.258800 1.147400
C161 C 0.110620 -0.147260 1.221240
H162 H 0.182000 -0.148600 1.256200
C163 C 0.028050 -0.081440 1.220050
C164 C -0.065870 -0.108740 1.156870
H165 H -0.134000 -0.078600 1.142200
C166 C 0.175100 -0.356380 0.995560
H167 H 0.214300 -0.359600 1.056700
H168 H 0.185200 -0.410300 0.965400
H169 H 0.094300 -0.346200 0.995000
C170 C 0.154100 -0.258790 0.824360
H171 H 0.076200 -0.241400 0.827200
H172 H 0.153600 -0.314400 0.795000
H173 H 0.189600 -0.216200 0.791000
C174 C 0.386600 -0.291100 0.934900
H175 H 0.415800 -0.250900 0.895300
H176 H 0.393600 -0.349500 0.913600
H177 H 0.430400 -0.285600 0.994400
C178 C 0.554800 -0.032000 1.163400
H179 H 0.566100 -0.010200 1.105700
H180 H 0.562800 -0.094200 1.164300
H181 H 0.611600 -0.006900 1.209500
C182 C 0.394600 -0.042050 1.294610
H183 H 0.458100 -0.021600 1.338100
H184 H 0.393800 -0.104600 1.294500
H185 H 0.323400 -0.020700 1.309900
C186 C 0.395800 0.115100 1.175390
H187 H 0.320400 0.131600 1.186200
H188 H 0.405700 0.133800 1.116300
H189 H 0.453400 0.142100 1.219500
C190 C 0.107700 -0.032820 1.409960
H191 H 0.074400 -0.086500 1.426200
H192 H 0.103900 0.010000 1.455900
H193 H 0.186900 -0.042500 1.404000
C194 C -0.122200 0.027160 1.315410
H195 H -0.158300 -0.026500 1.328200
H196 H -0.163100 0.051600 1.260600
H197 H -0.123900 0.067400 1.364000
C198 C 0.091400 0.108870 1.273600
H199 H 0.078100 0.153200 1.315700
H200 H 0.056500 0.126000 1.214000
H201 H 0.173000 0.101300 1.275700
C202 C -0.293410 -0.230150 1.071220
H203 H -0.310300 -0.170700 1.053900
H204 H -0.296400 -0.237100 1.134100
H205 H -0.349300 -0.267800 1.036800
C206 C -0.147100 -0.248000 0.929830
H207 H -0.077300 -0.273200 0.915800
H208 H -0.150400 -0.187400 0.913500
H209 H -0.212600 -0.277800 0.896800
C210 C -0.118800 -0.370590 1.085770
H211 H -0.173500 -0.408700 1.050800
H212 H -0.124900 -0.376100 1.148300
H213 H -0.042000 -0.386000 1.077200
Zr214 Zr -0.094731 0.079351 0.930591
H215 H -0.135000 -0.019000 0.864000
Si216 Si -0.235380 0.267130 1.062140
Si217 Si -0.410740 0.002650 0.816620
Si218 Si -0.027560 -0.006170 0.697160
Si219 Si 0.148790 0.258460 0.950220
O220 O -0.014700 -0.020700 0.980900
C221 C -0.309360 0.055420 0.905730
C222 C -0.262640 0.017420 0.988270
H223 H -0.259000 -0.040400 1.000800
C224 C -0.219790 0.081190 1.047160
H225 H -0.182000 0.070900 1.103400
C226 C -0.236560 0.162540 1.004490
C227 C -0.293550 0.144340 0.917810
H228 H -0.319800 0.188500 0.873700
C229 C 0.043310 0.188000 0.880910
C230 C -0.068230 0.210790 0.839000
H231 H -0.104600 0.258800 0.852600
C232 C -0.110620 0.147260 0.778760
H233 H -0.182000 0.148600 0.743800
C234 C -0.028050 0.081440 0.779950
C235 C 0.065870 0.108740 0.843130
H236 H 0.134000 0.078600 0.857800
C237 C -0.175100 0.356380 1.004440
H238 H -0.214300 0.359600 0.943300
H239 H -0.185200 0.410300 1.034600
H240 H -0.094300 0.346200 1.005000
C241 C -0.154100 0.258790 1.175640
H242 H -0.076200 0.241400 1.172800
H243 H -0.153600 0.314400 1.205000
H244 H -0.189600 0.216200 1.209000
C245 C -0.386600 0.291100 1.065100
H246 H -0.415800 0.250900 1.104700
H247 H -0.393600 0.349500 1.086400
H248 H -0.430400 0.285600 1.005600
C249 C -0.554800 0.032000 0.836600
H250 H -0.566100 0.010200 0.894300
H251 H -0.562800 0.094200 0.835700
H252 H -0.611600 0.006900 0.790500
C253 C -0.394600 0.042050 0.705390
H254 H -0.458100 0.021600 0.661900
H255 H -0.393800 0.104600 0.705500
H256 H -0.323400 0.020700 0.690100
C257 C -0.395800 -0.115100 0.824610
H258 H -0.320400 -0.131600 0.813800
H259 H -0.405700 -0.133800 0.883700
H260 H -0.453400 -0.142100 0.780500
C261 C -0.107700 0.032820 0.590040
H262 H -0.074400 0.086500 0.573800
H263 H -0.103900 -0.010000 0.544100
H264 H -0.186900 0.042500 0.596000
C265 C 0.122200 -0.027160 0.684590
H266 H 0.158300 0.026500 0.671800
H267 H 0.163100 -0.051600 0.739400
H268 H 0.123900 -0.067400 0.636000
C269 C -0.091400 -0.108870 0.726400
H270 H -0.078100 -0.153200 0.684300
H271 H -0.056500 -0.126000 0.786000
H272 H -0.173000 -0.101300 0.724300
C273 C 0.293410 0.230150 0.928780
H274 H 0.310300 0.170700 0.946100
H275 H 0.296400 0.237100 0.865900
H276 H 0.349300 0.267800 0.963200
C277 C 0.147100 0.248000 1.070170
H278 H 0.077300 0.273200 1.084200
H279 H 0.150400 0.187400 1.086500
H280 H 0.212600 0.277800 1.103200
C281 C 0.118800 0.370590 0.914230
H282 H 0.173500 0.408700 0.949200
H283 H 0.124900 0.376100 0.851700
H284 H 0.042000 0.386000 0.922800
Zr285 Zr 0.094731 0.920649 0.069409
H286 H 0.135000 1.019000 0.136000
Si287 Si 0.235380 0.732870 -0.062140
Si288 Si 0.410740 0.997350 0.183380
Si289 Si 0.027560 1.006170 0.302840
Si290 Si -0.148790 0.741540 0.049780
O291 O 0.014700 1.020700 0.019100
C292 C 0.309360 0.944580 0.094270
C293 C 0.262640 0.982580 0.011730
H294 H 0.259000 1.040400 -0.000800
C295 C 0.219790 0.918810 -0.047160
H296 H 0.182000 0.929100 -0.103400
C297 C 0.236560 0.837460 -0.004490
C298 C 0.293550 0.855660 0.082190
H299 H 0.319800 0.811500 0.126300
C300 C -0.043310 0.812000 0.119090
C301 C 0.068230 0.789210 0.161000
H302 H 0.104600 0.741200 0.147400
C303 C 0.110620 0.852740 0.221240
H304 H 0.182000 0.851400 0.256200
C305 C 0.028050 0.918560 0.220050
C306 C -0.065870 0.891260 0.156870
H307 H -0.134000 0.921400 0.142200
C308 C 0.175100 0.643620 -0.004440
H309 H 0.214300 0.640400 0.056700
H310 H 0.185200 0.589700 -0.034600
H311 H 0.094300 0.653800 -0.005000
C312 C 0.154100 0.741210 -0.175640
H313 H 0.076200 0.758600 -0.172800
H314 H 0.153600 0.685600 -0.205000
H315 H 0.189600 0.783800 -0.209000
C316 C 0.386600 0.708900 -0.065100
H317 H 0.415800 0.749100 -0.104700
H318 H 0.393600 0.650500 -0.086400
H319 H 0.430400 0.714400 -0.005600
C320 C 0.554800 0.968000 0.163400
H321 H 0.566100 0.989800 0.105700
H322 H 0.562800 0.905800 0.164300
H323 H 0.611600 0.993100 0.209500
C324 C 0.394600 0.957950 0.294610
H325 H 0.458100 0.978400 0.338100
H326 H 0.393800 0.895400 0.294500
H327 H 0.323400 0.979300 0.309900
C328 C 0.395800 1.115100 0.175390
H329 H 0.320400 1.131600 0.186200
H330 H 0.405700 1.133800 0.116300
H331 H 0.453400 1.142100 0.219500
C332 C 0.107700 0.967180 0.409960
H333 H 0.074400 0.913500 0.426200
H334 H 0.103900 1.010000 0.455900
H335 H 0.186900 0.957500 0.404000
C336 C -0.122200 1.027160 0.315410
H337 H -0.158300 0.973500 0.328200
H338 H -0.163100 1.051600 0.260600
H339 H -0.123900 1.067400 0.364000
C340 C 0.091400 1.108870 0.273600
H341 H 0.078100 1.153200 0.315700
H342 H 0.056500 1.126000 0.214000
H343 H 0.173000 1.101300 0.275700
C344 C -0.293410 0.769850 0.071220
H345 H -0.310300 0.829300 0.053900
H346 H -0.296400 0.762900 0.134100
H347 H -0.349300 0.732200 0.036800
C348 C -0.147100 0.752000 -0.070170
H349 H -0.077300 0.726800 -0.084200
H350 H -0.150400 0.812600 -0.086500
H351 H -0.212600 0.722200 -0.103200
C352 C -0.118800 0.629410 0.085770
H353 H -0.173500 0.591300 0.050800
H354 H -0.124900 0.623900 0.148300
H355 H -0.042000 0.614000 0.077200
Zr356 Zr -0.094731 1.079351 -0.069409
H357 H -0.135000 0.981000 -0.136000
Si358 Si -0.235380 1.267130 0.062140
Si359 Si -0.410740 1.002650 -0.183380
Si360 Si -0.027560 0.993830 -0.302840
Si361 Si 0.148790 1.258460 -0.049780
O362 O -0.014700 0.979300 -0.019100
C363 C -0.309360 1.055420 -0.094270
C364 C -0.262640 1.017420 -0.011730
H365 H -0.259000 0.959600 0.000800
C366 C -0.219790 1.081190 0.047160
H367 H -0.182000 1.070900 0.103400
C368 C -0.236560 1.162540 0.004490
C369 C -0.293550 1.144340 -0.082190
H370 H -0.319800 1.188500 -0.126300
C371 C 0.043310 1.188000 -0.119090
C372 C -0.068230 1.210790 -0.161000
H373 H -0.104600 1.258800 -0.147400
C374 C -0.110620 1.147260 -0.221240
H375 H -0.182000 1.148600 -0.256200
C376 C -0.028050 1.081440 -0.220050
C377 C 0.065870 1.108740 -0.156870
H378 H 0.134000 1.078600 -0.142200
C379 C -0.175100 1.356380 0.004440
H380 H -0.214300 1.359600 -0.056700
H381 H -0.185200 1.410300 0.034600
H382 H -0.094300 1.346200 0.005000
C383 C -0.154100 1.258790 0.175640
H384 H -0.076200 1.241400 0.172800
H385 H -0.153600 1.314400 0.205000
H386 H -0.189600 1.216200 0.209000
C387 C -0.386600 1.291100 0.065100
H388 H -0.415800 1.250900 0.104700
H389 H -0.393600 1.349500 0.086400
H390 H -0.430400 1.285600 0.005600
C391 C -0.554800 1.032000 -0.163400
H392 H -0.566100 1.010200 -0.105700
H393 H -0.562800 1.094200 -0.164300
H394 H -0.611600 1.006900 -0.209500
C395 C -0.394600 1.042050 -0.294610
H396 H -0.458100 1.021600 -0.338100
H397 H -0.393800 1.104600 -0.294500
H398 H -0.323400 1.020700 -0.309900
C399 C -0.395800 0.884900 -0.175390
H400 H -0.320400 0.868400 -0.186200
H401 H -0.405700 0.866200 -0.116300
H402 H -0.453400 0.857900 -0.219500
C403 C -0.107700 1.032820 -0.409960
H404 H -0.074400 1.086500 -0.426200
H405 H -0.103900 0.990000 -0.455900
H406 H -0.186900 1.042500 -0.404000
C407 C 0.122200 0.972840 -0.315410
H408 H 0.158300 1.026500 -0.328200
H409 H 0.163100 0.948400 -0.260600
H410 H 0.123900 0.932600 -0.364000
C411 C -0.091400 0.891130 -0.273600
H412 H -0.078100 0.846800 -0.315700
H413 H -0.056500 0.874000 -0.214000
H414 H -0.173000 0.898700 -0.275700
C415 C 0.293410 1.230150 -0.071220
H416 H 0.310300 1.170700 -0.053900
H417 H 0.296400 1.237100 -0.134100
H418 H 0.349300 1.267800 -0.036800
C419 C 0.147100 1.248000 0.070170
H420 H 0.077300 1.273200 0.084200
H421 H 0.150400 1.187400 0.086500
H422 H 0.212600 1.277800 0.103200
C423 C 0.118800 1.370590 -0.085770
H424 H 0.173500 1.408700 -0.050800
H425 H 0.124900 1.376100 -0.148300
H426 H 0.042000 1.386000 -0.077200
Zr427 Zr 0.094731 0.920649 1.069409
H428 H 0.135000 1.019000 1.136000
Si429 Si 0.235380 0.732870 0.937860
Si430 Si 0.410740 0.997350 1.183380
Si431 Si 0.027560 1.006170 1.302840
Si432 Si -0.148790 0.741540 1.049780
O433 O 0.014700 1.020700 1.019100
C434 C 0.309360 0.944580 1.094270
C435 C 0.262640 0.982580 1.011730
H436 H 0.259000 1.040400 0.999200
C437 C 0.219790 0.918810 0.952840
H438 H 0.182000 0.929100 0.896600
C439 C 0.236560 0.837460 0.995510
C440 C 0.293550 0.855660 1.082190
H441 H 0.319800 0.811500 1.126300
C442 C -0.043310 0.812000 1.119090
C443 C 0.068230 0.789210 1.161000
H444 H 0.104600 0.741200 1.147400
C445 C 0.110620 0.852740 1.221240
H446 H 0.182000 0.851400 1.256200
C447 C 0.028050 0.918560 1.220050
C448 C -0.065870 0.891260 1.156870
H449 H -0.134000 0.921400 1.142200
C450 C 0.175100 0.643620 0.995560
H451 H 0.214300 0.640400 1.056700
H452 H 0.185200 0.589700 0.965400
H453 H 0.094300 0.653800 0.995000
C454 C 0.154100 0.741210 0.824360
H455 H 0.076200 0.758600 0.827200
H456 H 0.153600 0.685600 0.795000
H457 H 0.189600 0.783800 0.791000
C458 C 0.386600 0.708900 0.934900
H459 H 0.415800 0.749100 0.895300
H460 H 0.393600 0.650500 0.913600
H461 H 0.430400 0.714400 0.994400
C462 C 0.554800 0.968000 1.163400
H463 H 0.566100 0.989800 1.105700
H464 H 0.562800 0.905800 1.164300
H465 H 0.611600 0.993100 1.209500
C466 C 0.394600 0.957950 1.294610
H467 H 0.458100 0.978400 1.338100
H468 H 0.393800 0.895400 1.294500
H469 H 0.323400 0.979300 1.309900
C470 C 0.395800 1.115100 1.175390
H471 H 0.320400 1.131600 1.186200
H472 H 0.405700 1.133800 1.116300
H473 H 0.453400 1.142100 1.219500
C474 C 0.107700 0.967180 1.409960
H475 H 0.074400 0.913500 1.426200
H476 H 0.103900 1.010000 1.455900
H477 H 0.186900 0.957500 1.404000
C478 C -0.122200 1.027160 1.315410
H479 H -0.158300 0.973500 1.328200
H480 H -0.163100 1.051600 1.260600
H481 H -0.123900 1.067400 1.364000
C482 C 0.091400 1.108870 1.273600
H483 H 0.078100 1.153200 1.315700
H484 H 0.056500 1.126000 1.214000
H485 H 0.173000 1.101300 1.275700
C486 C -0.293410 0.769850 1.071220
H487 H -0.310300 0.829300 1.053900
H488 H -0.296400 0.762900 1.134100
H489 H -0.349300 0.732200 1.036800
C490 C -0.147100 0.752000 0.929830
H491 H -0.077300 0.726800 0.915800
H492 H -0.150400 0.812600 0.913500
H493 H -0.212600 0.722200 0.896800
C494 C -0.118800 0.629410 1.085770
H495 H -0.173500 0.591300 1.050800
H496 H -0.124900 0.623900 1.148300
H497 H -0.042000 0.614000 1.077200
Zr498 Zr -0.094731 1.079351 0.930591
H499 H -0.135000 0.981000 0.864000
Si500 Si -0.235380 1.267130 1.062140
Si501 Si -0.410740 1.002650 0.816620
Si502 Si -0.027560 0.993830 0.697160
Si503 Si 0.148790 1.258460 0.950220
O504 O -0.014700 0.979300 0.980900
C505 C -0.309360 1.055420 0.905730
C506 C -0.262640 1.017420 0.988270
H507 H -0.259000 0.959600 1.000800
C508 C -0.219790 1.081190 1.047160
H509 H -0.182000 1.070900 1.103400
C510 C -0.236560 1.162540 1.004490
C511 C -0.293550 1.144340 0.917810
H512 H -0.319800 1.188500 0.873700
C513 C 0.043310 1.188000 0.880910
C514 C -0.068230 1.210790 0.839000
H515 H -0.104600 1.258800 0.852600
C516 C -0.110620 1.147260 0.778760
H517 H -0.182000 1.148600 0.743800
C518 C -0.028050 1.081440 0.779950
C519 C 0.065870 1.108740 0.843130
H520 H 0.134000 1.078600 0.857800
C521 C -0.175100 1.356380 1.004440
H522 H -0.214300 1.359600 0.943300
H523 H -0.185200 1.410300 1.034600
H524 H -0.094300 1.346200 1.005000
C525 C -0.154100 1.258790 1.175640
H526 H -0.076200 1.241400 1.172800
H527 H -0.153600 1.314400 1.205000
H528 H -0.189600 1.216200 1.209000
C529 C -0.386600 1.291100 1.065100
H530 H -0.415800 1.250900 1.104700
H531 H -0.393600 1.349500 1.086400
H532 H -0.430400 1.285600 1.005600
C533 C -0.554800 1.032000 0.836600
H534 H -0.566100 1.010200 0.894300
H535 H -0.562800 1.094200 0.835700
H536 H -0.611600 1.006900 0.790500
C537 C -0.394600 1.042050 0.705390
H538 H -0.458100 1.021600 0.661900
H539 H -0.393800 1.104600 0.705500
H540 H -0.323400 1.020700 0.690100
C541 C -0.395800 0.884900 0.824610
H542 H -0.320400 0.868400 0.813800
H543 H -0.405700 0.866200 0.883700
H544 H -0.453400 0.857900 0.780500
C545 C -0.107700 1.032820 0.590040
H546 H -0.074400 1.086500 0.573800
H547 H -0.103900 0.990000 0.544100
H548 H -0.186900 1.042500 0.596000
C549 C 0.122200 0.972840 0.684590
H550 H 0.158300 1.026500 0.671800
H551 H 0.163100 0.948400 0.739400
H552 H 0.123900 0.932600 0.636000
C553 C -0.091400 0.891130 0.726400
H554 H -0.078100 0.846800 0.684300
H555 H -0.056500 0.874000 0.786000
H556 H -0.173000 0.898700 0.724300
C557 C 0.293410 1.230150 0.928780
H558 H 0.310300 1.170700 0.946100
H559 H 0.296400 1.237100 0.865900
H560 H 0.349300 1.267800 0.963200
C561 C 0.147100 1.248000 1.070170
H562 H 0.077300 1.273200 1.084200
H563 H 0.150400 1.187400 1.086500
H564 H 0.212600 1.277800 1.103200
C565 C 0.118800 1.370590 0.914230
H566 H 0.173500 1.408700 0.949200
H567 H 0.124900 1.376100 0.851700
H568 H 0.042000 1.386000 0.922800
Zr569 Zr 1.094731 -0.079351 0.069409
H570 H 1.135000 0.019000 0.136000
Si571 Si 1.235380 -0.267130 -0.062140
Si572 Si 1.410740 -0.002650 0.183380
Si573 Si 1.027560 0.006170 0.302840
Si574 Si 0.851210 -0.258460 0.049780
O575 O 1.014700 0.020700 0.019100
C576 C 1.309360 -0.055420 0.094270
C577 C 1.262640 -0.017420 0.011730
H578 H 1.259000 0.040400 -0.000800
C579 C 1.219790 -0.081190 -0.047160
H580 H 1.182000 -0.070900 -0.103400
C581 C 1.236560 -0.162540 -0.004490
C582 C 1.293550 -0.144340 0.082190
H583 H 1.319800 -0.188500 0.126300
C584 C 0.956690 -0.188000 0.119090
C585 C 1.068230 -0.210790 0.161000
H586 H 1.104600 -0.258800 0.147400
C587 C 1.110620 -0.147260 0.221240
H588 H 1.182000 -0.148600 0.256200
C589 C 1.028050 -0.081440 0.220050
C590 C 0.934130 -0.108740 0.156870
H591 H 0.866000 -0.078600 0.142200
C592 C 1.175100 -0.356380 -0.004440
H593 H 1.214300 -0.359600 0.056700
H594 H 1.185200 -0.410300 -0.034600
H595 H 1.094300 -0.346200 -0.005000
C596 C 1.154100 -0.258790 -0.175640
H597 H 1.076200 -0.241400 -0.172800
H598 H 1.153600 -0.314400 -0.205000
H599 H 1.189600 -0.216200 -0.209000
C600 C 1.386600 -0.291100 -0.065100
H601 H 1.415800 -0.250900 -0.104700
H602 H 1.393600 -0.349500 -0.086400
H603 H 1.430400 -0.285600 -0.005600
C604 C 1.554800 -0.032000 0.163400
H605 H 1.566100 -0.010200 0.105700
H606 H 1.562800 -0.094200 0.164300
H607 H 1.611600 -0.006900 0.209500
C608 C 1.394600 -0.042050 0.294610
H609 H 1.458100 -0.021600 0.338100
H610 H 1.393800 -0.104600 0.294500
H611 H 1.323400 -0.020700 0.309900
C612 C 1.395800 0.115100 0.175390
H613 H 1.320400 0.131600 0.186200
H614 H 1.405700 0.133800 0.116300
H615 H 1.453400 0.142100 0.219500
C616 C 1.107700 -0.032820 0.409960
H617 H 1.074400 -0.086500 0.426200
H618 H 1.103900 0.010000 0.455900
H619 H 1.186900 -0.042500 0.404000
C620 C 0.877800 0.027160 0.315410
H621 H 0.841700 -0.026500 0.328200
H622 H 0.836900 0.051600 0.260600
H623 H 0.876100 0.067400 0.364000
C624 C 1.091400 0.108870 0.273600
H625 H 1.078100 0.153200 0.315700
H626 H 1.056500 0.126000 0.214000
H627 H 1.173000 0.101300 0.275700
C628 C 0.706590 -0.230150 0.071220
H629 H 0.689700 -0.170700 0.053900
H630 H 0.703600 -0.237100 0.134100
H631 H 0.650700 -0.267800 0.036800
C632 C 0.852900 -0.248000 -0.070170
H633 H 0.922700 -0.273200 -0.084200
H634 H 0.849600 -0.187400 -0.086500
H635 H 0.787400 -0.277800 -0.103200
C636 C 0.881200 -0.370590 0.085770
H637 H 0.826500 -0.408700 0.050800
H638 H 0.875100 -0.376100 0.148300
H639 H 0.958000 -0.386000 0.077200
Zr640 Zr 0.905269 0.079351 -0.069409
H641 H 0.865000 -0.019000 -0.136000
Si642 Si 0.764620 0.267130 0.062140
Si643 Si 0.589260 0.002650 -0.183380
Si644 Si 0.972440 -0.006170 -0.302840
Si645 Si 1.148790 0.258460 -0.049780
O646 O 0.985300 -0.020700 -0.019100
C647 C 0.690640 0.055420 -0.094270
C648 C 0.737360 0.017420 -0.011730
H649 H 0.741000 -0.040400 0.000800
C650 C 0.780210 0.081190 0.047160
H651 H 0.818000 0.070900 0.103400
C652 C 0.763440 0.162540 0.004490
C653 C 0.706450 0.144340 -0.082190
H654 H 0.680200 0.188500 -0.126300
C655 C 1.043310 0.188000 -0.119090
C656 C 0.931770 0.210790 -0.161000
H657 H 0.895400 0.258800 -0.147400
C658 C 0.889380 0.147260 -0.221240
H659 H 0.818000 0.148600 -0.256200
C660 C 0.971950 0.081440 -0.220050
C661 C 1.065870 0.108740 -0.156870
H662 H 1.134000 0.078600 -0.142200
C663 C 0.824900 0.356380 0.004440
H664 H 0.785700 0.359600 -0.056700
H665 H 0.814800 0.410300 0.034600
H666 H 0.905700 0.346200 0.005000
C667 C 0.845900 0.258790 0.175640
H668 H 0.923800 0.241400 0.172800
H669 H 0.846400 0.314400 0.205000
H670 H 0.810400 0.216200 0.209000
C671 C 0.613400 0.291100 0.065100
H672 H 0.584200 0.250900 0.104700
H673 H 0.606400 0.349500 0.086400
H674 H 0.569600 0.285600 0.005600
C675 C 0.445200 0.032000 -0.163400
H676 H 0.433900 0.010200 -0.105700
H677 H 0.437200 0.094200 -0.164300
H678 H 0.388400 0.006900 -0.209500
C679 C 0.605400 0.042050 -0.294610
H680 H 0.541900 0.021600 -0.338100
H681 H 0.606200 0.104600 -0.294500
H682 H 0.676600 0.020700 -0.309900
C683 C 0.604200 -0.115100 -0.175390
H684 H 0.679600 -0.131600 -0.186200
H685 H 0.594300 -0.133800 -0.116300
H686 H 0.546600 -0.142100 -0.219500
C687 C 0.892300 0.032820 -0.409960
H688 H 0.925600 0.086500 -0.426200
H689 H 0.896100 -0.010000 -0.455900
H690 H 0.813100 0.042500 -0.404000
C691 C 1.122200 -0.027160 -0.315410
H692 H 1.158300 0.026500 -0.328200
H693 H 1.163100 -0.051600 -0.260600
H694 H 1.123900 -0.067400 -0.364000
C695 C 0.908600 -0.108870 -0.273600
H696 H 0.921900 -0.153200 -0.315700
H697 H 0.943500 -0.126000 -0.214000
H698 H 0.827000 -0.101300 -0.275700
C699 C 1.293410 0.230150 -0.071220
H700 H 1.310300 0.170700 -0.053900
H701 H 1.296400 0.237100 -0.134100
H702 H 1.349300 0.267800 -0.036800
C703 C 1.147100 0.248000 0.070170
H704 H 1.077300 0.273200 0.084200
H705 H 1.150400 0.187400 0.086500
H706 H 1.212600 0.277800 0.103200
C707 C 1.118800 0.370590 -0.085770
H708 H 1.173500 0.408700 -0.050800
H709 H 1.124900 0.376100 -0.148300
H710 H 1.042000 0.386000 -0.077200
Zr711 Zr 1.094731 -0.079351 1.069409
H712 H 1.135000 0.019000 1.136000
Si713 Si 1.235380 -0.267130 0.937860
Si714 Si 1.410740 -0.002650 1.183380
Si715 Si 1.027560 0.006170 1.302840
Si716 Si 0.851210 -0.258460 1.049780
O717 O 1.014700 0.020700 1.019100
C718 C 1.309360 -0.055420 1.094270
C719 C 1.262640 -0.017420 1.011730
H720 H 1.259000 0.040400 0.999200
C721 C 1.219790 -0.081190 0.952840
H722 H 1.182000 -0.070900 0.896600
C723 C 1.236560 -0.162540 0.995510
C724 C 1.293550 -0.144340 1.082190
H725 H 1.319800 -0.188500 1.126300
C726 C 0.956690 -0.188000 1.119090
C727 C 1.068230 -0.210790 1.161000
H728 H 1.104600 -0.258800 1.147400
C729 C 1.110620 -0.147260 1.221240
H730 H 1.182000 -0.148600 1.256200
C731 C 1.028050 -0.081440 1.220050
C732 C 0.934130 -0.108740 1.156870
H733 H 0.866000 -0.078600 1.142200
C734 C 1.175100 -0.356380 0.995560
H735 H 1.214300 -0.359600 1.056700
H736 H 1.185200 -0.410300 0.965400
H737 H 1.094300 -0.346200 0.995000
C738 C 1.154100 -0.258790 0.824360
H739 H 1.076200 -0.241400 0.827200
H740 H 1.153600 -0.314400 0.795000
H741 H 1.189600 -0.216200 0.791000
C742 C 1.386600 -0.291100 0.934900
H743 H 1.415800 -0.250900 0.895300
H744 H 1.393600 -0.349500 0.913600
H745 H 1.430400 -0.285600 0.994400
C746 C 1.554800 -0.032000 1.163400
H747 H 1.566100 -0.010200 1.105700
H748 H 1.562800 -0.094200 1.164300
H749 H 1.611600 -0.006900 1.209500
C750 C 1.394600 -0.042050 1.294610
H751 H 1.458100 -0.021600 1.338100
H752 H 1.393800 -0.104600 1.294500
H753 H 1.323400 -0.020700 1.309900
C754 C 1.395800 0.115100 1.175390
H755 H 1.320400 0.131600 1.186200
H756 H 1.405700 0.133800 1.116300
H757 H 1.453400 0.142100 1.219500
C758 C 1.107700 -0.032820 1.409960
H759 H 1.074400 -0.086500 1.426200
H760 H 1.103900 0.010000 1.455900
H761 H 1.186900 -0.042500 1.404000
C762 C 0.877800 0.027160 1.315410
H763 H 0.841700 -0.026500 1.328200
H764 H 0.836900 0.051600 1.260600
H765 H 0.876100 0.067400 1.364000
C766 C 1.091400 0.108870 1.273600
H767 H 1.078100 0.153200 1.315700
H768 H 1.056500 0.126000 1.214000
H769 H 1.173000 0.101300 1.275700
C770 C 0.706590 -0.230150 1.071220
H771 H 0.689700 -0.170700 1.053900
H772 H 0.703600 -0.237100 1.134100
H773 H 0.650700 -0.267800 1.036800
C774 C 0.852900 -0.248000 0.929830
H775 H 0.922700 -0.273200 0.915800
H776 H 0.849600 -0.187400 0.913500
H777 H 0.787400 -0.277800 0.896800
C778 C 0.881200 -0.370590 1.085770
H779 H 0.826500 -0.408700 1.050800
H780 H 0.875100 -0.376100 1.148300
H781 H 0.958000 -0.386000 1.077200
Zr782 Zr 0.905269 0.079351 0.930591
H783 H 0.865000 -0.019000 0.864000
Si784 Si 0.764620 0.267130 1.062140
Si785 Si 0.589260 0.002650 0.816620
Si786 Si 0.972440 -0.006170 0.697160
Si787 Si 1.148790 0.258460 0.950220
O788 O 0.985300 -0.020700 0.980900
C789 C 0.690640 0.055420 0.905730
C790 C 0.737360 0.017420 0.988270
H791 H 0.741000 -0.040400 1.000800
C792 C 0.780210 0.081190 1.047160
H793 H 0.818000 0.070900 1.103400
C794 C 0.763440 0.162540 1.004490
C795 C 0.706450 0.144340 0.917810
H796 H 0.680200 0.188500 0.873700
C797 C 1.043310 0.188000 0.880910
C798 C 0.931770 0.210790 0.839000
H799 H 0.895400 0.258800 0.852600
C800 C 0.889380 0.147260 0.778760
H801 H 0.818000 0.148600 0.743800
C802 C 0.971950 0.081440 0.779950
C803 C 1.065870 0.108740 0.843130
H804 H 1.134000 0.078600 0.857800
C805 C 0.824900 0.356380 1.004440
H806 H 0.785700 0.359600 0.943300
H807 H 0.814800 0.410300 1.034600
H808 H 0.905700 0.346200 1.005000
C809 C 0.845900 0.258790 1.175640
H810 H 0.923800 0.241400 1.172800
H811 H 0.846400 0.314400 1.205000
H812 H 0.810400 0.216200 1.209000
C813 C 0.613400 0.291100 1.065100
H814 H 0.584200 0.250900 1.104700
H815 H 0.606400 0.349500 1.086400
H816 H 0.569600 0.285600 1.005600
C817 C 0.445200 0.032000 0.836600
H818 H 0.433900 0.010200 0.894300
H819 H 0.437200 0.094200 0.835700
H820 H 0.388400 0.006900 0.790500
C821 C 0.605400 0.042050 0.705390
H822 H 0.541900 0.021600 0.661900
H823 H 0.606200 0.104600 0.705500
H824 H 0.676600 0.020700 0.690100
C825 C 0.604200 -0.115100 0.824610
H826 H 0.679600 -0.131600 0.813800
H827 H 0.594300 -0.133800 0.883700
H828 H 0.546600 -0.142100 0.780500
C829 C 0.892300 0.032820 0.590040
H830 H 0.925600 0.086500 0.573800
H831 H 0.896100 -0.010000 0.544100
H832 H 0.813100 0.042500 0.596000
C833 C 1.122200 -0.027160 0.684590
H834 H 1.158300 0.026500 0.671800
H835 H 1.163100 -0.051600 0.739400
H836 H 1.123900 -0.067400 0.636000
C837 C 0.908600 -0.108870 0.726400
H838 H 0.921900 -0.153200 0.684300
H839 H 0.943500 -0.126000 0.786000
H840 H 0.827000 -0.101300 0.724300
C841 C 1.293410 0.230150 0.928780
H842 H 1.310300 0.170700 0.946100
H843 H 1.296400 0.237100 0.865900
H844 H 1.349300 0.267800 0.963200
C845 C 1.147100 0.248000 1.070170
H846 H 1.077300 0.273200 1.084200
H847 H 1.150400 0.187400 1.086500
H848 H 1.212600 0.277800 1.103200
C849 C 1.118800 0.370590 0.914230
H850 H 1.173500 0.408700 0.949200
H851 H 1.124900 0.376100 0.851700
H852 H 1.042000 0.386000 0.922800
Zr853 Zr 1.094731 0.920649 0.069409
H854 H 1.135000 1.019000 0.136000
Si855 Si 1.235380 0.732870 -0.062140
Si856 Si 1.410740 0.997350 0.183380
Si857 Si 1.027560 1.006170 0.302840
Si858 Si 0.851210 0.741540 0.049780
O859 O 1.014700 1.020700 0.019100
C860 C 1.309360 0.944580 0.094270
C861 C 1.262640 0.982580 0.011730
H862 H 1.259000 1.040400 -0.000800
C863 C 1.219790 0.918810 -0.047160
H864 H 1.182000 0.929100 -0.103400
C865 C 1.236560 0.837460 -0.004490
C866 C 1.293550 0.855660 0.082190
H867 H 1.319800 0.811500 0.126300
C868 C 0.956690 0.812000 0.119090
C869 C 1.068230 0.789210 0.161000
H870 H 1.104600 0.741200 0.147400
C871 C 1.110620 0.852740 0.221240
H872 H 1.182000 0.851400 0.256200
C873 C 1.028050 0.918560 0.220050
C874 C 0.934130 0.891260 0.156870
H875 H 0.866000 0.921400 0.142200
C876 C 1.175100 0.643620 -0.004440
H877 H 1.214300 0.640400 0.056700
H878 H 1.185200 0.589700 -0.034600
H879 H 1.094300 0.653800 -0.005000
C880 C 1.154100 0.741210 -0.175640
H881 H 1.076200 0.758600 -0.172800
H882 H 1.153600 0.685600 -0.205000
H883 H 1.189600 0.783800 -0.209000
C884 C 1.386600 0.708900 -0.065100
H885 H 1.415800 0.749100 -0.104700
H886 H 1.393600 0.650500 -0.086400
H887 H 1.430400 0.714400 -0.005600
C888 C 1.554800 0.968000 0.163400
H889 H 1.566100 0.989800 0.105700
H890 H 1.562800 0.905800 0.164300
H891 H 1.611600 0.993100 0.209500
C892 C 1.394600 0.957950 0.294610
H893 H 1.458100 0.978400 0.338100
H894 H 1.393800 0.895400 0.294500
H895 H 1.323400 0.979300 0.309900
C896 C 1.395800 1.115100 0.175390
H897 H 1.320400 1.131600 0.186200
H898 H 1.405700 1.133800 0.116300
H899 H 1.453400 1.142100 0.219500
C900 C 1.107700 0.967180 0.409960
H901 H 1.074400 0.913500 0.426200
H902 H 1.103900 1.010000 0.455900
H903 H 1.186900 0.957500 0.404000
C904 C 0.877800 1.027160 0.315410
H905 H 0.841700 0.973500 0.328200
H906 H 0.836900 1.051600 0.260600
H907 H 0.876100 1.067400 0.364000
C908 C 1.091400 1.108870 0.273600
H909 H 1.078100 1.153200 0.315700
H910 H 1.056500 1.126000 0.214000
H911 H 1.173000 1.101300 0.275700
C912 C 0.706590 0.769850 0.071220
H913 H 0.689700 0.829300 0.053900
H914 H 0.703600 0.762900 0.134100
H915 H 0.650700 0.732200 0.036800
C916 C 0.852900 0.752000 -0.070170
H917 H 0.922700 0.726800 -0.084200
H918 H 0.849600 0.812600 -0.086500
H919 H 0.787400 0.722200 -0.103200
C920 C 0.881200 0.629410 0.085770
H921 H 0.826500 0.591300 0.050800
H922 H 0.875100 0.623900 0.148300
H923 H 0.958000 0.614000 0.077200
Zr924 Zr 0.905269 1.079351 -0.069409
H925 H 0.865000 0.981000 -0.136000
Si926 Si 0.764620 1.267130 0.062140
Si927 Si 0.589260 1.002650 -0.183380
Si928 Si 0.972440 0.993830 -0.302840
Si929 Si 1.148790 1.258460 -0.049780
O930 O 0.985300 0.979300 -0.019100
C931 C 0.690640 1.055420 -0.094270
C932 C 0.737360 1.017420 -0.011730
H933 H 0.741000 0.959600 0.000800
C934 C 0.780210 1.081190 0.047160
H935 H 0.818000 1.070900 0.103400
C936 C 0.763440 1.162540 0.004490
C937 C 0.706450 1.144340 -0.082190
H938 H 0.680200 1.188500 -0.126300
C939 C 1.043310 1.188000 -0.119090
C940 C 0.931770 1.210790 -0.161000
H941 H 0.895400 1.258800 -0.147400
C942 C 0.889380 1.147260 -0.221240
H943 H 0.818000 1.148600 -0.256200
C944 C 0.971950 1.081440 -0.220050
C945 C 1.065870 1.108740 -0.156870
H946 H 1.134000 1.078600 -0.142200
C947 C 0.824900 1.356380 0.004440
H948 H 0.785700 1.359600 -0.056700
H949 H 0.814800 1.410300 0.034600
H950 H 0.905700 1.346200 0.005000
C951 C 0.845900 1.258790 0.175640
H952 H 0.923800 1.241400 0.172800
H953 H 0.846400 1.314400 0.205000
H954 H 0.810400 1.216200 0.209000
C955 C 0.613400 1.291100 0.065100
H956 H 0.584200 1.250900 0.104700
H957 H 0.606400 1.349500 0.086400
H958 H 0.569600 1.285600 0.005600
C959 C 0.445200 1.032000 -0.163400
H960 H 0.433900 1.010200 -0.105700
H961 H 0.437200 1.094200 -0.164300
H962 H 0.388400 1.006900 -0.209500
C963 C 0.605400 1.042050 -0.294610
H964 H 0.541900 1.021600 -0.338100
H965 H 0.606200 1.104600 -0.294500
H966 H 0.676600 1.020700 -0.309900
C967 C 0.604200 0.884900 -0.175390
H968 H 0.679600 0.868400 -0.186200
H969 H 0.594300 0.866200 -0.116300
H970 H 0.546600 0.857900 -0.219500
C971 C 0.892300 1.032820 -0.409960
H972 H 0.925600 1.086500 -0.426200
H973 H 0.896100 0.990000 -0.455900
H974 H 0.813100 1.042500 -0.404000
C975 C 1.122200 0.972840 -0.315410
H976 H 1.158300 1.026500 -0.328200
H977 H 1.163100 0.948400 -0.260600
H978 H 1.123900 0.932600 -0.364000
C979 C 0.908600 0.891130 -0.273600
H980 H 0.921900 0.846800 -0.315700
H981 H 0.943500 0.874000 -0.214000
H982 H 0.827000 0.898700 -0.275700
C983 C 1.293410 1.230150 -0.071220
H984 H 1.310300 1.170700 -0.053900
H985 H 1.296400 1.237100 -0.134100
H986 H 1.349300 1.267800 -0.036800
C987 C 1.147100 1.248000 0.070170
H988 H 1.077300 1.273200 0.084200
H989 H 1.150400 1.187400 0.086500
H990 H 1.212600 1.277800 0.103200
C991 C 1.118800 1.370590 -0.085770
H992 H 1.173500 1.408700 -0.050800
H993 H 1.124900 1.376100 -0.148300
H994 H 1.042000 1.386000 -0.077200
Zr995 Zr 1.094731 0.920649 1.069409
H996 H 1.135000 1.019000 1.136000
Si997 Si 1.235380 0.732870 0.937860
Si998 Si 1.410740 0.997350 1.183380
Si999 Si 1.027560 1.006170 1.302840
Si1000 Si 0.851210 0.741540 1.049780
O1001 O 1.014700 1.020700 1.019100
C1002 C 1.309360 0.944580 1.094270
C1003 C 1.262640 0.982580 1.011730
H1004 H 1.259000 1.040400 0.999200
C1005 C 1.219790 0.918810 0.952840
H1006 H 1.182000 0.929100 0.896600
C1007 C 1.236560 0.837460 0.995510
C1008 C 1.293550 0.855660 1.082190
H1009 H 1.319800 0.811500 1.126300
C1010 C 0.956690 0.812000 1.119090
C1011 C 1.068230 0.789210 1.161000
H1012 H 1.104600 0.741200 1.147400
C1013 C 1.110620 0.852740 1.221240
H1014 H 1.182000 0.851400 1.256200
C1015 C 1.028050 0.918560 1.220050
C1016 C 0.934130 0.891260 1.156870
H1017 H 0.866000 0.921400 1.142200
C1018 C 1.175100 0.643620 0.995560
H1019 H 1.214300 0.640400 1.056700
H1020 H 1.185200 0.589700 0.965400
H1021 H 1.094300 0.653800 0.995000
C1022 C 1.154100 0.741210 0.824360
H1023 H 1.076200 0.758600 0.827200
H1024 H 1.153600 0.685600 0.795000
H1025 H 1.189600 0.783800 0.791000
C1026 C 1.386600 0.708900 0.934900
H1027 H 1.415800 0.749100 0.895300
H1028 H 1.393600 0.650500 0.913600
H1029 H 1.430400 0.714400 0.994400
C1030 C 1.554800 0.968000 1.163400
H1031 H 1.566100 0.989800 1.105700
H1032 H 1.562800 0.905800 1.164300
H1033 H 1.611600 0.993100 1.209500
C1034 C 1.394600 0.957950 1.294610
H1035 H 1.458100 0.978400 1.338100
H1036 H 1.393800 0.895400 1.294500
H1037 H 1.323400 0.979300 1.309900
C1038 C 1.395800 1.115100 1.175390
H1039 H 1.320400 1.131600 1.186200
H1040 H 1.405700 1.133800 1.116300
H1041 H 1.453400 1.142100 1.219500
C1042 C 1.107700 0.967180 1.409960
H1043 H 1.074400 0.913500 1.426200
H1044 H 1.103900 1.010000 1.455900
H1045 H 1.186900 0.957500 1.404000
C1046 C 0.877800 1.027160 1.315410
H1047 H 0.841700 0.973500 1.328200
H1048 H 0.836900 1.051600 1.260600
H1049 H 0.876100 1.067400 1.364000
C1050 C 1.091400 1.108870 1.273600
H1051 H 1.078100 1.153200 1.315700
H1052 H 1.056500 1.126000 1.214000
H1053 H 1.173000 1.101300 1.275700
C1054 C 0.706590 0.769850 1.071220
H1055 H 0.689700 0.829300 1.053900
H1056 H 0.703600 0.762900 1.134100
H1057 H 0.650700 0.732200 1.036800
C1058 C 0.852900 0.752000 0.929830
H1059 H 0.922700 0.726800 0.915800
H1060 H 0.849600 0.812600 0.913500
H1061 H 0.787400 0.722200 0.896800
C1062 C 0.881200 0.629410 1.085770
H1063 H 0.826500 0.591300 1.050800
H1064 H 0.875100 0.623900 1.148300
H1065 H 0.958000 0.614000 1.077200
Zr1066 Zr 0.905269 1.079351 0.930591
H1067 H 0.865000 0.981000 0.864000
Si1068 Si 0.764620 1.267130 1.062140
Si1069 Si 0.589260 1.002650 0.816620
Si1070 Si 0.972440 0.993830 0.697160
Si1071 Si 1.148790 1.258460 0.950220
O1072 O 0.985300 0.979300 0.980900
C1073 C 0.690640 1.055420 0.905730
C1074 C 0.737360 1.017420 0.988270
H1075 H 0.741000 0.959600 1.000800
C1076 C 0.780210 1.081190 1.047160
H1077 H 0.818000 1.070900 1.103400
C1078 C 0.763440 1.162540 1.004490
C1079 C 0.706450 1.144340 0.917810
H1080 H 0.680200 1.188500 0.873700
C1081 C 1.043310 1.188000 0.880910
C1082 C 0.931770 1.210790 0.839000
H1083 H 0.895400 1.258800 0.852600
C1084 C 0.889380 1.147260 0.778760
H1085 H 0.818000 1.148600 0.743800
C1086 C 0.971950 1.081440 0.779950
C1087 C 1.065870 1.108740 0.843130
H1088 H 1.134000 1.078600 0.857800
C1089 C 0.824900 1.356380 1.004440
H1090 H 0.785700 1.359600 0.943300
H1091 H 0.814800 1.410300 1.034600
H1092 H 0.905700 1.346200 1.005000
C1093 C 0.845900 1.258790 1.175640
H1094 H 0.923800 1.241400 1.172800
H1095 H 0.846400 1.314400 1.205000
H1096 H 0.810400 1.216200 1.209000
C1097 C 0.613400 1.291100 1.065100
H1098 H 0.584200 1.250900 1.104700
H1099 H 0.606400 1.349500 1.086400
H1100 H 0.569600 1.285600 1.005600
C1101 C 0.445200 1.032000 0.836600
H1102 H 0.433900 1.010200 0.894300
H1103 H 0.437200 1.094200 0.835700
H1104 H 0.388400 1.006900 0.790500
C1105 C 0.605400 1.042050 0.705390
H1106 H 0.541900 1.021600 0.661900
H1107 H 0.606200 1.104600 0.705500
H1108 H 0.676600 1.020700 0.690100
C1109 C 0.604200 0.884900 0.824610
H1110 H 0.679600 0.868400 0.813800
H1111 H 0.594300 0.866200 0.883700
H1112 H 0.546600 0.857900 0.780500
C1113 C 0.892300 1.032820 0.590040
H1114 H 0.925600 1.086500 0.573800
H1115 H 0.896100 0.990000 0.544100
H1116 H 0.813100 1.042500 0.596000
C1117 C 1.122200 0.972840 0.684590
H1118 H 1.158300 1.026500 0.671800
H1119 H 1.163100 0.948400 0.739400
H1120 H 1.123900 0.932600 0.636000
C1121 C 0.908600 0.891130 0.726400
H1122 H 0.921900 0.846800 0.684300
H1123 H 0.943500 0.874000 0.786000
H1124 H 0.827000 0.898700 0.724300
C1125 C 1.293410 1.230150 0.928780
H1126 H 1.310300 1.170700 0.946100
H1127 H 1.296400 1.237100 0.865900
H1128 H 1.349300 1.267800 0.963200
C1129 C 1.147100 1.248000 1.070170
H1130 H 1.077300 1.273200 1.084200
H1131 H 1.150400 1.187400 1.086500
H1132 H 1.212600 1.277800 1.103200
C1133 C 1.118800 1.370590 0.914230
H1134 H 1.173500 1.408700 0.949200
H1135 H 1.124900 1.376100 0.851700
H1136 H 1.042000 1.386000 0.922800
Zr1137 Zr 0.405269 0.420649 0.430591
H1138 H 0.365000 0.519000 0.364000
Si1139 Si 0.264620 0.232870 0.562140
Si1140 Si 0.089260 0.497350 0.316620
Si1141 Si 0.472440 0.506170 0.197160
Si1142 Si 0.648790 0.241540 0.450220
O1143 O 0.485300 0.520700 0.480900
C1144 C 0.190640 0.444580 0.405730
C1145 C 0.237360 0.482580 0.488270
H1146 H 0.241000 0.540400 0.500800
C1147 C 0.280210 0.418810 0.547160
H1148 H 0.318000 0.429100 0.603400
C1149 C 0.263440 0.337460 0.504490
C1150 C 0.206450 0.355660 0.417810
H1151 H 0.180200 0.311500 0.373700
C1152 C 0.543310 0.312000 0.380910
C1153 C 0.431770 0.289210 0.339000
H1154 H 0.395400 0.241200 0.352600
C1155 C 0.389380 0.352740 0.278760
H1156 H 0.318000 0.351400 0.243800
C1157 C 0.471950 0.418560 0.279950
C1158 C 0.565870 0.391260 0.343130
H1159 H 0.634000 0.421400 0.357800
C1160 C 0.324900 0.143620 0.504440
H1161 H 0.285700 0.140400 0.443300
H1162 H 0.314800 0.089700 0.534600
H1163 H 0.405700 0.153800 0.505000
C1164 C 0.345900 0.241210 0.675640
H1165 H 0.423800 0.258600 0.672800
H1166 H 0.346400 0.185600 0.705000
H1167 H 0.310400 0.283800 0.709000
C1168 C 0.113400 0.208900 0.565100
H1169 H 0.084200 0.249100 0.604700
H1170 H 0.106400 0.150500 0.586400
H1171 H 0.069600 0.214400 0.505600
C1172 C -0.054800 0.468000 0.336600
H1173 H -0.066100 0.489800 0.394300
H1174 H -0.062800 0.405800 0.335700
H1175 H -0.111600 0.493100 0.290500
C1176 C 0.105400 0.457950 0.205390
H1177 H 0.041900 0.478400 0.161900
H1178 H 0.106200 0.395400 0.205500
H1179 H 0.176600 0.479300 0.190100
C1180 C 0.104200 0.615100 0.324610
H1181 H 0.179600 0.631600 0.313800
H1182 H 0.094300 0.633800 0.383700
H1183 H 0.046600 0.642100 0.280500
C1184 C 0.392300 0.467180 0.090040
H1185 H 0.425600 0.413500 0.073800
H1186 H 0.396100 0.510000 0.044100
H1187 H 0.313100 0.457500 0.096000
C1188 C 0.622200 0.527160 0.184590
H1189 H 0.658300 0.473500 0.171800
H1190 H 0.663100 0.551600 0.239400
H1191 H 0.623900 0.567400 0.136000
C1192 C 0.408600 0.608870 0.226400
H1193 H 0.421900 0.653200 0.184300
H1194 H 0.443500 0.626000 0.286000
H1195 H 0.327000 0.601300 0.224300
C1196 C 0.793410 0.269850 0.428780
H1197 H 0.810300 0.329300 0.446100
H1198 H 0.796400 0.262900 0.365900
H1199 H 0.849300 0.232200 0.463200
C1200 C 0.647100 0.252000 0.570170
H1201 H 0.577300 0.226800 0.584200
H1202 H 0.650400 0.312600 0.586500
H1203 H 0.712600 0.222200 0.603200
C1204 C 0.618800 0.129410 0.414230
H1205 H 0.673500 0.091300 0.449200
H1206 H 0.624900 0.123900 0.351700
H1207 H 0.542000 0.114000 0.422800
Zr1208 Zr 0.594731 0.579351 0.569409
H1209 H 0.635000 0.481000 0.636000
Si1210 Si 0.735380 0.767130 0.437860
Si1211 Si 0.910740 0.502650 0.683380
Si1212 Si 0.527560 0.493830 0.802840
Si1213 Si 0.351210 0.758460 0.549780
O1214 O 0.514700 0.479300 0.519100
C1215 C 0.809360 0.555420 0.594270
C1216 C 0.762640 0.517420 0.511730
H1217 H 0.759000 0.459600 0.499200
C1218 C 0.719790 0.581190 0.452840
H1219 H 0.682000 0.570900 0.396600
C1220 C 0.736560 0.662540 0.495510
C1221 C 0.793550 0.644340 0.582190
H1222 H 0.819800 0.688500 0.626300
C1223 C 0.456690 0.688000 0.619090
C1224 C 0.568230 0.710790 0.661000
H1225 H 0.604600 0.758800 0.647400
C1226 C 0.610620 0.647260 0.721240
H1227 H 0.682000 0.648600 0.756200
C1228 C 0.528050 0.581440 0.720050
C1229 C 0.434130 0.608740 0.656870
H1230 H 0.366000 0.578600 0.642200
C1231 C 0.675100 0.856380 0.495560
H1232 H 0.714300 0.859600 0.556700
H1233 H 0.685200 0.910300 0.465400
H1234 H 0.594300 0.846200 0.495000
C1235 C 0.654100 0.758790 0.324360
H1236 H 0.576200 0.741400 0.327200
H1237 H 0.653600 0.814400 0.295000
H1238 H 0.689600 0.716200 0.291000
C1239 C 0.886600 0.791100 0.434900
H1240 H 0.915800 0.750900 0.395300
H1241 H 0.893600 0.849500 0.413600
H1242 H 0.930400 0.785600 0.494400
C1243 C 1.054800 0.532000 0.663400
H1244 H 1.066100 0.510200 0.605700
H1245 H 1.062800 0.594200 0.664300
H1246 H 1.111600 0.506900 0.709500
C1247 C 0.894600 0.542050 0.794610
H1248 H 0.958100 0.521600 0.838100
H1249 H 0.893800 0.604600 0.794500
H1250 H 0.823400 0.520700 0.809900
C1251 C 0.895800 0.384900 0.675390
H1252 H 0.820400 0.368400 0.686200
H1253 H 0.905700 0.366200 0.616300
H1254 H 0.953400 0.357900 0.719500
C1255 C 0.607700 0.532820 0.909960
H1256 H 0.574400 0.586500 0.926200
H1257 H 0.603900 0.490000 0.955900
H1258 H 0.686900 0.542500 0.904000
C1259 C 0.377800 0.472840 0.815410
H1260 H 0.341700 0.526500 0.828200
H1261 H 0.336900 0.448400 0.760600
H1262 H 0.376100 0.432600 0.864000
C1263 C 0.591400 0.391130 0.773600
H1264 H 0.578100 0.346800 0.815700
H1265 H 0.556500 0.374000 0.714000
H1266 H 0.673000 0.398700 0.775700
C1267 C 0.206590 0.730150 0.571220
H1268 H 0.189700 0.670700 0.553900
H1269 H 0.203600 0.737100 0.634100
H1270 H 0.150700 0.767800 0.536800
C1271 C 0.352900 0.748000 0.429830
H1272 H 0.422700 0.773200 0.415800
H1273 H 0.349600 0.687400 0.413500
H1274 H 0.287400 0.777800 0.396800
C1275 C 0.381200 0.870590 0.585770
H1276 H 0.326500 0.908700 0.550800
H1277 H 0.375100 0.876100 0.648300
H1278 H 0.458000 0.886000 0.577200
H1279 H 0.031000 0.852000 0.973000
H1280 H 0.469000 0.352000 0.527000
H1281 H 0.969000 0.148000 0.027000
H1282 H 0.531000 0.648000 0.473000

#END
