./ACOBEZ_from_xyz.cif_generated_by_CrystalShift
_symmetry_cell_setting triclinic
_symmetry_space_group_name_H-M 'P 1'
loop_
_symmetry_equiv_pos_site_id
_symmetry_equiv_pos_as_xyz
1 x,y,z
_cell_length_a 17.149000
_cell_length_b 13.124000
_cell_length_c 13.777000
_cell_angle_alpha 90.000000
_cell_angle_beta 108.798000
_cell_angle_gamma 90.000000
_cell_volume 2935.309813
loop_
_atom_site_label
_atom_site_type_symbol
_atom_site_fract_x
_atom_site_fract_y
_atom_site_fract_z
Ga1 Ga 0.787957 0.114043 1.025475
Cl2 Cl 0.876350 0.019530 1.138050
Cl3 Cl 0.712790 0.195420 1.098310
N4 N 0.846540 0.200160 0.959260
N5 N 0.723500 0.035370 0.911560
C6 C 0.853750 0.169260 0.870730
C7 C 0.815350 0.081410 0.818080
H8 H 0.835440 0.058680 0.765100
C9 C 0.752200 0.023040 0.832410
C10 C 0.904220 0.230260 0.820300
H11 H 0.871300 0.244500 0.749000
H12 H 0.953400 0.191400 0.821700
H13 H 0.920900 0.294600 0.857300
C14 C 0.713900 -0.058330 0.753750
H15 H 0.742800 -0.060900 0.702900
H16 H 0.655700 -0.042200 0.719400
H17 H 0.718400 -0.124600 0.787900
C18 C 0.885410 0.293030 1.009520
C19 C 0.838580 0.382390 0.999250
C20 C 0.877630 0.469530 1.050100
H21 H 0.846940 0.530790 1.044200
C22 C 0.959370 0.468960 1.108500
H23 H 0.984640 0.529360 1.142300
C24 C 1.004550 0.380850 1.118120
H25 H 1.061080 0.381300 1.158600
C26 C 0.969400 0.290890 1.069880
C27 C 0.749350 0.390120 0.930900
H28 H 0.728610 0.319730 0.909400
C29 C 0.744500 0.451300 0.834700
H30 H 0.687400 0.452600 0.788700
H31 H 0.779600 0.419300 0.799500
H32 H 0.763400 0.521100 0.854100
C33 C 0.693280 0.439200 0.985100
H34 H 0.636000 0.436800 0.939800
H35 H 0.709800 0.510300 1.001600
H36 H 0.698300 0.401800 1.048400
C37 C 1.023120 0.196560 1.084840
H38 H 0.988580 0.139000 1.046380
C39 C 1.056890 0.167000 1.198800
H40 H 1.094000 0.220600 1.237000
H41 H 1.087200 0.102600 1.205900
H42 H 1.011040 0.159000 1.226000
C43 C 1.095500 0.211800 1.043700
H44 H 1.127700 0.148800 1.052700
H45 H 1.130700 0.267200 1.081600
H46 H 1.074350 0.229300 0.970700
C47 C 0.642450 -0.002800 0.905100
C48 C 0.573580 0.053630 0.847300
C49 C 0.495800 0.017300 0.841900
H50 H 0.448160 0.053300 0.802200
C51 C 0.486740 -0.069710 0.893120
H52 H 0.433280 -0.092820 0.889070
C53 C 0.554930 -0.122890 0.949910
H54 H 0.547930 -0.182500 0.985330
C55 C 0.634430 -0.091730 0.957050
C56 C 0.579840 0.151500 0.791100
H57 H 0.639610 0.168400 0.808100
C58 C 0.538500 0.240200 0.826300
H59 H 0.547900 0.303000 0.793200
H60 H 0.561800 0.247400 0.900900
H61 H 0.479200 0.227200 0.807300
C62 C 0.544200 0.137900 0.674800
H63 H 0.554300 0.199700 0.640700
H64 H 0.484800 0.125700 0.655400
H65 H 0.570800 0.079700 0.653800
C66 C 0.707620 -0.154840 1.019500
H67 H 0.758700 -0.122370 1.013700
C68 C 0.713690 -0.154900 1.133100
H69 H 0.764900 -0.188500 1.173500
H70 H 0.666600 -0.191800 1.141500
H71 H 0.713400 -0.084600 1.156800
C72 C 0.703370 -0.263400 0.978600
H73 H 0.753000 -0.300700 1.017900
H74 H 0.699700 -0.261700 0.906200
H75 H 0.654700 -0.297700 0.985600
Ga76 Ga 0.787957 0.385957 0.525475
Cl77 Cl 0.876350 0.480470 0.638050
Cl78 Cl 0.712790 0.304580 0.598310
N79 N 0.846540 0.299840 0.459260
N80 N 0.723500 0.464630 0.411560
C81 C 0.853750 0.330740 0.370730
C82 C 0.815350 0.418590 0.318080
H83 H 0.835440 0.441320 0.265100
C84 C 0.752200 0.476960 0.332410
C85 C 0.904220 0.269740 0.320300
H86 H 0.871300 0.255500 0.249000
H87 H 0.953400 0.308600 0.321700
H88 H 0.920900 0.205400 0.357300
C89 C 0.713900 0.558330 0.253750
H90 H 0.742800 0.560900 0.202900
H91 H 0.655700 0.542200 0.219400
H92 H 0.718400 0.624600 0.287900
C93 C 0.885410 0.206970 0.509520
C94 C 0.838580 0.117610 0.499250
C95 C 0.877630 0.030470 0.550100
H96 H 0.846940 -0.030790 0.544200
C97 C 0.959370 0.031040 0.608500
H98 H 0.984640 -0.029360 0.642300
C99 C 1.004550 0.119150 0.618120
H100 H 1.061080 0.118700 0.658600
C101 C 0.969400 0.209110 0.569880
C102 C 0.749350 0.109880 0.430900
H103 H 0.728610 0.180270 0.409400
C104 C 0.744500 0.048700 0.334700
H105 H 0.687400 0.047400 0.288700
H106 H 0.779600 0.080700 0.299500
H107 H 0.763400 -0.021100 0.354100
C108 C 0.693280 0.060800 0.485100
H109 H 0.636000 0.063200 0.439800
H110 H 0.709800 -0.010300 0.501600
H111 H 0.698300 0.098200 0.548400
C112 C 1.023120 0.303440 0.584840
H113 H 0.988580 0.361000 0.546380
C114 C 1.056890 0.333000 0.698800
H115 H 1.094000 0.279400 0.737000
H116 H 1.087200 0.397400 0.705900
H117 H 1.011040 0.341000 0.726000
C118 C 1.095500 0.288200 0.543700
H119 H 1.127700 0.351200 0.552700
H120 H 1.130700 0.232800 0.581600
H121 H 1.074350 0.270700 0.470700
C122 C 0.642450 0.502800 0.405100
C123 C 0.573580 0.446370 0.347300
C124 C 0.495800 0.482700 0.341900
H125 H 0.448160 0.446700 0.302200
C126 C 0.486740 0.569710 0.393120
H127 H 0.433280 0.592820 0.389070
C128 C 0.554930 0.622890 0.449910
H129 H 0.547930 0.682500 0.485330
C130 C 0.634430 0.591730 0.457050
C131 C 0.579840 0.348500 0.291100
H132 H 0.639610 0.331600 0.308100
C133 C 0.538500 0.259800 0.326300
H134 H 0.547900 0.197000 0.293200
H135 H 0.561800 0.252600 0.400900
H136 H 0.479200 0.272800 0.307300
C137 C 0.544200 0.362100 0.174800
H138 H 0.554300 0.300300 0.140700
H139 H 0.484800 0.374300 0.155400
H140 H 0.570800 0.420300 0.153800
C141 C 0.707620 0.654840 0.519500
H142 H 0.758700 0.622370 0.513700
C143 C 0.713690 0.654900 0.633100
H144 H 0.764900 0.688500 0.673500
H145 H 0.666600 0.691800 0.641500
H146 H 0.713400 0.584600 0.656800
C147 C 0.703370 0.763400 0.478600
H148 H 0.753000 0.800700 0.517900
H149 H 0.699700 0.761700 0.406200
H150 H 0.654700 0.797700 0.485600
Ga151 Ga 0.212043 0.885957 -0.025475
Cl152 Cl 0.123650 0.980470 -0.138050
Cl153 Cl 0.287210 0.804580 -0.098310
N154 N 0.153460 0.799840 0.040740
N155 N 0.276500 0.964630 0.088440
C156 C 0.146250 0.830740 0.129270
C157 C 0.184650 0.918590 0.181920
H158 H 0.164560 0.941320 0.234900
C159 C 0.247800 0.976960 0.167590
C160 C 0.095780 0.769740 0.179700
H161 H 0.128700 0.755500 0.251000
H162 H 0.046600 0.808600 0.178300
H163 H 0.079100 0.705400 0.142700
C164 C 0.286100 1.058330 0.246250
H165 H 0.257200 1.060900 0.297100
H166 H 0.344300 1.042200 0.280600
H167 H 0.281600 1.124600 0.212100
C168 C 0.114590 0.706970 -0.009520
C169 C 0.161420 0.617610 0.000750
C170 C 0.122370 0.530470 -0.050100
H171 H 0.153060 0.469210 -0.044200
C172 C 0.040630 0.531040 -0.108500
H173 H 0.015360 0.470640 -0.142300
C174 C -0.004550 0.619150 -0.118120
H175 H -0.061080 0.618700 -0.158600
C176 C 0.030600 0.709110 -0.069880
C177 C 0.250650 0.609880 0.069100
H178 H 0.271390 0.680270 0.090600
C179 C 0.255500 0.548700 0.165300
H180 H 0.312600 0.547400 0.211300
H181 H 0.220400 0.580700 0.200500
H182 H 0.236600 0.478900 0.145900
C183 C 0.306720 0.560800 0.014900
H184 H 0.364000 0.563200 0.060200
H185 H 0.290200 0.489700 -0.001600
H186 H 0.301700 0.598200 -0.048400
C187 C -0.023120 0.803440 -0.084840
H188 H 0.011420 0.861000 -0.046380
C189 C -0.056890 0.833000 -0.198800
H190 H -0.094000 0.779400 -0.237000
H191 H -0.087200 0.897400 -0.205900
H192 H -0.011040 0.841000 -0.226000
C193 C -0.095500 0.788200 -0.043700
H194 H -0.127700 0.851200 -0.052700
H195 H -0.130700 0.732800 -0.081600
H196 H -0.074350 0.770700 0.029300
C197 C 0.357550 1.002800 0.094900
C198 C 0.426420 0.946370 0.152700
C199 C 0.504200 0.982700 0.158100
H200 H 0.551840 0.946700 0.197800
C201 C 0.513260 1.069710 0.106880
H202 H 0.566720 1.092820 0.110930
C203 C 0.445070 1.122890 0.050090
H204 H 0.452070 1.182500 0.014670
C205 C 0.365570 1.091730 0.042950
C206 C 0.420160 0.848500 0.208900
H207 H 0.360390 0.831600 0.191900
C208 C 0.461500 0.759800 0.173700
H209 H 0.452100 0.697000 0.206800
H210 H 0.438200 0.752600 0.099100
H211 H 0.520800 0.772800 0.192700
C212 C 0.455800 0.862100 0.325200
H213 H 0.445700 0.800300 0.359300
H214 H 0.515200 0.874300 0.344600
H215 H 0.429200 0.920300 0.346200
C216 C 0.292380 1.154840 -0.019500
H217 H 0.241300 1.122370 -0.013700
C218 C 0.286310 1.154900 -0.133100
H219 H 0.235100 1.188500 -0.173500
H220 H 0.333400 1.191800 -0.141500
H221 H 0.286600 1.084600 -0.156800
C222 C 0.296630 1.263400 0.021400
H223 H 0.247000 1.300700 -0.017900
H224 H 0.300300 1.261700 0.093800
H225 H 0.345300 1.297700 0.014400
Ga226 Ga 0.212043 0.614043 0.474525
Cl227 Cl 0.123650 0.519530 0.361950
Cl228 Cl 0.287210 0.695420 0.401690
N229 N 0.153460 0.700160 0.540740
N230 N 0.276500 0.535370 0.588440
C231 C 0.146250 0.669260 0.629270
C232 C 0.184650 0.581410 0.681920
H233 H 0.164560 0.558680 0.734900
C234 C 0.247800 0.523040 0.667590
C235 C 0.095780 0.730260 0.679700
H236 H 0.128700 0.744500 0.751000
H237 H 0.046600 0.691400 0.678300
H238 H 0.079100 0.794600 0.642700
C239 C 0.286100 0.441670 0.746250
H240 H 0.257200 0.439100 0.797100
H241 H 0.344300 0.457800 0.780600
H242 H 0.281600 0.375400 0.712100
C243 C 0.114590 0.793030 0.490480
C244 C 0.161420 0.882390 0.500750
C245 C 0.122370 0.969530 0.449900
H246 H 0.153060 1.030790 0.455800
C247 C 0.040630 0.968960 0.391500
H248 H 0.015360 1.029360 0.357700
C249 C -0.004550 0.880850 0.381880
H250 H -0.061080 0.881300 0.341400
C251 C 0.030600 0.790890 0.430120
C252 C 0.250650 0.890120 0.569100
H253 H 0.271390 0.819730 0.590600
C254 C 0.255500 0.951300 0.665300
H255 H 0.312600 0.952600 0.711300
H256 H 0.220400 0.919300 0.700500
H257 H 0.236600 1.021100 0.645900
C258 C 0.306720 0.939200 0.514900
H259 H 0.364000 0.936800 0.560200
H260 H 0.290200 1.010300 0.498400
H261 H 0.301700 0.901800 0.451600
C262 C -0.023120 0.696560 0.415160
H263 H 0.011420 0.639000 0.453620
C264 C -0.056890 0.667000 0.301200
H265 H -0.094000 0.720600 0.263000
H266 H -0.087200 0.602600 0.294100
H267 H -0.011040 0.659000 0.274000
C268 C -0.095500 0.711800 0.456300
H269 H -0.127700 0.648800 0.447300
H270 H -0.130700 0.767200 0.418400
H271 H -0.074350 0.729300 0.529300
C272 C 0.357550 0.497200 0.594900
C273 C 0.426420 0.553630 0.652700
C274 C 0.504200 0.517300 0.658100
H275 H 0.551840 0.553300 0.697800
C276 C 0.513260 0.430290 0.606880
H277 H 0.566720 0.407180 0.610930
C278 C 0.445070 0.377110 0.550090
H279 H 0.452070 0.317500 0.514670
C280 C 0.365570 0.408270 0.542950
C281 C 0.420160 0.651500 0.708900
H282 H 0.360390 0.668400 0.691900
C283 C 0.461500 0.740200 0.673700
H284 H 0.452100 0.803000 0.706800
H285 H 0.438200 0.747400 0.599100
H286 H 0.520800 0.727200 0.692700
C287 C 0.455800 0.637900 0.825200
H288 H 0.445700 0.699700 0.859300
H289 H 0.515200 0.625700 0.844600
H290 H 0.429200 0.579700 0.846200
C291 C 0.292380 0.345160 0.480500
H292 H 0.241300 0.377630 0.486300
C293 C 0.286310 0.345100 0.366900
H294 H 0.235100 0.311500 0.326500
H295 H 0.333400 0.308200 0.358500
H296 H 0.286600 0.415400 0.343200
C297 C 0.296630 0.236600 0.521400
H298 H 0.247000 0.199300 0.482100
H299 H 0.300300 0.238300 0.593800
H300 H 0.345300 0.202300 0.514400

#END
