./ACOBOK_from_xyz.cif_generated_by_CrystalShift
_symmetry_cell_setting triclinic
_symmetry_space_group_name_H-M 'P 1'
loop_
_symmetry_equiv_pos_site_id
_symmetry_equiv_pos_as_xyz
1 x,y,z
_cell_length_a 11.991600
_cell_length_b 15.663300
_cell_length_c 15.389800
_cell_angle_alpha 90.000000
_cell_angle_beta 99.528000
_cell_angle_gamma 90.000000
_cell_volume 2850.758960
loop_
_atom_site_label
_atom_site_type_symbol
_atom_site_fract_x
_atom_site_fract_y
_atom_site_fract_z
Zr1 Zr 0.094378 0.078927 0.569362
H2 H 0.029000 0.148000 0.465000
Si3 Si 0.234960 0.267400 0.438050
Si4 Si 0.410590 0.002300 0.683220
Si5 Si 0.027700 -0.006600 0.803130
Si6 Si -0.149130 0.258570 0.550130
O7 O 0.014700 -0.021210 0.518830
C8 C 0.236100 0.162480 0.495440
C9 C 0.219390 0.081290 0.452770
H10 H 0.183500 0.070800 0.395900
C11 C 0.262400 0.017390 0.511530
H12 H 0.257700 -0.043200 0.499800
C13 C 0.309030 0.055010 0.594040
C14 C 0.293070 0.144290 0.581970
H15 H 0.318600 0.188400 0.625700
C16 C 0.027780 0.081130 0.720240
C17 C 0.110540 0.146970 0.721160
H18 H 0.183200 0.146500 0.756700
C19 C 0.068100 0.210620 0.661010
H20 H 0.104100 0.261000 0.648100
C21 C -0.043370 0.187800 0.619140
C22 C -0.065880 0.108430 0.657180
H23 H -0.135100 0.078900 0.641600
C24 C 0.386400 0.291400 0.434700
H25 H 0.428900 0.292200 0.494800
H26 H 0.392400 0.347200 0.407100
H27 H 0.417500 0.247300 0.400300
C28 C 0.153900 0.258950 0.324540
H29 H 0.147200 0.315600 0.297100
H30 H 0.078300 0.236300 0.327000
H31 H 0.193500 0.220500 0.289700
C32 C 0.174700 0.356180 0.495720
H33 H 0.186000 0.405900 0.469000
H34 H 0.095000 0.348000 0.494000
H35 H 0.206000 0.363000 0.550000
C36 C 0.554800 0.031800 0.663050
H37 H 0.611000 0.008000 0.710000
H38 H 0.564000 0.090000 0.660000
H39 H 0.563000 0.009000 0.608000
C40 C 0.394300 0.041550 0.794330
H41 H 0.327000 0.023100 0.808000
H42 H 0.454000 0.022200 0.837500
H43 H 0.393000 0.098300 0.792600
C44 C 0.395400 -0.115750 0.675150
H45 H 0.413000 -0.135000 0.619000
H46 H 0.452000 -0.143300 0.714900
H47 H 0.320000 -0.136700 0.685000
C48 C 0.091400 -0.109320 0.774100
H49 H 0.167000 -0.103300 0.776200
H50 H 0.085000 -0.153000 0.818000
H51 H 0.063000 -0.124000 0.720000
C52 C 0.107850 0.032400 0.910020
H53 H 0.080000 0.082600 0.926500
H54 H 0.107000 -0.006400 0.955800
H55 H 0.187000 0.043100 0.906800
C56 C -0.122000 -0.027850 0.815630
H57 H -0.158000 0.019600 0.826100
H58 H -0.168000 -0.049000 0.762000
H59 H -0.123000 -0.062000 0.858000
C60 C -0.147300 0.248530 0.429820
H61 H -0.210300 0.281100 0.397000
H62 H -0.154900 0.188300 0.412700
H63 H -0.075700 0.270900 0.416500
C64 C -0.293480 0.230180 0.571280
H65 H -0.299000 0.241700 0.628300
H66 H -0.315000 0.174600 0.554600
H67 H -0.345000 0.265000 0.539000
C68 C -0.119100 0.370810 0.586350
H69 H -0.172000 0.408000 0.550000
H70 H -0.047000 0.388300 0.576400
H71 H -0.128000 0.377600 0.644000
Zr72 Zr -0.094378 -0.078927 0.430638
H73 H -0.029000 -0.148000 0.535000
Si74 Si -0.234960 -0.267400 0.561950
Si75 Si -0.410590 -0.002300 0.316780
Si76 Si -0.027700 0.006600 0.196870
Si77 Si 0.149130 -0.258570 0.449870
O78 O -0.014700 0.021210 0.481170
C79 C -0.236100 -0.162480 0.504560
C80 C -0.219390 -0.081290 0.547230
H81 H -0.183500 -0.070800 0.604100
C82 C -0.262400 -0.017390 0.488470
H83 H -0.257700 0.043200 0.500200
C84 C -0.309030 -0.055010 0.405960
C85 C -0.293070 -0.144290 0.418030
H86 H -0.318600 -0.188400 0.374300
C87 C -0.027780 -0.081130 0.279760
C88 C -0.110540 -0.146970 0.278840
H89 H -0.183200 -0.146500 0.243300
C90 C -0.068100 -0.210620 0.338990
H91 H -0.104100 -0.261000 0.351900
C92 C 0.043370 -0.187800 0.380860
C93 C 0.065880 -0.108430 0.342820
H94 H 0.135100 -0.078900 0.358400
C95 C -0.386400 -0.291400 0.565300
H96 H -0.428900 -0.292200 0.505200
H97 H -0.392400 -0.347200 0.592900
H98 H -0.417500 -0.247300 0.599700
C99 C -0.153900 -0.258950 0.675460
H100 H -0.147200 -0.315600 0.702900
H101 H -0.078300 -0.236300 0.673000
H102 H -0.193500 -0.220500 0.710300
C103 C -0.174700 -0.356180 0.504280
H104 H -0.186000 -0.405900 0.531000
H105 H -0.095000 -0.348000 0.506000
H106 H -0.206000 -0.363000 0.450000
C107 C -0.554800 -0.031800 0.336950
H108 H -0.611000 -0.008000 0.290000
H109 H -0.564000 -0.090000 0.340000
H110 H -0.563000 -0.009000 0.392000
C111 C -0.394300 -0.041550 0.205670
H112 H -0.327000 -0.023100 0.192000
H113 H -0.454000 -0.022200 0.162500
H114 H -0.393000 -0.098300 0.207400
C115 C -0.395400 0.115750 0.324850
H116 H -0.413000 0.135000 0.381000
H117 H -0.452000 0.143300 0.285100
H118 H -0.320000 0.136700 0.315000
C119 C -0.091400 0.109320 0.225900
H120 H -0.167000 0.103300 0.223800
H121 H -0.085000 0.153000 0.182000
H122 H -0.063000 0.124000 0.280000
C123 C -0.107850 -0.032400 0.089980
H124 H -0.080000 -0.082600 0.073500
H125 H -0.107000 0.006400 0.044200
H126 H -0.187000 -0.043100 0.093200
C127 C 0.122000 0.027850 0.184370
H128 H 0.158000 -0.019600 0.173900
H129 H 0.168000 0.049000 0.238000
H130 H 0.123000 0.062000 0.142000
C131 C 0.147300 -0.248530 0.570180
H132 H 0.210300 -0.281100 0.603000
H133 H 0.154900 -0.188300 0.587300
H134 H 0.075700 -0.270900 0.583500
C135 C 0.293480 -0.230180 0.428720
H136 H 0.299000 -0.241700 0.371700
H137 H 0.315000 -0.174600 0.445400
H138 H 0.345000 -0.265000 0.461000
C139 C 0.119100 -0.370810 0.413650
H140 H 0.172000 -0.408000 0.450000
H141 H 0.047000 -0.388300 0.423600
H142 H 0.128000 -0.377600 0.356000
Zr143 Zr 0.094378 1.078927 0.569362
H144 H 0.029000 1.148000 0.465000
Si145 Si 0.234960 1.267400 0.438050
Si146 Si 0.410590 1.002300 0.683220
Si147 Si 0.027700 0.993400 0.803130
Si148 Si -0.149130 1.258570 0.550130
O149 O 0.014700 0.978790 0.518830
C150 C 0.236100 1.162480 0.495440
C151 C 0.219390 1.081290 0.452770
H152 H 0.183500 1.070800 0.395900
C153 C 0.262400 1.017390 0.511530
H154 H 0.257700 0.956800 0.499800
C155 C 0.309030 1.055010 0.594040
C156 C 0.293070 1.144290 0.581970
H157 H 0.318600 1.188400 0.625700
C158 C 0.027780 1.081130 0.720240
C159 C 0.110540 1.146970 0.721160
H160 H 0.183200 1.146500 0.756700
C161 C 0.068100 1.210620 0.661010
H162 H 0.104100 1.261000 0.648100
C163 C -0.043370 1.187800 0.619140
C164 C -0.065880 1.108430 0.657180
H165 H -0.135100 1.078900 0.641600
C166 C 0.386400 1.291400 0.434700
H167 H 0.428900 1.292200 0.494800
H168 H 0.392400 1.347200 0.407100
H169 H 0.417500 1.247300 0.400300
C170 C 0.153900 1.258950 0.324540
H171 H 0.147200 1.315600 0.297100
H172 H 0.078300 1.236300 0.327000
H173 H 0.193500 1.220500 0.289700
C174 C 0.174700 1.356180 0.495720
H175 H 0.186000 1.405900 0.469000
H176 H 0.095000 1.348000 0.494000
H177 H 0.206000 1.363000 0.550000
C178 C 0.554800 1.031800 0.663050
H179 H 0.611000 1.008000 0.710000
H180 H 0.564000 1.090000 0.660000
H181 H 0.563000 1.009000 0.608000
C182 C 0.394300 1.041550 0.794330
H183 H 0.327000 1.023100 0.808000
H184 H 0.454000 1.022200 0.837500
H185 H 0.393000 1.098300 0.792600
C186 C 0.395400 0.884250 0.675150
H187 H 0.413000 0.865000 0.619000
H188 H 0.452000 0.856700 0.714900
H189 H 0.320000 0.863300 0.685000
C190 C 0.091400 0.890680 0.774100
H191 H 0.167000 0.896700 0.776200
H192 H 0.085000 0.847000 0.818000
H193 H 0.063000 0.876000 0.720000
C194 C 0.107850 1.032400 0.910020
H195 H 0.080000 1.082600 0.926500
H196 H 0.107000 0.993600 0.955800
H197 H 0.187000 1.043100 0.906800
C198 C -0.122000 0.972150 0.815630
H199 H -0.158000 1.019600 0.826100
H200 H -0.168000 0.951000 0.762000
H201 H -0.123000 0.938000 0.858000
C202 C -0.147300 1.248530 0.429820
H203 H -0.210300 1.281100 0.397000
H204 H -0.154900 1.188300 0.412700
H205 H -0.075700 1.270900 0.416500
C206 C -0.293480 1.230180 0.571280
H207 H -0.299000 1.241700 0.628300
H208 H -0.315000 1.174600 0.554600
H209 H -0.345000 1.265000 0.539000
C210 C -0.119100 1.370810 0.586350
H211 H -0.172000 1.408000 0.550000
H212 H -0.047000 1.388300 0.576400
H213 H -0.128000 1.377600 0.644000
Zr214 Zr -0.094378 0.921073 0.430638
H215 H -0.029000 0.852000 0.535000
Si216 Si -0.234960 0.732600 0.561950
Si217 Si -0.410590 0.997700 0.316780
Si218 Si -0.027700 1.006600 0.196870
Si219 Si 0.149130 0.741430 0.449870
O220 O -0.014700 1.021210 0.481170
C221 C -0.236100 0.837520 0.504560
C222 C -0.219390 0.918710 0.547230
H223 H -0.183500 0.929200 0.604100
C224 C -0.262400 0.982610 0.488470
H225 H -0.257700 1.043200 0.500200
C226 C -0.309030 0.944990 0.405960
C227 C -0.293070 0.855710 0.418030
H228 H -0.318600 0.811600 0.374300
C229 C -0.027780 0.918870 0.279760
C230 C -0.110540 0.853030 0.278840
H231 H -0.183200 0.853500 0.243300
C232 C -0.068100 0.789380 0.338990
H233 H -0.104100 0.739000 0.351900
C234 C 0.043370 0.812200 0.380860
C235 C 0.065880 0.891570 0.342820
H236 H 0.135100 0.921100 0.358400
C237 C -0.386400 0.708600 0.565300
H238 H -0.428900 0.707800 0.505200
H239 H -0.392400 0.652800 0.592900
H240 H -0.417500 0.752700 0.599700
C241 C -0.153900 0.741050 0.675460
H242 H -0.147200 0.684400 0.702900
H243 H -0.078300 0.763700 0.673000
H244 H -0.193500 0.779500 0.710300
C245 C -0.174700 0.643820 0.504280
H246 H -0.186000 0.594100 0.531000
H247 H -0.095000 0.652000 0.506000
H248 H -0.206000 0.637000 0.450000
C249 C -0.554800 0.968200 0.336950
H250 H -0.611000 0.992000 0.290000
H251 H -0.564000 0.910000 0.340000
H252 H -0.563000 0.991000 0.392000
C253 C -0.394300 0.958450 0.205670
H254 H -0.327000 0.976900 0.192000
H255 H -0.454000 0.977800 0.162500
H256 H -0.393000 0.901700 0.207400
C257 C -0.395400 1.115750 0.324850
H258 H -0.413000 1.135000 0.381000
H259 H -0.452000 1.143300 0.285100
H260 H -0.320000 1.136700 0.315000
C261 C -0.091400 1.109320 0.225900
H262 H -0.167000 1.103300 0.223800
H263 H -0.085000 1.153000 0.182000
H264 H -0.063000 1.124000 0.280000
C265 C -0.107850 0.967600 0.089980
H266 H -0.080000 0.917400 0.073500
H267 H -0.107000 1.006400 0.044200
H268 H -0.187000 0.956900 0.093200
C269 C 0.122000 1.027850 0.184370
H270 H 0.158000 0.980400 0.173900
H271 H 0.168000 1.049000 0.238000
H272 H 0.123000 1.062000 0.142000
C273 C 0.147300 0.751470 0.570180
H274 H 0.210300 0.718900 0.603000
H275 H 0.154900 0.811700 0.587300
H276 H 0.075700 0.729100 0.583500
C277 C 0.293480 0.769820 0.428720
H278 H 0.299000 0.758300 0.371700
H279 H 0.315000 0.825400 0.445400
H280 H 0.345000 0.735000 0.461000
C281 C 0.119100 0.629190 0.413650
H282 H 0.172000 0.592000 0.450000
H283 H 0.047000 0.611700 0.423600
H284 H 0.128000 0.622400 0.356000
Zr285 Zr 1.094378 0.078927 0.569362
H286 H 1.029000 0.148000 0.465000
Si287 Si 1.234960 0.267400 0.438050
Si288 Si 1.410590 0.002300 0.683220
Si289 Si 1.027700 -0.006600 0.803130
Si290 Si 0.850870 0.258570 0.550130
O291 O 1.014700 -0.021210 0.518830
C292 C 1.236100 0.162480 0.495440
C293 C 1.219390 0.081290 0.452770
H294 H 1.183500 0.070800 0.395900
C295 C 1.262400 0.017390 0.511530
H296 H 1.257700 -0.043200 0.499800
C297 C 1.309030 0.055010 0.594040
C298 C 1.293070 0.144290 0.581970
H299 H 1.318600 0.188400 0.625700
C300 C 1.027780 0.081130 0.720240
C301 C 1.110540 0.146970 0.721160
H302 H 1.183200 0.146500 0.756700
C303 C 1.068100 0.210620 0.661010
H304 H 1.104100 0.261000 0.648100
C305 C 0.956630 0.187800 0.619140
C306 C 0.934120 0.108430 0.657180
H307 H 0.864900 0.078900 0.641600
C308 C 1.386400 0.291400 0.434700
H309 H 1.428900 0.292200 0.494800
H310 H 1.392400 0.347200 0.407100
H311 H 1.417500 0.247300 0.400300
C312 C 1.153900 0.258950 0.324540
H313 H 1.147200 0.315600 0.297100
H314 H 1.078300 0.236300 0.327000
H315 H 1.193500 0.220500 0.289700
C316 C 1.174700 0.356180 0.495720
H317 H 1.186000 0.405900 0.469000
H318 H 1.095000 0.348000 0.494000
H319 H 1.206000 0.363000 0.550000
C320 C 1.554800 0.031800 0.663050
H321 H 1.611000 0.008000 0.710000
H322 H 1.564000 0.090000 0.660000
H323 H 1.563000 0.009000 0.608000
C324 C 1.394300 0.041550 0.794330
H325 H 1.327000 0.023100 0.808000
H326 H 1.454000 0.022200 0.837500
H327 H 1.393000 0.098300 0.792600
C328 C 1.395400 -0.115750 0.675150
H329 H 1.413000 -0.135000 0.619000
H330 H 1.452000 -0.143300 0.714900
H331 H 1.320000 -0.136700 0.685000
C332 C 1.091400 -0.109320 0.774100
H333 H 1.167000 -0.103300 0.776200
H334 H 1.085000 -0.153000 0.818000
H335 H 1.063000 -0.124000 0.720000
C336 C 1.107850 0.032400 0.910020
H337 H 1.080000 0.082600 0.926500
H338 H 1.107000 -0.006400 0.955800
H339 H 1.187000 0.043100 0.906800
C340 C 0.878000 -0.027850 0.815630
H341 H 0.842000 0.019600 0.826100
H342 H 0.832000 -0.049000 0.762000
H343 H 0.877000 -0.062000 0.858000
C344 C 0.852700 0.248530 0.429820
H345 H 0.789700 0.281100 0.397000
H346 H 0.845100 0.188300 0.412700
H347 H 0.924300 0.270900 0.416500
C348 C 0.706520 0.230180 0.571280
H349 H 0.701000 0.241700 0.628300
H350 H 0.685000 0.174600 0.554600
H351 H 0.655000 0.265000 0.539000
C352 C 0.880900 0.370810 0.586350
H353 H 0.828000 0.408000 0.550000
H354 H 0.953000 0.388300 0.576400
H355 H 0.872000 0.377600 0.644000
Zr356 Zr 0.905622 -0.078927 0.430638
H357 H 0.971000 -0.148000 0.535000
Si358 Si 0.765040 -0.267400 0.561950
Si359 Si 0.589410 -0.002300 0.316780
Si360 Si 0.972300 0.006600 0.196870
Si361 Si 1.149130 -0.258570 0.449870
O362 O 0.985300 0.021210 0.481170
C363 C 0.763900 -0.162480 0.504560
C364 C 0.780610 -0.081290 0.547230
H365 H 0.816500 -0.070800 0.604100
C366 C 0.737600 -0.017390 0.488470
H367 H 0.742300 0.043200 0.500200
C368 C 0.690970 -0.055010 0.405960
C369 C 0.706930 -0.144290 0.418030
H370 H 0.681400 -0.188400 0.374300
C371 C 0.972220 -0.081130 0.279760
C372 C 0.889460 -0.146970 0.278840
H373 H 0.816800 -0.146500 0.243300
C374 C 0.931900 -0.210620 0.338990
H375 H 0.895900 -0.261000 0.351900
C376 C 1.043370 -0.187800 0.380860
C377 C 1.065880 -0.108430 0.342820
H378 H 1.135100 -0.078900 0.358400
C379 C 0.613600 -0.291400 0.565300
H380 H 0.571100 -0.292200 0.505200
H381 H 0.607600 -0.347200 0.592900
H382 H 0.582500 -0.247300 0.599700
C383 C 0.846100 -0.258950 0.675460
H384 H 0.852800 -0.315600 0.702900
H385 H 0.921700 -0.236300 0.673000
H386 H 0.806500 -0.220500 0.710300
C387 C 0.825300 -0.356180 0.504280
H388 H 0.814000 -0.405900 0.531000
H389 H 0.905000 -0.348000 0.506000
H390 H 0.794000 -0.363000 0.450000
C391 C 0.445200 -0.031800 0.336950
H392 H 0.389000 -0.008000 0.290000
H393 H 0.436000 -0.090000 0.340000
H394 H 0.437000 -0.009000 0.392000
C395 C 0.605700 -0.041550 0.205670
H396 H 0.673000 -0.023100 0.192000
H397 H 0.546000 -0.022200 0.162500
H398 H 0.607000 -0.098300 0.207400
C399 C 0.604600 0.115750 0.324850
H400 H 0.587000 0.135000 0.381000
H401 H 0.548000 0.143300 0.285100
H402 H 0.680000 0.136700 0.315000
C403 C 0.908600 0.109320 0.225900
H404 H 0.833000 0.103300 0.223800
H405 H 0.915000 0.153000 0.182000
H406 H 0.937000 0.124000 0.280000
C407 C 0.892150 -0.032400 0.089980
H408 H 0.920000 -0.082600 0.073500
H409 H 0.893000 0.006400 0.044200
H410 H 0.813000 -0.043100 0.093200
C411 C 1.122000 0.027850 0.184370
H412 H 1.158000 -0.019600 0.173900
H413 H 1.168000 0.049000 0.238000
H414 H 1.123000 0.062000 0.142000
C415 C 1.147300 -0.248530 0.570180
H416 H 1.210300 -0.281100 0.603000
H417 H 1.154900 -0.188300 0.587300
H418 H 1.075700 -0.270900 0.583500
C419 C 1.293480 -0.230180 0.428720
H420 H 1.299000 -0.241700 0.371700
H421 H 1.315000 -0.174600 0.445400
H422 H 1.345000 -0.265000 0.461000
C423 C 1.119100 -0.370810 0.413650
H424 H 1.172000 -0.408000 0.450000
H425 H 1.047000 -0.388300 0.423600
H426 H 1.128000 -0.377600 0.356000
Zr427 Zr 1.094378 1.078927 0.569362
H428 H 1.029000 1.148000 0.465000
Si429 Si 1.234960 1.267400 0.438050
Si430 Si 1.410590 1.002300 0.683220
Si431 Si 1.027700 0.993400 0.803130
Si432 Si 0.850870 1.258570 0.550130
O433 O 1.014700 0.978790 0.518830
C434 C 1.236100 1.162480 0.495440
C435 C 1.219390 1.081290 0.452770
H436 H 1.183500 1.070800 0.395900
C437 C 1.262400 1.017390 0.511530
H438 H 1.257700 0.956800 0.499800
C439 C 1.309030 1.055010 0.594040
C440 C 1.293070 1.144290 0.581970
H441 H 1.318600 1.188400 0.625700
C442 C 1.027780 1.081130 0.720240
C443 C 1.110540 1.146970 0.721160
H444 H 1.183200 1.146500 0.756700
C445 C 1.068100 1.210620 0.661010
H446 H 1.104100 1.261000 0.648100
C447 C 0.956630 1.187800 0.619140
C448 C 0.934120 1.108430 0.657180
H449 H 0.864900 1.078900 0.641600
C450 C 1.386400 1.291400 0.434700
H451 H 1.428900 1.292200 0.494800
H452 H 1.392400 1.347200 0.407100
H453 H 1.417500 1.247300 0.400300
C454 C 1.153900 1.258950 0.324540
H455 H 1.147200 1.315600 0.297100
H456 H 1.078300 1.236300 0.327000
H457 H 1.193500 1.220500 0.289700
C458 C 1.174700 1.356180 0.495720
H459 H 1.186000 1.405900 0.469000
H460 H 1.095000 1.348000 0.494000
H461 H 1.206000 1.363000 0.550000
C462 C 1.554800 1.031800 0.663050
H463 H 1.611000 1.008000 0.710000
H464 H 1.564000 1.090000 0.660000
H465 H 1.563000 1.009000 0.608000
C466 C 1.394300 1.041550 0.794330
H467 H 1.327000 1.023100 0.808000
H468 H 1.454000 1.022200 0.837500
H469 H 1.393000 1.098300 0.792600
C470 C 1.395400 0.884250 0.675150
H471 H 1.413000 0.865000 0.619000
H472 H 1.452000 0.856700 0.714900
H473 H 1.320000 0.863300 0.685000
C474 C 1.091400 0.890680 0.774100
H475 H 1.167000 0.896700 0.776200
H476 H 1.085000 0.847000 0.818000
H477 H 1.063000 0.876000 0.720000
C478 C 1.107850 1.032400 0.910020
H479 H 1.080000 1.082600 0.926500
H480 H 1.107000 0.993600 0.955800
H481 H 1.187000 1.043100 0.906800
C482 C 0.878000 0.972150 0.815630
H483 H 0.842000 1.019600 0.826100
H484 H 0.832000 0.951000 0.762000
H485 H 0.877000 0.938000 0.858000
C486 C 0.852700 1.248530 0.429820
H487 H 0.789700 1.281100 0.397000
H488 H 0.845100 1.188300 0.412700
H489 H 0.924300 1.270900 0.416500
C490 C 0.706520 1.230180 0.571280
H491 H 0.701000 1.241700 0.628300
H492 H 0.685000 1.174600 0.554600
H493 H 0.655000 1.265000 0.539000
C494 C 0.880900 1.370810 0.586350
H495 H 0.828000 1.408000 0.550000
H496 H 0.953000 1.388300 0.576400
H497 H 0.872000 1.377600 0.644000
Zr498 Zr 0.905622 0.921073 0.430638
H499 H 0.971000 0.852000 0.535000
Si500 Si 0.765040 0.732600 0.561950
Si501 Si 0.589410 0.997700 0.316780
Si502 Si 0.972300 1.006600 0.196870
Si503 Si 1.149130 0.741430 0.449870
O504 O 0.985300 1.021210 0.481170
C505 C 0.763900 0.837520 0.504560
C506 C 0.780610 0.918710 0.547230
H507 H 0.816500 0.929200 0.604100
C508 C 0.737600 0.982610 0.488470
H509 H 0.742300 1.043200 0.500200
C510 C 0.690970 0.944990 0.405960
C511 C 0.706930 0.855710 0.418030
H512 H 0.681400 0.811600 0.374300
C513 C 0.972220 0.918870 0.279760
C514 C 0.889460 0.853030 0.278840
H515 H 0.816800 0.853500 0.243300
C516 C 0.931900 0.789380 0.338990
H517 H 0.895900 0.739000 0.351900
C518 C 1.043370 0.812200 0.380860
C519 C 1.065880 0.891570 0.342820
H520 H 1.135100 0.921100 0.358400
C521 C 0.613600 0.708600 0.565300
H522 H 0.571100 0.707800 0.505200
H523 H 0.607600 0.652800 0.592900
H524 H 0.582500 0.752700 0.599700
C525 C 0.846100 0.741050 0.675460
H526 H 0.852800 0.684400 0.702900
H527 H 0.921700 0.763700 0.673000
H528 H 0.806500 0.779500 0.710300
C529 C 0.825300 0.643820 0.504280
H530 H 0.814000 0.594100 0.531000
H531 H 0.905000 0.652000 0.506000
H532 H 0.794000 0.637000 0.450000
C533 C 0.445200 0.968200 0.336950
H534 H 0.389000 0.992000 0.290000
H535 H 0.436000 0.910000 0.340000
H536 H 0.437000 0.991000 0.392000
C537 C 0.605700 0.958450 0.205670
H538 H 0.673000 0.976900 0.192000
H539 H 0.546000 0.977800 0.162500
H540 H 0.607000 0.901700 0.207400
C541 C 0.604600 1.115750 0.324850
H542 H 0.587000 1.135000 0.381000
H543 H 0.548000 1.143300 0.285100
H544 H 0.680000 1.136700 0.315000
C545 C 0.908600 1.109320 0.225900
H546 H 0.833000 1.103300 0.223800
H547 H 0.915000 1.153000 0.182000
H548 H 0.937000 1.124000 0.280000
C549 C 0.892150 0.967600 0.089980
H550 H 0.920000 0.917400 0.073500
H551 H 0.893000 1.006400 0.044200
H552 H 0.813000 0.956900 0.093200
C553 C 1.122000 1.027850 0.184370
H554 H 1.158000 0.980400 0.173900
H555 H 1.168000 1.049000 0.238000
H556 H 1.123000 1.062000 0.142000
C557 C 1.147300 0.751470 0.570180
H558 H 1.210300 0.718900 0.603000
H559 H 1.154900 0.811700 0.587300
H560 H 1.075700 0.729100 0.583500
C561 C 1.293480 0.769820 0.428720
H562 H 1.299000 0.758300 0.371700
H563 H 1.315000 0.825400 0.445400
H564 H 1.345000 0.735000 0.461000
C565 C 1.119100 0.629190 0.413650
H566 H 1.172000 0.592000 0.450000
H567 H 1.047000 0.611700 0.423600
H568 H 1.128000 0.622400 0.356000
Zr569 Zr 0.405622 0.578927 -0.069362
H570 H 0.471000 0.648000 0.035000
Si571 Si 0.265040 0.767400 0.061950
Si572 Si 0.089410 0.502300 -0.183220
Si573 Si 0.472300 0.493400 -0.303130
Si574 Si 0.649130 0.758570 -0.050130
O575 O 0.485300 0.478790 -0.018830
C576 C 0.263900 0.662480 0.004560
C577 C 0.280610 0.581290 0.047230
H578 H 0.316500 0.570800 0.104100
C579 C 0.237600 0.517390 -0.011530
H580 H 0.242300 0.456800 0.000200
C581 C 0.190970 0.555010 -0.094040
C582 C 0.206930 0.644290 -0.081970
H583 H 0.181400 0.688400 -0.125700
C584 C 0.472220 0.581130 -0.220240
C585 C 0.389460 0.646970 -0.221160
H586 H 0.316800 0.646500 -0.256700
C587 C 0.431900 0.710620 -0.161010
H588 H 0.395900 0.761000 -0.148100
C589 C 0.543370 0.687800 -0.119140
C590 C 0.565880 0.608430 -0.157180
H591 H 0.635100 0.578900 -0.141600
C592 C 0.113600 0.791400 0.065300
H593 H 0.071100 0.792200 0.005200
H594 H 0.107600 0.847200 0.092900
H595 H 0.082500 0.747300 0.099700
C596 C 0.346100 0.758950 0.175460
H597 H 0.352800 0.815600 0.202900
H598 H 0.421700 0.736300 0.173000
H599 H 0.306500 0.720500 0.210300
C600 C 0.325300 0.856180 0.004280
H601 H 0.314000 0.905900 0.031000
H602 H 0.405000 0.848000 0.006000
H603 H 0.294000 0.863000 -0.050000
C604 C -0.054800 0.531800 -0.163050
H605 H -0.111000 0.508000 -0.210000
H606 H -0.064000 0.590000 -0.160000
H607 H -0.063000 0.509000 -0.108000
C608 C 0.105700 0.541550 -0.294330
H609 H 0.173000 0.523100 -0.308000
H610 H 0.046000 0.522200 -0.337500
H611 H 0.107000 0.598300 -0.292600
C612 C 0.104600 0.384250 -0.175150
H613 H 0.087000 0.365000 -0.119000
H614 H 0.048000 0.356700 -0.214900
H615 H 0.180000 0.363300 -0.185000
C616 C 0.408600 0.390680 -0.274100
H617 H 0.333000 0.396700 -0.276200
H618 H 0.415000 0.347000 -0.318000
H619 H 0.437000 0.376000 -0.220000
C620 C 0.392150 0.532400 -0.410020
H621 H 0.420000 0.582600 -0.426500
H622 H 0.393000 0.493600 -0.455800
H623 H 0.313000 0.543100 -0.406800
C624 C 0.622000 0.472150 -0.315630
H625 H 0.658000 0.519600 -0.326100
H626 H 0.668000 0.451000 -0.262000
H627 H 0.623000 0.438000 -0.358000
C628 C 0.647300 0.748530 0.070180
H629 H 0.710300 0.781100 0.103000
H630 H 0.654900 0.688300 0.087300
H631 H 0.575700 0.770900 0.083500
C632 C 0.793480 0.730180 -0.071280
H633 H 0.799000 0.741700 -0.128300
H634 H 0.815000 0.674600 -0.054600
H635 H 0.845000 0.765000 -0.039000
C636 C 0.619100 0.870810 -0.086350
H637 H 0.672000 0.908000 -0.050000
H638 H 0.547000 0.888300 -0.076400
H639 H 0.628000 0.877600 -0.144000
Zr640 Zr 0.594378 0.421073 0.069362
H641 H 0.529000 0.352000 -0.035000
Si642 Si 0.734960 0.232600 -0.061950
Si643 Si 0.910590 0.497700 0.183220
Si644 Si 0.527700 0.506600 0.303130
Si645 Si 0.350870 0.241430 0.050130
O646 O 0.514700 0.521210 0.018830
C647 C 0.736100 0.337520 -0.004560
C648 C 0.719390 0.418710 -0.047230
H649 H 0.683500 0.429200 -0.104100
C650 C 0.762400 0.482610 0.011530
H651 H 0.757700 0.543200 -0.000200
C652 C 0.809030 0.444990 0.094040
C653 C 0.793070 0.355710 0.081970
H654 H 0.818600 0.311600 0.125700
C655 C 0.527780 0.418870 0.220240
C656 C 0.610540 0.353030 0.221160
H657 H 0.683200 0.353500 0.256700
C658 C 0.568100 0.289380 0.161010
H659 H 0.604100 0.239000 0.148100
C660 C 0.456630 0.312200 0.119140
C661 C 0.434120 0.391570 0.157180
H662 H 0.364900 0.421100 0.141600
C663 C 0.886400 0.208600 -0.065300
H664 H 0.928900 0.207800 -0.005200
H665 H 0.892400 0.152800 -0.092900
H666 H 0.917500 0.252700 -0.099700
C667 C 0.653900 0.241050 -0.175460
H668 H 0.647200 0.184400 -0.202900
H669 H 0.578300 0.263700 -0.173000
H670 H 0.693500 0.279500 -0.210300
C671 C 0.674700 0.143820 -0.004280
H672 H 0.686000 0.094100 -0.031000
H673 H 0.595000 0.152000 -0.006000
H674 H 0.706000 0.137000 0.050000
C675 C 1.054800 0.468200 0.163050
H676 H 1.111000 0.492000 0.210000
H677 H 1.064000 0.410000 0.160000
H678 H 1.063000 0.491000 0.108000
C679 C 0.894300 0.458450 0.294330
H680 H 0.827000 0.476900 0.308000
H681 H 0.954000 0.477800 0.337500
H682 H 0.893000 0.401700 0.292600
C683 C 0.895400 0.615750 0.175150
H684 H 0.913000 0.635000 0.119000
H685 H 0.952000 0.643300 0.214900
H686 H 0.820000 0.636700 0.185000
C687 C 0.591400 0.609320 0.274100
H688 H 0.667000 0.603300 0.276200
H689 H 0.585000 0.653000 0.318000
H690 H 0.563000 0.624000 0.220000
C691 C 0.607850 0.467600 0.410020
H692 H 0.580000 0.417400 0.426500
H693 H 0.607000 0.506400 0.455800
H694 H 0.687000 0.456900 0.406800
C695 C 0.378000 0.527850 0.315630
H696 H 0.342000 0.480400 0.326100
H697 H 0.332000 0.549000 0.262000
H698 H 0.377000 0.562000 0.358000
C699 C 0.352700 0.251470 -0.070180
H700 H 0.289700 0.218900 -0.103000
H701 H 0.345100 0.311700 -0.087300
H702 H 0.424300 0.229100 -0.083500
C703 C 0.206520 0.269820 0.071280
H704 H 0.201000 0.258300 0.128300
H705 H 0.185000 0.325400 0.054600
H706 H 0.155000 0.235000 0.039000
C707 C 0.380900 0.129190 0.086350
H708 H 0.328000 0.092000 0.050000
H709 H 0.453000 0.111700 0.076400
H710 H 0.372000 0.122400 0.144000
Zr711 Zr 0.405622 0.578927 0.930638
H712 H 0.471000 0.648000 1.035000
Si713 Si 0.265040 0.767400 1.061950
Si714 Si 0.089410 0.502300 0.816780
Si715 Si 0.472300 0.493400 0.696870
Si716 Si 0.649130 0.758570 0.949870
O717 O 0.485300 0.478790 0.981170
C718 C 0.263900 0.662480 1.004560
C719 C 0.280610 0.581290 1.047230
H720 H 0.316500 0.570800 1.104100
C721 C 0.237600 0.517390 0.988470
H722 H 0.242300 0.456800 1.000200
C723 C 0.190970 0.555010 0.905960
C724 C 0.206930 0.644290 0.918030
H725 H 0.181400 0.688400 0.874300
C726 C 0.472220 0.581130 0.779760
C727 C 0.389460 0.646970 0.778840
H728 H 0.316800 0.646500 0.743300
C729 C 0.431900 0.710620 0.838990
H730 H 0.395900 0.761000 0.851900
C731 C 0.543370 0.687800 0.880860
C732 C 0.565880 0.608430 0.842820
H733 H 0.635100 0.578900 0.858400
C734 C 0.113600 0.791400 1.065300
H735 H 0.071100 0.792200 1.005200
H736 H 0.107600 0.847200 1.092900
H737 H 0.082500 0.747300 1.099700
C738 C 0.346100 0.758950 1.175460
H739 H 0.352800 0.815600 1.202900
H740 H 0.421700 0.736300 1.173000
H741 H 0.306500 0.720500 1.210300
C742 C 0.325300 0.856180 1.004280
H743 H 0.314000 0.905900 1.031000
H744 H 0.405000 0.848000 1.006000
H745 H 0.294000 0.863000 0.950000
C746 C -0.054800 0.531800 0.836950
H747 H -0.111000 0.508000 0.790000
H748 H -0.064000 0.590000 0.840000
H749 H -0.063000 0.509000 0.892000
C750 C 0.105700 0.541550 0.705670
H751 H 0.173000 0.523100 0.692000
H752 H 0.046000 0.522200 0.662500
H753 H 0.107000 0.598300 0.707400
C754 C 0.104600 0.384250 0.824850
H755 H 0.087000 0.365000 0.881000
H756 H 0.048000 0.356700 0.785100
H757 H 0.180000 0.363300 0.815000
C758 C 0.408600 0.390680 0.725900
H759 H 0.333000 0.396700 0.723800
H760 H 0.415000 0.347000 0.682000
H761 H 0.437000 0.376000 0.780000
C762 C 0.392150 0.532400 0.589980
H763 H 0.420000 0.582600 0.573500
H764 H 0.393000 0.493600 0.544200
H765 H 0.313000 0.543100 0.593200
C766 C 0.622000 0.472150 0.684370
H767 H 0.658000 0.519600 0.673900
H768 H 0.668000 0.451000 0.738000
H769 H 0.623000 0.438000 0.642000
C770 C 0.647300 0.748530 1.070180
H771 H 0.710300 0.781100 1.103000
H772 H 0.654900 0.688300 1.087300
H773 H 0.575700 0.770900 1.083500
C774 C 0.793480 0.730180 0.928720
H775 H 0.799000 0.741700 0.871700
H776 H 0.815000 0.674600 0.945400
H777 H 0.845000 0.765000 0.961000
C778 C 0.619100 0.870810 0.913650
H779 H 0.672000 0.908000 0.950000
H780 H 0.547000 0.888300 0.923600
H781 H 0.628000 0.877600 0.856000
Zr782 Zr 0.594378 0.421073 1.069362
H783 H 0.529000 0.352000 0.965000
Si784 Si 0.734960 0.232600 0.938050
Si785 Si 0.910590 0.497700 1.183220
Si786 Si 0.527700 0.506600 1.303130
Si787 Si 0.350870 0.241430 1.050130
O788 O 0.514700 0.521210 1.018830
C789 C 0.736100 0.337520 0.995440
C790 C 0.719390 0.418710 0.952770
H791 H 0.683500 0.429200 0.895900
C792 C 0.762400 0.482610 1.011530
H793 H 0.757700 0.543200 0.999800
C794 C 0.809030 0.444990 1.094040
C795 C 0.793070 0.355710 1.081970
H796 H 0.818600 0.311600 1.125700
C797 C 0.527780 0.418870 1.220240
C798 C 0.610540 0.353030 1.221160
H799 H 0.683200 0.353500 1.256700
C800 C 0.568100 0.289380 1.161010
H801 H 0.604100 0.239000 1.148100
C802 C 0.456630 0.312200 1.119140
C803 C 0.434120 0.391570 1.157180
H804 H 0.364900 0.421100 1.141600
C805 C 0.886400 0.208600 0.934700
H806 H 0.928900 0.207800 0.994800
H807 H 0.892400 0.152800 0.907100
H808 H 0.917500 0.252700 0.900300
C809 C 0.653900 0.241050 0.824540
H810 H 0.647200 0.184400 0.797100
H811 H 0.578300 0.263700 0.827000
H812 H 0.693500 0.279500 0.789700
C813 C 0.674700 0.143820 0.995720
H814 H 0.686000 0.094100 0.969000
H815 H 0.595000 0.152000 0.994000
H816 H 0.706000 0.137000 1.050000
C817 C 1.054800 0.468200 1.163050
H818 H 1.111000 0.492000 1.210000
H819 H 1.064000 0.410000 1.160000
H820 H 1.063000 0.491000 1.108000
C821 C 0.894300 0.458450 1.294330
H822 H 0.827000 0.476900 1.308000
H823 H 0.954000 0.477800 1.337500
H824 H 0.893000 0.401700 1.292600
C825 C 0.895400 0.615750 1.175150
H826 H 0.913000 0.635000 1.119000
H827 H 0.952000 0.643300 1.214900
H828 H 0.820000 0.636700 1.185000
C829 C 0.591400 0.609320 1.274100
H830 H 0.667000 0.603300 1.276200
H831 H 0.585000 0.653000 1.318000
H832 H 0.563000 0.624000 1.220000
C833 C 0.607850 0.467600 1.410020
H834 H 0.580000 0.417400 1.426500
H835 H 0.607000 0.506400 1.455800
H836 H 0.687000 0.456900 1.406800
C837 C 0.378000 0.527850 1.315630
H838 H 0.342000 0.480400 1.326100
H839 H 0.332000 0.549000 1.262000
H840 H 0.377000 0.562000 1.358000
C841 C 0.352700 0.251470 0.929820
H842 H 0.289700 0.218900 0.897000
H843 H 0.345100 0.311700 0.912700
H844 H 0.424300 0.229100 0.916500
C845 C 0.206520 0.269820 1.071280
H846 H 0.201000 0.258300 1.128300
H847 H 0.185000 0.325400 1.054600
H848 H 0.155000 0.235000 1.039000
C849 C 0.380900 0.129190 1.086350
H850 H 0.328000 0.092000 1.050000
H851 H 0.453000 0.111700 1.076400
H852 H 0.372000 0.122400 1.144000
H853 H 0.141000 0.981000 0.636000
H854 H 0.359000 0.481000 0.864000
H855 H 0.859000 0.019000 0.364000
H856 H 0.641000 0.519000 0.136000

#END
