
#######################################################################
#
#                 Cambridge Crystallographic Data Centre
#                                CCDC 
#
#######################################################################
#
# If this CIF has been generated from an entry in the Cambridge 
# Structural Database, then it will include bibliographic, chemical, 
# crystal, experimental, refinement or atomic coordinate data resulting 
# from the CCDC's data processing and validation procedures.
#
#######################################################################

data_ACOBOK
_symmetry_cell_setting           monoclinic
_symmetry_space_group_name_H-M   'P 21/n'
_symmetry_Int_Tables_number      14
_space_group_name_Hall           '-P 2yn'
loop_
_symmetry_equiv_pos_site_id
_symmetry_equiv_pos_as_xyz
1 x,y,z
2 1/2-x,1/2+y,1/2-z
3 -x,-y,-z
4 1/2+x,1/2-y,1/2+z
_cell_length_a                   11.9916(7)
_cell_length_b                   15.6633(9)
_cell_length_c                   15.3898(8)
_cell_angle_alpha                90
_cell_angle_beta                 99.528(2)
_cell_angle_gamma                90
_cell_volume                     2850.76
loop_
_atom_site_label
_atom_site_type_symbol
_atom_site_fract_x
_atom_site_fract_y
_atom_site_fract_z
Zr1 Zr 0.094378(15) 0.078927(12) 0.569362(12)
H1 H 0.029(5) 0.148(4) 0.465(4)
Si1 Si 0.23496(5) 0.26740(4) 0.43805(4)
Si2 Si 0.41059(4) 0.00230(3) 0.68322(4)
Si3 Si 0.02770(5) -0.00660(3) 0.80313(4)
Si4 Si -0.14913(5) 0.25857(3) 0.55013(4)
O1 O 0.0147(3) -0.02121(18) 0.51883(19)
C1 C 0.23610(17) 0.16248(12) 0.49544(13)
C2 C 0.21939(16) 0.08129(12) 0.45277(12)
H3 H 0.1835(19) 0.0708(13) 0.3959(15)
C3 C 0.26240(15) 0.01739(12) 0.51153(12)
H4 H 0.2577(18) -0.0432(14) 0.4998(14)
C4 C 0.30903(15) 0.05501(11) 0.59404(12)
C5 C 0.29307(15) 0.14429(11) 0.58197(13)
H5 H 0.3186(17) 0.1884(13) 0.6257(13)
C6 C 0.02778(16) 0.08113(12) 0.72024(12)
C7 C 0.11054(16) 0.14697(12) 0.72116(12)
H6 H 0.1832(18) 0.1465(13) 0.7567(13)
C8 C 0.06810(16) 0.21062(12) 0.66101(12)
H7 H 0.1041(18) 0.2610(13) 0.6481(13)
C9 C -0.04337(15) 0.18780(12) 0.61914(12)
C10 C -0.06588(15) 0.10843(12) 0.65718(12)
H8 H -0.1351(16) 0.0789(11) 0.6416(12)
C11 C 0.3864(2) 0.2914(2) 0.4347(3)
H9 H 0.4289 0.2922 0.4948
H10 H 0.3924 0.3472 0.4071
H11 H 0.4175 0.2473 0.4003
C12 C 0.1539(3) 0.25895(18) 0.32454(17)
H12 H 0.1472 0.3156 0.2971
H13 H 0.0783 0.2363 0.3270
H14 H 0.1935 0.2205 0.2897
C13 C 0.1747(2) 0.35618(15) 0.49572(19)
H15 H 0.186(3) 0.4059(19) 0.469(2)
H16 H 0.095(3) 0.348(2) 0.494(2)
H17 H 0.206(3) 0.363(2) 0.550(2)
C14 C 0.5548(2) 0.0318(2) 0.66305(19)
H18 H 0.611(3) 0.008(2) 0.710(2)
H19 H 0.564(3) 0.090(2) 0.660(2)
H20 H 0.563(3) 0.009(2) 0.608(2)
C15 C 0.3943(2) 0.04155(17) 0.79433(15)
H21 H 0.327(3) 0.0231(18) 0.8080(19)
H22 H 0.454(2) 0.0222(17) 0.8375(18)
H23 H 0.393(2) 0.0983(18) 0.7926(17)
C16 C 0.3954(2) -0.11575(14) 0.67515(17)
H24 H 0.413(2) -0.1350(19) 0.619(2)
H25 H 0.452(2) -0.1433(17) 0.7149(17)
H26 H 0.320(3) -0.1367(19) 0.6850(19)
C17 C 0.0914(3) -0.10932(17) 0.7741(2)
H27 H 0.167(3) -0.1033(18) 0.7762(19)
H28 H 0.085(3) -0.153(2) 0.818(2)
H29 H 0.063(3) -0.124(2) 0.720(2)
C18 C 0.10785(19) 0.03240(16) 0.91002(14)
H30 H 0.080(2) 0.0826(17) 0.9265(18)
H31 H 0.107(2) -0.0064(19) 0.9558(19)
H32 H 0.187(2) 0.0431(15) 0.9068(15)
C19 C -0.1220(2) -0.02785(17) 0.81563(16)
H33 H -0.158(2) 0.0196(18) 0.8261(18)
H34 H -0.168(3) -0.0490(19) 0.762(2)
H35 H -0.123(3) -0.062(2) 0.858(2)
C20 C -0.1473(2) 0.24853(18) 0.42982(15)
H36 H -0.2103 0.2811 0.3970
H37 H -0.1549 0.1883 0.4127
H38 H -0.0757 0.2709 0.4165
C21 C -0.29348(18) 0.23018(15) 0.57128(16)
H39 H -0.299(2) 0.2417(18) 0.6283(19)
H40 H -0.315(2) 0.1746(17) 0.5546(17)
H41 H -0.345(3) 0.265(2) 0.539(2)
C22 C -0.1191(2) 0.37081(15) 0.58635(19)
H42 H -0.172(3) 0.408(2) 0.550(2)
H43 H -0.047(2) 0.3883(17) 0.5764(18)
H44 H -0.128(2) 0.3776(19) 0.644(2)
Zr1B Zr -0.094378(15) -0.078927(12) 0.430638(12)
H1B H -0.029(5) -0.148(4) 0.535(4)
Si1B Si -0.23496(5) -0.26740(4) 0.56195(4)
Si2B Si -0.41059(4) -0.00230(3) 0.31678(4)
Si3B Si -0.02770(5) 0.00660(3) 0.19687(4)
Si4B Si 0.14913(5) -0.25857(3) 0.44987(4)
O1B O -0.0147(3) 0.02121(18) 0.48117(19)
C1B C -0.23610(17) -0.16248(12) 0.50456(13)
C2B C -0.21939(16) -0.08129(12) 0.54723(12)
H3B H -0.1835(19) -0.0708(13) 0.6041(15)
C3B C -0.26240(15) -0.01739(12) 0.48847(12)
H4B H -0.2577(18) 0.0432(14) 0.5002(14)
C4B C -0.30903(15) -0.05501(11) 0.40596(12)
C5B C -0.29307(15) -0.14429(11) 0.41803(13)
H5B H -0.3186(17) -0.1884(13) 0.3743(13)
C6B C -0.02778(16) -0.08113(12) 0.27976(12)
C7B C -0.11054(16) -0.14697(12) 0.27884(12)
H6B H -0.1832(18) -0.1465(13) 0.2433(13)
C8B C -0.06810(16) -0.21062(12) 0.33899(12)
H7B H -0.1041(18) -0.2610(13) 0.3519(13)
C9B C 0.04337(15) -0.18780(12) 0.38086(12)
C10B C 0.06588(15) -0.10843(12) 0.34282(12)
H8B H 0.1351(16) -0.0789(11) 0.3584(12)
C11B C -0.3864(2) -0.2914(2) 0.5653(3)
H9B H -0.4289 -0.2922 0.5052
H10B H -0.3924 -0.3472 0.5929
H11B H -0.4175 -0.2473 0.5997
C12B C -0.1539(3) -0.25895(18) 0.67546(17)
H12B H -0.1472 -0.3156 0.7029
H13B H -0.0783 -0.2363 0.6730
H14B H -0.1935 -0.2205 0.7103
C13B C -0.1747(2) -0.35618(15) 0.50428(19)
H15B H -0.186(3) -0.4059(19) 0.531(2)
H16B H -0.095(3) -0.348(2) 0.506(2)
H17B H -0.206(3) -0.363(2) 0.450(2)
C14B C -0.5548(2) -0.0318(2) 0.33695(19)
H18B H -0.611(3) -0.008(2) 0.290(2)
H19B H -0.564(3) -0.090(2) 0.340(2)
H20B H -0.563(3) -0.009(2) 0.392(2)
C15B C -0.3943(2) -0.04155(17) 0.20567(15)
H21B H -0.327(3) -0.0231(18) 0.1920(19)
H22B H -0.454(2) -0.0222(17) 0.1625(18)
H23B H -0.393(2) -0.0983(18) 0.2074(17)
C16B C -0.3954(2) 0.11575(14) 0.32485(17)
H24B H -0.413(2) 0.1350(19) 0.381(2)
H25B H -0.452(2) 0.1433(17) 0.2851(17)
H26B H -0.320(3) 0.1367(19) 0.3150(19)
C17B C -0.0914(3) 0.10932(17) 0.2259(2)
H27B H -0.167(3) 0.1033(18) 0.2238(19)
H28B H -0.085(3) 0.153(2) 0.182(2)
H29B H -0.063(3) 0.124(2) 0.280(2)
C18B C -0.10785(19) -0.03240(16) 0.08998(14)
H30B H -0.080(2) -0.0826(17) 0.0735(18)
H31B H -0.107(2) 0.0064(19) 0.0442(19)
H32B H -0.187(2) -0.0431(15) 0.0932(15)
C19B C 0.1220(2) 0.02785(17) 0.18437(16)
H33B H 0.158(2) -0.0196(18) 0.1739(18)
H34B H 0.168(3) 0.0490(19) 0.238(2)
H35B H 0.123(3) 0.062(2) 0.142(2)
C20B C 0.1473(2) -0.24853(18) 0.57018(15)
H36B H 0.2103 -0.2811 0.6030
H37B H 0.1549 -0.1883 0.5873
H38B H 0.0757 -0.2709 0.5835
C21B C 0.29348(18) -0.23018(15) 0.42872(16)
H39B H 0.299(2) -0.2417(18) 0.3717(19)
H40B H 0.315(2) -0.1746(17) 0.4454(17)
H41B H 0.345(3) -0.265(2) 0.461(2)
C22B C 0.1191(2) -0.37081(15) 0.41365(19)
H42B H 0.172(3) -0.408(2) 0.450(2)
H43B H 0.047(2) -0.3883(17) 0.4236(18)
H44B H 0.128(2) -0.3776(19) 0.356(2)
Zr1 Zr 0.094378(15) 1.078927(12) 0.569362(12)
H1 H 0.029(5) 1.148(4) 0.465(4)
Si1 Si 0.23496(5) 1.26740(4) 0.43805(4)
Si2 Si 0.41059(4) 1.00230(3) 0.68322(4)
Si3 Si 0.02770(5) 0.99340(3) 0.80313(4)
Si4 Si -0.14913(5) 1.25857(3) 0.55013(4)
O1 O 0.0147(3) 0.97879(18) 0.51883(19)
C1 C 0.23610(17) 1.16248(12) 0.49544(13)
C2 C 0.21939(16) 1.08129(12) 0.45277(12)
H3 H 0.1835(19) 1.0708(13) 0.3959(15)
C3 C 0.26240(15) 1.01739(12) 0.51153(12)
H4 H 0.2577(18) 0.9568(14) 0.4998(14)
C4 C 0.30903(15) 1.05501(11) 0.59404(12)
C5 C 0.29307(15) 1.14429(11) 0.58197(13)
H5 H 0.3186(17) 1.1884(13) 0.6257(13)
C6 C 0.02778(16) 1.08113(12) 0.72024(12)
C7 C 0.11054(16) 1.14697(12) 0.72116(12)
H6 H 0.1832(18) 1.1465(13) 0.7567(13)
C8 C 0.06810(16) 1.21062(12) 0.66101(12)
H7 H 0.1041(18) 1.2610(13) 0.6481(13)
C9 C -0.04337(15) 1.18780(12) 0.61914(12)
C10 C -0.06588(15) 1.10843(12) 0.65718(12)
H8 H -0.1351(16) 1.0789(11) 0.6416(12)
C11 C 0.3864(2) 1.2914(2) 0.4347(3)
H9 H 0.4289 1.2922 0.4948
H10 H 0.3924 1.3472 0.4071
H11 H 0.4175 1.2473 0.4003
C12 C 0.1539(3) 1.25895(18) 0.32454(17)
H12 H 0.1472 1.3156 0.2971
H13 H 0.0783 1.2363 0.3270
H14 H 0.1935 1.2205 0.2897
C13 C 0.1747(2) 1.35618(15) 0.49572(19)
H15 H 0.186(3) 1.4059(19) 0.469(2)
H16 H 0.095(3) 1.348(2) 0.494(2)
H17 H 0.206(3) 1.363(2) 0.550(2)
C14 C 0.5548(2) 1.0318(2) 0.66305(19)
H18 H 0.611(3) 1.008(2) 0.710(2)
H19 H 0.564(3) 1.090(2) 0.660(2)
H20 H 0.563(3) 1.009(2) 0.608(2)
C15 C 0.3943(2) 1.04155(17) 0.79433(15)
H21 H 0.327(3) 1.0231(18) 0.8080(19)
H22 H 0.454(2) 1.0222(17) 0.8375(18)
H23 H 0.393(2) 1.0983(18) 0.7926(17)
C16 C 0.3954(2) 0.88425(14) 0.67515(17)
H24 H 0.413(2) 0.8650(19) 0.619(2)
H25 H 0.452(2) 0.8567(17) 0.7149(17)
H26 H 0.320(3) 0.8633(19) 0.6850(19)
C17 C 0.0914(3) 0.89068(17) 0.7741(2)
H27 H 0.167(3) 0.8967(18) 0.7762(19)
H28 H 0.085(3) 0.847(2) 0.818(2)
H29 H 0.063(3) 0.876(2) 0.720(2)
C18 C 0.10785(19) 1.03240(16) 0.91002(14)
H30 H 0.080(2) 1.0826(17) 0.9265(18)
H31 H 0.107(2) 0.9936(19) 0.9558(19)
H32 H 0.187(2) 1.0431(15) 0.9068(15)
C19 C -0.1220(2) 0.97215(17) 0.81563(16)
H33 H -0.158(2) 1.0196(18) 0.8261(18)
H34 H -0.168(3) 0.9510(19) 0.762(2)
H35 H -0.123(3) 0.938(2) 0.858(2)
C20 C -0.1473(2) 1.24853(18) 0.42982(15)
H36 H -0.2103 1.2811 0.3970
H37 H -0.1549 1.1883 0.4127
H38 H -0.0757 1.2709 0.4165
C21 C -0.29348(18) 1.23018(15) 0.57128(16)
H39 H -0.299(2) 1.2417(18) 0.6283(19)
H40 H -0.315(2) 1.1746(17) 0.5546(17)
H41 H -0.345(3) 1.265(2) 0.539(2)
C22 C -0.1191(2) 1.37081(15) 0.58635(19)
H42 H -0.172(3) 1.408(2) 0.550(2)
H43 H -0.047(2) 1.3883(17) 0.5764(18)
H44 H -0.128(2) 1.3776(19) 0.644(2)
Zr1B Zr -0.094378(15) 0.921073(12) 0.430638(12)
H1B H -0.029(5) 0.852(4) 0.535(4)
Si1B Si -0.23496(5) 0.73260(4) 0.56195(4)
Si2B Si -0.41059(4) 0.99770(3) 0.31678(4)
Si3B Si -0.02770(5) 1.00660(3) 0.19687(4)
Si4B Si 0.14913(5) 0.74143(3) 0.44987(4)
O1B O -0.0147(3) 1.02121(18) 0.48117(19)
C1B C -0.23610(17) 0.83752(12) 0.50456(13)
C2B C -0.21939(16) 0.91871(12) 0.54723(12)
H3B H -0.1835(19) 0.9292(13) 0.6041(15)
C3B C -0.26240(15) 0.98261(12) 0.48847(12)
H4B H -0.2577(18) 1.0432(14) 0.5002(14)
C4B C -0.30903(15) 0.94499(11) 0.40596(12)
C5B C -0.29307(15) 0.85571(11) 0.41803(13)
H5B H -0.3186(17) 0.8116(13) 0.3743(13)
C6B C -0.02778(16) 0.91887(12) 0.27976(12)
C7B C -0.11054(16) 0.85303(12) 0.27884(12)
H6B H -0.1832(18) 0.8535(13) 0.2433(13)
C8B C -0.06810(16) 0.78938(12) 0.33899(12)
H7B H -0.1041(18) 0.7390(13) 0.3519(13)
C9B C 0.04337(15) 0.81220(12) 0.38086(12)
C10B C 0.06588(15) 0.89157(12) 0.34282(12)
H8B H 0.1351(16) 0.9211(11) 0.3584(12)
C11B C -0.3864(2) 0.7086(2) 0.5653(3)
H9B H -0.4289 0.7078 0.5052
H10B H -0.3924 0.6528 0.5929
H11B H -0.4175 0.7527 0.5997
C12B C -0.1539(3) 0.74105(18) 0.67546(17)
H12B H -0.1472 0.6844 0.7029
H13B H -0.0783 0.7637 0.6730
H14B H -0.1935 0.7795 0.7103
C13B C -0.1747(2) 0.64382(15) 0.50428(19)
H15B H -0.186(3) 0.5941(19) 0.531(2)
H16B H -0.095(3) 0.652(2) 0.506(2)
H17B H -0.206(3) 0.637(2) 0.450(2)
C14B C -0.5548(2) 0.9682(2) 0.33695(19)
H18B H -0.611(3) 0.992(2) 0.290(2)
H19B H -0.564(3) 0.910(2) 0.340(2)
H20B H -0.563(3) 0.991(2) 0.392(2)
C15B C -0.3943(2) 0.95845(17) 0.20567(15)
H21B H -0.327(3) 0.9769(18) 0.1920(19)
H22B H -0.454(2) 0.9778(17) 0.1625(18)
H23B H -0.393(2) 0.9017(18) 0.2074(17)
C16B C -0.3954(2) 1.11575(14) 0.32485(17)
H24B H -0.413(2) 1.1350(19) 0.381(2)
H25B H -0.452(2) 1.1433(17) 0.2851(17)
H26B H -0.320(3) 1.1367(19) 0.3150(19)
C17B C -0.0914(3) 1.10932(17) 0.2259(2)
H27B H -0.167(3) 1.1033(18) 0.2238(19)
H28B H -0.085(3) 1.153(2) 0.182(2)
H29B H -0.063(3) 1.124(2) 0.280(2)
C18B C -0.10785(19) 0.96760(16) 0.08998(14)
H30B H -0.080(2) 0.9174(17) 0.0735(18)
H31B H -0.107(2) 1.0064(19) 0.0442(19)
H32B H -0.187(2) 0.9569(15) 0.0932(15)
C19B C 0.1220(2) 1.02785(17) 0.18437(16)
H33B H 0.158(2) 0.9804(18) 0.1739(18)
H34B H 0.168(3) 1.0490(19) 0.238(2)
H35B H 0.123(3) 1.062(2) 0.142(2)
C20B C 0.1473(2) 0.75147(18) 0.57018(15)
H36B H 0.2103 0.7189 0.6030
H37B H 0.1549 0.8117 0.5873
H38B H 0.0757 0.7291 0.5835
C21B C 0.29348(18) 0.76982(15) 0.42872(16)
H39B H 0.299(2) 0.7583(18) 0.3717(19)
H40B H 0.315(2) 0.8254(17) 0.4454(17)
H41B H 0.345(3) 0.735(2) 0.461(2)
C22B C 0.1191(2) 0.62919(15) 0.41365(19)
H42B H 0.172(3) 0.592(2) 0.450(2)
H43B H 0.047(2) 0.6117(17) 0.4236(18)
H44B H 0.128(2) 0.6224(19) 0.356(2)
Zr1 Zr 1.094378(15) 0.078927(12) 0.569362(12)
H1 H 1.029(5) 0.148(4) 0.465(4)
Si1 Si 1.23496(5) 0.26740(4) 0.43805(4)
Si2 Si 1.41059(4) 0.00230(3) 0.68322(4)
Si3 Si 1.02770(5) -0.00660(3) 0.80313(4)
Si4 Si 0.85087(5) 0.25857(3) 0.55013(4)
O1 O 1.0147(3) -0.02121(18) 0.51883(19)
C1 C 1.23610(17) 0.16248(12) 0.49544(13)
C2 C 1.21939(16) 0.08129(12) 0.45277(12)
H3 H 1.1835(19) 0.0708(13) 0.3959(15)
C3 C 1.26240(15) 0.01739(12) 0.51153(12)
H4 H 1.2577(18) -0.0432(14) 0.4998(14)
C4 C 1.30903(15) 0.05501(11) 0.59404(12)
C5 C 1.29307(15) 0.14429(11) 0.58197(13)
H5 H 1.3186(17) 0.1884(13) 0.6257(13)
C6 C 1.02778(16) 0.08113(12) 0.72024(12)
C7 C 1.11054(16) 0.14697(12) 0.72116(12)
H6 H 1.1832(18) 0.1465(13) 0.7567(13)
C8 C 1.06810(16) 0.21062(12) 0.66101(12)
H7 H 1.1041(18) 0.2610(13) 0.6481(13)
C9 C 0.95663(15) 0.18780(12) 0.61914(12)
C10 C 0.93412(15) 0.10843(12) 0.65718(12)
H8 H 0.8649(16) 0.0789(11) 0.6416(12)
C11 C 1.3864(2) 0.2914(2) 0.4347(3)
H9 H 1.4289 0.2922 0.4948
H10 H 1.3924 0.3472 0.4071
H11 H 1.4175 0.2473 0.4003
C12 C 1.1539(3) 0.25895(18) 0.32454(17)
H12 H 1.1472 0.3156 0.2971
H13 H 1.0783 0.2363 0.3270
H14 H 1.1935 0.2205 0.2897
C13 C 1.1747(2) 0.35618(15) 0.49572(19)
H15 H 1.186(3) 0.4059(19) 0.469(2)
H16 H 1.095(3) 0.348(2) 0.494(2)
H17 H 1.206(3) 0.363(2) 0.550(2)
C14 C 1.5548(2) 0.0318(2) 0.66305(19)
H18 H 1.611(3) 0.008(2) 0.710(2)
H19 H 1.564(3) 0.090(2) 0.660(2)
H20 H 1.563(3) 0.009(2) 0.608(2)
C15 C 1.3943(2) 0.04155(17) 0.79433(15)
H21 H 1.327(3) 0.0231(18) 0.8080(19)
H22 H 1.454(2) 0.0222(17) 0.8375(18)
H23 H 1.393(2) 0.0983(18) 0.7926(17)
C16 C 1.3954(2) -0.11575(14) 0.67515(17)
H24 H 1.413(2) -0.1350(19) 0.619(2)
H25 H 1.452(2) -0.1433(17) 0.7149(17)
H26 H 1.320(3) -0.1367(19) 0.6850(19)
C17 C 1.0914(3) -0.10932(17) 0.7741(2)
H27 H 1.167(3) -0.1033(18) 0.7762(19)
H28 H 1.085(3) -0.153(2) 0.818(2)
H29 H 1.063(3) -0.124(2) 0.720(2)
C18 C 1.10785(19) 0.03240(16) 0.91002(14)
H30 H 1.080(2) 0.0826(17) 0.9265(18)
H31 H 1.107(2) -0.0064(19) 0.9558(19)
H32 H 1.187(2) 0.0431(15) 0.9068(15)
C19 C 0.8780(2) -0.02785(17) 0.81563(16)
H33 H 0.842(2) 0.0196(18) 0.8261(18)
H34 H 0.832(3) -0.0490(19) 0.762(2)
H35 H 0.877(3) -0.062(2) 0.858(2)
C20 C 0.8527(2) 0.24853(18) 0.42982(15)
H36 H 0.7897 0.2811 0.3970
H37 H 0.8451 0.1883 0.4127
H38 H 0.9243 0.2709 0.4165
C21 C 0.70652(18) 0.23018(15) 0.57128(16)
H39 H 0.701(2) 0.2417(18) 0.6283(19)
H40 H 0.685(2) 0.1746(17) 0.5546(17)
H41 H 0.655(3) 0.265(2) 0.539(2)
C22 C 0.8809(2) 0.37081(15) 0.58635(19)
H42 H 0.828(3) 0.408(2) 0.550(2)
H43 H 0.953(2) 0.3883(17) 0.5764(18)
H44 H 0.872(2) 0.3776(19) 0.644(2)
Zr1B Zr 0.905622(15) -0.078927(12) 0.430638(12)
H1B H 0.971(5) -0.148(4) 0.535(4)
Si1B Si 0.76504(5) -0.26740(4) 0.56195(4)
Si2B Si 0.58941(4) -0.00230(3) 0.31678(4)
Si3B Si 0.97230(5) 0.00660(3) 0.19687(4)
Si4B Si 1.14913(5) -0.25857(3) 0.44987(4)
O1B O 0.9853(3) 0.02121(18) 0.48117(19)
C1B C 0.76390(17) -0.16248(12) 0.50456(13)
C2B C 0.78061(16) -0.08129(12) 0.54723(12)
H3B H 0.8165(19) -0.0708(13) 0.6041(15)
C3B C 0.73760(15) -0.01739(12) 0.48847(12)
H4B H 0.7423(18) 0.0432(14) 0.5002(14)
C4B C 0.69097(15) -0.05501(11) 0.40596(12)
C5B C 0.70693(15) -0.14429(11) 0.41803(13)
H5B H 0.6814(17) -0.1884(13) 0.3743(13)
C6B C 0.97222(16) -0.08113(12) 0.27976(12)
C7B C 0.88946(16) -0.14697(12) 0.27884(12)
H6B H 0.8168(18) -0.1465(13) 0.2433(13)
C8B C 0.93190(16) -0.21062(12) 0.33899(12)
H7B H 0.8959(18) -0.2610(13) 0.3519(13)
C9B C 1.04337(15) -0.18780(12) 0.38086(12)
C10B C 1.06588(15) -0.10843(12) 0.34282(12)
H8B H 1.1351(16) -0.0789(11) 0.3584(12)
C11B C 0.6136(2) -0.2914(2) 0.5653(3)
H9B H 0.5711 -0.2922 0.5052
H10B H 0.6076 -0.3472 0.5929
H11B H 0.5825 -0.2473 0.5997
C12B C 0.8461(3) -0.25895(18) 0.67546(17)
H12B H 0.8528 -0.3156 0.7029
H13B H 0.9217 -0.2363 0.6730
H14B H 0.8065 -0.2205 0.7103
C13B C 0.8253(2) -0.35618(15) 0.50428(19)
H15B H 0.814(3) -0.4059(19) 0.531(2)
H16B H 0.905(3) -0.348(2) 0.506(2)
H17B H 0.794(3) -0.363(2) 0.450(2)
C14B C 0.4452(2) -0.0318(2) 0.33695(19)
H18B H 0.389(3) -0.008(2) 0.290(2)
H19B H 0.436(3) -0.090(2) 0.340(2)
H20B H 0.437(3) -0.009(2) 0.392(2)
C15B C 0.6057(2) -0.04155(17) 0.20567(15)
H21B H 0.673(3) -0.0231(18) 0.1920(19)
H22B H 0.546(2) -0.0222(17) 0.1625(18)
H23B H 0.607(2) -0.0983(18) 0.2074(17)
C16B C 0.6046(2) 0.11575(14) 0.32485(17)
H24B H 0.587(2) 0.1350(19) 0.381(2)
H25B H 0.548(2) 0.1433(17) 0.2851(17)
H26B H 0.680(3) 0.1367(19) 0.3150(19)
C17B C 0.9086(3) 0.10932(17) 0.2259(2)
H27B H 0.833(3) 0.1033(18) 0.2238(19)
H28B H 0.915(3) 0.153(2) 0.182(2)
H29B H 0.937(3) 0.124(2) 0.280(2)
C18B C 0.89215(19) -0.03240(16) 0.08998(14)
H30B H 0.920(2) -0.0826(17) 0.0735(18)
H31B H 0.893(2) 0.0064(19) 0.0442(19)
H32B H 0.813(2) -0.0431(15) 0.0932(15)
C19B C 1.1220(2) 0.02785(17) 0.18437(16)
H33B H 1.158(2) -0.0196(18) 0.1739(18)
H34B H 1.168(3) 0.0490(19) 0.238(2)
H35B H 1.123(3) 0.062(2) 0.142(2)
C20B C 1.1473(2) -0.24853(18) 0.57018(15)
H36B H 1.2103 -0.2811 0.6030
H37B H 1.1549 -0.1883 0.5873
H38B H 1.0757 -0.2709 0.5835
C21B C 1.29348(18) -0.23018(15) 0.42872(16)
H39B H 1.299(2) -0.2417(18) 0.3717(19)
H40B H 1.315(2) -0.1746(17) 0.4454(17)
H41B H 1.345(3) -0.265(2) 0.461(2)
C22B C 1.1191(2) -0.37081(15) 0.41365(19)
H42B H 1.172(3) -0.408(2) 0.450(2)
H43B H 1.047(2) -0.3883(17) 0.4236(18)
H44B H 1.128(2) -0.3776(19) 0.356(2)
Zr1 Zr 1.094378(15) 1.078927(12) 0.569362(12)
H1 H 1.029(5) 1.148(4) 0.465(4)
Si1 Si 1.23496(5) 1.26740(4) 0.43805(4)
Si2 Si 1.41059(4) 1.00230(3) 0.68322(4)
Si3 Si 1.02770(5) 0.99340(3) 0.80313(4)
Si4 Si 0.85087(5) 1.25857(3) 0.55013(4)
O1 O 1.0147(3) 0.97879(18) 0.51883(19)
C1 C 1.23610(17) 1.16248(12) 0.49544(13)
C2 C 1.21939(16) 1.08129(12) 0.45277(12)
H3 H 1.1835(19) 1.0708(13) 0.3959(15)
C3 C 1.26240(15) 1.01739(12) 0.51153(12)
H4 H 1.2577(18) 0.9568(14) 0.4998(14)
C4 C 1.30903(15) 1.05501(11) 0.59404(12)
C5 C 1.29307(15) 1.14429(11) 0.58197(13)
H5 H 1.3186(17) 1.1884(13) 0.6257(13)
C6 C 1.02778(16) 1.08113(12) 0.72024(12)
C7 C 1.11054(16) 1.14697(12) 0.72116(12)
H6 H 1.1832(18) 1.1465(13) 0.7567(13)
C8 C 1.06810(16) 1.21062(12) 0.66101(12)
H7 H 1.1041(18) 1.2610(13) 0.6481(13)
C9 C 0.95663(15) 1.18780(12) 0.61914(12)
C10 C 0.93412(15) 1.10843(12) 0.65718(12)
H8 H 0.8649(16) 1.0789(11) 0.6416(12)
C11 C 1.3864(2) 1.2914(2) 0.4347(3)
H9 H 1.4289 1.2922 0.4948
H10 H 1.3924 1.3472 0.4071
H11 H 1.4175 1.2473 0.4003
C12 C 1.1539(3) 1.25895(18) 0.32454(17)
H12 H 1.1472 1.3156 0.2971
H13 H 1.0783 1.2363 0.3270
H14 H 1.1935 1.2205 0.2897
C13 C 1.1747(2) 1.35618(15) 0.49572(19)
H15 H 1.186(3) 1.4059(19) 0.469(2)
H16 H 1.095(3) 1.348(2) 0.494(2)
H17 H 1.206(3) 1.363(2) 0.550(2)
C14 C 1.5548(2) 1.0318(2) 0.66305(19)
H18 H 1.611(3) 1.008(2) 0.710(2)
H19 H 1.564(3) 1.090(2) 0.660(2)
H20 H 1.563(3) 1.009(2) 0.608(2)
C15 C 1.3943(2) 1.04155(17) 0.79433(15)
H21 H 1.327(3) 1.0231(18) 0.8080(19)
H22 H 1.454(2) 1.0222(17) 0.8375(18)
H23 H 1.393(2) 1.0983(18) 0.7926(17)
C16 C 1.3954(2) 0.88425(14) 0.67515(17)
H24 H 1.413(2) 0.8650(19) 0.619(2)
H25 H 1.452(2) 0.8567(17) 0.7149(17)
H26 H 1.320(3) 0.8633(19) 0.6850(19)
C17 C 1.0914(3) 0.89068(17) 0.7741(2)
H27 H 1.167(3) 0.8967(18) 0.7762(19)
H28 H 1.085(3) 0.847(2) 0.818(2)
H29 H 1.063(3) 0.876(2) 0.720(2)
C18 C 1.10785(19) 1.03240(16) 0.91002(14)
H30 H 1.080(2) 1.0826(17) 0.9265(18)
H31 H 1.107(2) 0.9936(19) 0.9558(19)
H32 H 1.187(2) 1.0431(15) 0.9068(15)
C19 C 0.8780(2) 0.97215(17) 0.81563(16)
H33 H 0.842(2) 1.0196(18) 0.8261(18)
H34 H 0.832(3) 0.9510(19) 0.762(2)
H35 H 0.877(3) 0.938(2) 0.858(2)
C20 C 0.8527(2) 1.24853(18) 0.42982(15)
H36 H 0.7897 1.2811 0.3970
H37 H 0.8451 1.1883 0.4127
H38 H 0.9243 1.2709 0.4165
C21 C 0.70652(18) 1.23018(15) 0.57128(16)
H39 H 0.701(2) 1.2417(18) 0.6283(19)
H40 H 0.685(2) 1.1746(17) 0.5546(17)
H41 H 0.655(3) 1.265(2) 0.539(2)
C22 C 0.8809(2) 1.37081(15) 0.58635(19)
H42 H 0.828(3) 1.408(2) 0.550(2)
H43 H 0.953(2) 1.3883(17) 0.5764(18)
H44 H 0.872(2) 1.3776(19) 0.644(2)
Zr1B Zr 0.905622(15) 0.921073(12) 0.430638(12)
H1B H 0.971(5) 0.852(4) 0.535(4)
Si1B Si 0.76504(5) 0.73260(4) 0.56195(4)
Si2B Si 0.58941(4) 0.99770(3) 0.31678(4)
Si3B Si 0.97230(5) 1.00660(3) 0.19687(4)
Si4B Si 1.14913(5) 0.74143(3) 0.44987(4)
O1B O 0.9853(3) 1.02121(18) 0.48117(19)
C1B C 0.76390(17) 0.83752(12) 0.50456(13)
C2B C 0.78061(16) 0.91871(12) 0.54723(12)
H3B H 0.8165(19) 0.9292(13) 0.6041(15)
C3B C 0.73760(15) 0.98261(12) 0.48847(12)
H4B H 0.7423(18) 1.0432(14) 0.5002(14)
C4B C 0.69097(15) 0.94499(11) 0.40596(12)
C5B C 0.70693(15) 0.85571(11) 0.41803(13)
H5B H 0.6814(17) 0.8116(13) 0.3743(13)
C6B C 0.97222(16) 0.91887(12) 0.27976(12)
C7B C 0.88946(16) 0.85303(12) 0.27884(12)
H6B H 0.8168(18) 0.8535(13) 0.2433(13)
C8B C 0.93190(16) 0.78938(12) 0.33899(12)
H7B H 0.8959(18) 0.7390(13) 0.3519(13)
C9B C 1.04337(15) 0.81220(12) 0.38086(12)
C10B C 1.06588(15) 0.89157(12) 0.34282(12)
H8B H 1.1351(16) 0.9211(11) 0.3584(12)
C11B C 0.6136(2) 0.7086(2) 0.5653(3)
H9B H 0.5711 0.7078 0.5052
H10B H 0.6076 0.6528 0.5929
H11B H 0.5825 0.7527 0.5997
C12B C 0.8461(3) 0.74105(18) 0.67546(17)
H12B H 0.8528 0.6844 0.7029
H13B H 0.9217 0.7637 0.6730
H14B H 0.8065 0.7795 0.7103
C13B C 0.8253(2) 0.64382(15) 0.50428(19)
H15B H 0.814(3) 0.5941(19) 0.531(2)
H16B H 0.905(3) 0.652(2) 0.506(2)
H17B H 0.794(3) 0.637(2) 0.450(2)
C14B C 0.4452(2) 0.9682(2) 0.33695(19)
H18B H 0.389(3) 0.992(2) 0.290(2)
H19B H 0.436(3) 0.910(2) 0.340(2)
H20B H 0.437(3) 0.991(2) 0.392(2)
C15B C 0.6057(2) 0.95845(17) 0.20567(15)
H21B H 0.673(3) 0.9769(18) 0.1920(19)
H22B H 0.546(2) 0.9778(17) 0.1625(18)
H23B H 0.607(2) 0.9017(18) 0.2074(17)
C16B C 0.6046(2) 1.11575(14) 0.32485(17)
H24B H 0.587(2) 1.1350(19) 0.381(2)
H25B H 0.548(2) 1.1433(17) 0.2851(17)
H26B H 0.680(3) 1.1367(19) 0.3150(19)
C17B C 0.9086(3) 1.10932(17) 0.2259(2)
H27B H 0.833(3) 1.1033(18) 0.2238(19)
H28B H 0.915(3) 1.153(2) 0.182(2)
H29B H 0.937(3) 1.124(2) 0.280(2)
C18B C 0.89215(19) 0.96760(16) 0.08998(14)
H30B H 0.920(2) 0.9174(17) 0.0735(18)
H31B H 0.893(2) 1.0064(19) 0.0442(19)
H32B H 0.813(2) 0.9569(15) 0.0932(15)
C19B C 1.1220(2) 1.02785(17) 0.18437(16)
H33B H 1.158(2) 0.9804(18) 0.1739(18)
H34B H 1.168(3) 1.0490(19) 0.238(2)
H35B H 1.123(3) 1.062(2) 0.142(2)
C20B C 1.1473(2) 0.75147(18) 0.57018(15)
H36B H 1.2103 0.7189 0.6030
H37B H 1.1549 0.8117 0.5873
H38B H 1.0757 0.7291 0.5835
C21B C 1.29348(18) 0.76982(15) 0.42872(16)
H39B H 1.299(2) 0.7583(18) 0.3717(19)
H40B H 1.315(2) 0.8254(17) 0.4454(17)
H41B H 1.345(3) 0.735(2) 0.461(2)
C22B C 1.1191(2) 0.62919(15) 0.41365(19)
H42B H 1.172(3) 0.592(2) 0.450(2)
H43B H 1.047(2) 0.6117(17) 0.4236(18)
H44B H 1.128(2) 0.6224(19) 0.356(2)
Zr1 Zr 0.405622(15) 0.578927(12) -0.069362(12)
H1 H 0.471(5) 0.648(4) 0.035(4)
Si1 Si 0.26504(5) 0.76740(4) 0.06195(4)
Si2 Si 0.08941(4) 0.50230(3) -0.18322(4)
Si3 Si 0.47230(5) 0.49340(3) -0.30313(4)
Si4 Si 0.64913(5) 0.75857(3) -0.05013(4)
O1 O 0.4853(3) 0.47879(18) -0.01883(19)
C1 C 0.26390(17) 0.66248(12) 0.00456(13)
C2 C 0.28061(16) 0.58129(12) 0.04723(12)
H3 H 0.3165(19) 0.5708(13) 0.1041(15)
C3 C 0.23760(15) 0.51739(12) -0.01153(12)
H4 H 0.2423(18) 0.4568(14) 0.0002(14)
C4 C 0.19097(15) 0.55501(11) -0.09404(12)
C5 C 0.20693(15) 0.64429(11) -0.08197(13)
H5 H 0.1814(17) 0.6884(13) -0.1257(13)
C6 C 0.47222(16) 0.58113(12) -0.22024(12)
C7 C 0.38946(16) 0.64697(12) -0.22116(12)
H6 H 0.3168(18) 0.6465(13) -0.2567(13)
C8 C 0.43190(16) 0.71062(12) -0.16101(12)
H7 H 0.3959(18) 0.7610(13) -0.1481(13)
C9 C 0.54337(15) 0.68780(12) -0.11914(12)
C10 C 0.56588(15) 0.60843(12) -0.15718(12)
H8 H 0.6351(16) 0.5789(11) -0.1416(12)
C11 C 0.1136(2) 0.7914(2) 0.0653(3)
H9 H 0.0711 0.7922 0.0052
H10 H 0.1076 0.8472 0.0929
H11 H 0.0825 0.7473 0.0997
C12 C 0.3461(3) 0.75895(18) 0.17546(17)
H12 H 0.3528 0.8156 0.2029
H13 H 0.4217 0.7363 0.1730
H14 H 0.3065 0.7205 0.2103
C13 C 0.3253(2) 0.85618(15) 0.00428(19)
H15 H 0.314(3) 0.9059(19) 0.031(2)
H16 H 0.405(3) 0.848(2) 0.006(2)
H17 H 0.294(3) 0.863(2) -0.050(2)
C14 C -0.0548(2) 0.5318(2) -0.16305(19)
H18 H -0.111(3) 0.508(2) -0.210(2)
H19 H -0.064(3) 0.590(2) -0.160(2)
H20 H -0.063(3) 0.509(2) -0.108(2)
C15 C 0.1057(2) 0.54155(17) -0.29433(15)
H21 H 0.173(3) 0.5231(18) -0.3080(19)
H22 H 0.046(2) 0.5222(17) -0.3375(18)
H23 H 0.107(2) 0.5983(18) -0.2926(17)
C16 C 0.1046(2) 0.38425(14) -0.17515(17)
H24 H 0.087(2) 0.3650(19) -0.119(2)
H25 H 0.048(2) 0.3567(17) -0.2149(17)
H26 H 0.180(3) 0.3633(19) -0.1850(19)
C17 C 0.4086(3) 0.39068(17) -0.2741(2)
H27 H 0.333(3) 0.3967(18) -0.2762(19)
H28 H 0.415(3) 0.347(2) -0.318(2)
H29 H 0.437(3) 0.376(2) -0.220(2)
C18 C 0.39215(19) 0.53240(16) -0.41002(14)
H30 H 0.420(2) 0.5826(17) -0.4265(18)
H31 H 0.393(2) 0.4936(19) -0.4558(19)
H32 H 0.313(2) 0.5431(15) -0.4068(15)
C19 C 0.6220(2) 0.47215(17) -0.31563(16)
H33 H 0.658(2) 0.5196(18) -0.3261(18)
H34 H 0.668(3) 0.4510(19) -0.262(2)
H35 H 0.623(3) 0.438(2) -0.358(2)
C20 C 0.6473(2) 0.74853(18) 0.07018(15)
H36 H 0.7103 0.7811 0.1030
H37 H 0.6549 0.6883 0.0873
H38 H 0.5757 0.7709 0.0835
C21 C 0.79348(18) 0.73018(15) -0.07128(16)
H39 H 0.799(2) 0.7417(18) -0.1283(19)
H40 H 0.815(2) 0.6746(17) -0.0546(17)
H41 H 0.845(3) 0.765(2) -0.039(2)
C22 C 0.6191(2) 0.87081(15) -0.08635(19)
H42 H 0.672(3) 0.908(2) -0.050(2)
H43 H 0.547(2) 0.8883(17) -0.0764(18)
H44 H 0.628(2) 0.8776(19) -0.144(2)
Zr1B Zr 0.594378(15) 0.421073(12) 0.069362(12)
H1B H 0.529(5) 0.352(4) -0.035(4)
Si1B Si 0.73496(5) 0.23260(4) -0.06195(4)
Si2B Si 0.91059(4) 0.49770(3) 0.18322(4)
Si3B Si 0.52770(5) 0.50660(3) 0.30313(4)
Si4B Si 0.35087(5) 0.24143(3) 0.05013(4)
O1B O 0.5147(3) 0.52121(18) 0.01883(19)
C1B C 0.73610(17) 0.33752(12) -0.00456(13)
C2B C 0.71939(16) 0.41871(12) -0.04723(12)
H3B H 0.6835(19) 0.4292(13) -0.1041(15)
C3B C 0.76240(15) 0.48261(12) 0.01153(12)
H4B H 0.7577(18) 0.5432(14) -0.0002(14)
C4B C 0.80903(15) 0.44499(11) 0.09404(12)
C5B C 0.79307(15) 0.35571(11) 0.08197(13)
H5B H 0.8186(17) 0.3116(13) 0.1257(13)
C6B C 0.52778(16) 0.41887(12) 0.22024(12)
C7B C 0.61054(16) 0.35303(12) 0.22116(12)
H6B H 0.6832(18) 0.3535(13) 0.2567(13)
C8B C 0.56810(16) 0.28938(12) 0.16101(12)
H7B H 0.6041(18) 0.2390(13) 0.1481(13)
C9B C 0.45663(15) 0.31220(12) 0.11914(12)
C10B C 0.43412(15) 0.39157(12) 0.15718(12)
H8B H 0.3649(16) 0.4211(11) 0.1416(12)
C11B C 0.8864(2) 0.2086(2) -0.0653(3)
H9B H 0.9289 0.2078 -0.0052
H10B H 0.8924 0.1528 -0.0929
H11B H 0.9175 0.2527 -0.0997
C12B C 0.6539(3) 0.24105(18) -0.17546(17)
H12B H 0.6472 0.1844 -0.2029
H13B H 0.5783 0.2637 -0.1730
H14B H 0.6935 0.2795 -0.2103
C13B C 0.6747(2) 0.14382(15) -0.00428(19)
H15B H 0.686(3) 0.0941(19) -0.031(2)
H16B H 0.595(3) 0.152(2) -0.006(2)
H17B H 0.706(3) 0.137(2) 0.050(2)
C14B C 1.0548(2) 0.4682(2) 0.16305(19)
H18B H 1.111(3) 0.492(2) 0.210(2)
H19B H 1.064(3) 0.410(2) 0.160(2)
H20B H 1.063(3) 0.491(2) 0.108(2)
C15B C 0.8943(2) 0.45845(17) 0.29433(15)
H21B H 0.827(3) 0.4769(18) 0.3080(19)
H22B H 0.954(2) 0.4778(17) 0.3375(18)
H23B H 0.893(2) 0.4017(18) 0.2926(17)
C16B C 0.8954(2) 0.61575(14) 0.17515(17)
H24B H 0.913(2) 0.6350(19) 0.119(2)
H25B H 0.952(2) 0.6433(17) 0.2149(17)
H26B H 0.820(3) 0.6367(19) 0.1850(19)
C17B C 0.5914(3) 0.60932(17) 0.2741(2)
H27B H 0.667(3) 0.6033(18) 0.2762(19)
H28B H 0.585(3) 0.653(2) 0.318(2)
H29B H 0.563(3) 0.624(2) 0.220(2)
C18B C 0.60785(19) 0.46760(16) 0.41002(14)
H30B H 0.580(2) 0.4174(17) 0.4265(18)
H31B H 0.607(2) 0.5064(19) 0.4558(19)
H32B H 0.687(2) 0.4569(15) 0.4068(15)
C19B C 0.3780(2) 0.52785(17) 0.31563(16)
H33B H 0.342(2) 0.4804(18) 0.3261(18)
H34B H 0.332(3) 0.5490(19) 0.262(2)
H35B H 0.377(3) 0.562(2) 0.358(2)
C20B C 0.3527(2) 0.25147(18) -0.07018(15)
H36B H 0.2897 0.2189 -0.1030
H37B H 0.3451 0.3117 -0.0873
H38B H 0.4243 0.2291 -0.0835
C21B C 0.20652(18) 0.26982(15) 0.07128(16)
H39B H 0.201(2) 0.2583(18) 0.1283(19)
H40B H 0.185(2) 0.3254(17) 0.0546(17)
H41B H 0.155(3) 0.235(2) 0.039(2)
C22B C 0.3809(2) 0.12919(15) 0.08635(19)
H42B H 0.328(3) 0.092(2) 0.050(2)
H43B H 0.453(2) 0.1117(17) 0.0764(18)
H44B H 0.372(2) 0.1224(19) 0.144(2)
Zr1 Zr 0.405622(15) 0.578927(12) 0.930638(12)
H1 H 0.471(5) 0.648(4) 1.035(4)
Si1 Si 0.26504(5) 0.76740(4) 1.06195(4)
Si2 Si 0.08941(4) 0.50230(3) 0.81678(4)
Si3 Si 0.47230(5) 0.49340(3) 0.69687(4)
Si4 Si 0.64913(5) 0.75857(3) 0.94987(4)
O1 O 0.4853(3) 0.47879(18) 0.98117(19)
C1 C 0.26390(17) 0.66248(12) 1.00456(13)
C2 C 0.28061(16) 0.58129(12) 1.04723(12)
H3 H 0.3165(19) 0.5708(13) 1.1041(15)
C3 C 0.23760(15) 0.51739(12) 0.98847(12)
H4 H 0.2423(18) 0.4568(14) 1.0002(14)
C4 C 0.19097(15) 0.55501(11) 0.90596(12)
C5 C 0.20693(15) 0.64429(11) 0.91803(13)
H5 H 0.1814(17) 0.6884(13) 0.8743(13)
C6 C 0.47222(16) 0.58113(12) 0.77976(12)
C7 C 0.38946(16) 0.64697(12) 0.77884(12)
H6 H 0.3168(18) 0.6465(13) 0.7433(13)
C8 C 0.43190(16) 0.71062(12) 0.83899(12)
H7 H 0.3959(18) 0.7610(13) 0.8519(13)
C9 C 0.54337(15) 0.68780(12) 0.88086(12)
C10 C 0.56588(15) 0.60843(12) 0.84282(12)
H8 H 0.6351(16) 0.5789(11) 0.8584(12)
C11 C 0.1136(2) 0.7914(2) 1.0653(3)
H9 H 0.0711 0.7922 1.0052
H10 H 0.1076 0.8472 1.0929
H11 H 0.0825 0.7473 1.0997
C12 C 0.3461(3) 0.75895(18) 1.17546(17)
H12 H 0.3528 0.8156 1.2029
H13 H 0.4217 0.7363 1.1730
H14 H 0.3065 0.7205 1.2103
C13 C 0.3253(2) 0.85618(15) 1.00428(19)
H15 H 0.314(3) 0.9059(19) 1.031(2)
H16 H 0.405(3) 0.848(2) 1.006(2)
H17 H 0.294(3) 0.863(2) 0.950(2)
C14 C -0.0548(2) 0.5318(2) 0.83695(19)
H18 H -0.111(3) 0.508(2) 0.790(2)
H19 H -0.064(3) 0.590(2) 0.840(2)
H20 H -0.063(3) 0.509(2) 0.892(2)
C15 C 0.1057(2) 0.54155(17) 0.70567(15)
H21 H 0.173(3) 0.5231(18) 0.6920(19)
H22 H 0.046(2) 0.5222(17) 0.6625(18)
H23 H 0.107(2) 0.5983(18) 0.7074(17)
C16 C 0.1046(2) 0.38425(14) 0.82485(17)
H24 H 0.087(2) 0.3650(19) 0.881(2)
H25 H 0.048(2) 0.3567(17) 0.7851(17)
H26 H 0.180(3) 0.3633(19) 0.8150(19)
C17 C 0.4086(3) 0.39068(17) 0.7259(2)
H27 H 0.333(3) 0.3967(18) 0.7238(19)
H28 H 0.415(3) 0.347(2) 0.682(2)
H29 H 0.437(3) 0.376(2) 0.780(2)
C18 C 0.39215(19) 0.53240(16) 0.58998(14)
H30 H 0.420(2) 0.5826(17) 0.5735(18)
H31 H 0.393(2) 0.4936(19) 0.5442(19)
H32 H 0.313(2) 0.5431(15) 0.5932(15)
C19 C 0.6220(2) 0.47215(17) 0.68437(16)
H33 H 0.658(2) 0.5196(18) 0.6739(18)
H34 H 0.668(3) 0.4510(19) 0.738(2)
H35 H 0.623(3) 0.438(2) 0.642(2)
C20 C 0.6473(2) 0.74853(18) 1.07018(15)
H36 H 0.7103 0.7811 1.1030
H37 H 0.6549 0.6883 1.0873
H38 H 0.5757 0.7709 1.0835
C21 C 0.79348(18) 0.73018(15) 0.92872(16)
H39 H 0.799(2) 0.7417(18) 0.8717(19)
H40 H 0.815(2) 0.6746(17) 0.9454(17)
H41 H 0.845(3) 0.765(2) 0.961(2)
C22 C 0.6191(2) 0.87081(15) 0.91365(19)
H42 H 0.672(3) 0.908(2) 0.950(2)
H43 H 0.547(2) 0.8883(17) 0.9236(18)
H44 H 0.628(2) 0.8776(19) 0.856(2)
Zr1B Zr 0.594378(15) 0.421073(12) 1.069362(12)
H1B H 0.529(5) 0.352(4) 0.965(4)
Si1B Si 0.73496(5) 0.23260(4) 0.93805(4)
Si2B Si 0.91059(4) 0.49770(3) 1.18322(4)
Si3B Si 0.52770(5) 0.50660(3) 1.30313(4)
Si4B Si 0.35087(5) 0.24143(3) 1.05013(4)
O1B O 0.5147(3) 0.52121(18) 1.01883(19)
C1B C 0.73610(17) 0.33752(12) 0.99544(13)
C2B C 0.71939(16) 0.41871(12) 0.95277(12)
H3B H 0.6835(19) 0.4292(13) 0.8959(15)
C3B C 0.76240(15) 0.48261(12) 1.01153(12)
H4B H 0.7577(18) 0.5432(14) 0.9998(14)
C4B C 0.80903(15) 0.44499(11) 1.09404(12)
C5B C 0.79307(15) 0.35571(11) 1.08197(13)
H5B H 0.8186(17) 0.3116(13) 1.1257(13)
C6B C 0.52778(16) 0.41887(12) 1.22024(12)
C7B C 0.61054(16) 0.35303(12) 1.22116(12)
H6B H 0.6832(18) 0.3535(13) 1.2567(13)
C8B C 0.56810(16) 0.28938(12) 1.16101(12)
H7B H 0.6041(18) 0.2390(13) 1.1481(13)
C9B C 0.45663(15) 0.31220(12) 1.11914(12)
C10B C 0.43412(15) 0.39157(12) 1.15718(12)
H8B H 0.3649(16) 0.4211(11) 1.1416(12)
C11B C 0.8864(2) 0.2086(2) 0.9347(3)
H9B H 0.9289 0.2078 0.9948
H10B H 0.8924 0.1528 0.9071
H11B H 0.9175 0.2527 0.9003
C12B C 0.6539(3) 0.24105(18) 0.82454(17)
H12B H 0.6472 0.1844 0.7971
H13B H 0.5783 0.2637 0.8270
H14B H 0.6935 0.2795 0.7897
C13B C 0.6747(2) 0.14382(15) 0.99572(19)
H15B H 0.686(3) 0.0941(19) 0.969(2)
H16B H 0.595(3) 0.152(2) 0.994(2)
H17B H 0.706(3) 0.137(2) 1.050(2)
C14B C 1.0548(2) 0.4682(2) 1.16305(19)
H18B H 1.111(3) 0.492(2) 1.210(2)
H19B H 1.064(3) 0.410(2) 1.160(2)
H20B H 1.063(3) 0.491(2) 1.108(2)
C15B C 0.8943(2) 0.45845(17) 1.29433(15)
H21B H 0.827(3) 0.4769(18) 1.3080(19)
H22B H 0.954(2) 0.4778(17) 1.3375(18)
H23B H 0.893(2) 0.4017(18) 1.2926(17)
C16B C 0.8954(2) 0.61575(14) 1.17515(17)
H24B H 0.913(2) 0.6350(19) 1.119(2)
H25B H 0.952(2) 0.6433(17) 1.2149(17)
H26B H 0.820(3) 0.6367(19) 1.1850(19)
C17B C 0.5914(3) 0.60932(17) 1.2741(2)
H27B H 0.667(3) 0.6033(18) 1.2762(19)
H28B H 0.585(3) 0.653(2) 1.318(2)
H29B H 0.563(3) 0.624(2) 1.220(2)
C18B C 0.60785(19) 0.46760(16) 1.41002(14)
H30B H 0.580(2) 0.4174(17) 1.4265(18)
H31B H 0.607(2) 0.5064(19) 1.4558(19)
H32B H 0.687(2) 0.4569(15) 1.4068(15)
C19B C 0.3780(2) 0.52785(17) 1.31563(16)
H33B H 0.342(2) 0.4804(18) 1.3261(18)
H34B H 0.332(3) 0.5490(19) 1.262(2)
H35B H 0.377(3) 0.562(2) 1.358(2)
C20B C 0.3527(2) 0.25147(18) 0.92982(15)
H36B H 0.2897 0.2189 0.8970
H37B H 0.3451 0.3117 0.9127
H38B H 0.4243 0.2291 0.9165
C21B C 0.20652(18) 0.26982(15) 1.07128(16)
H39B H 0.201(2) 0.2583(18) 1.1283(19)
H40B H 0.185(2) 0.3254(17) 1.0546(17)
H41B H 0.155(3) 0.235(2) 1.039(2)
C22B C 0.3809(2) 0.12919(15) 1.08635(19)
H42B H 0.328(3) 0.092(2) 1.050(2)
H43B H 0.453(2) 0.1117(17) 1.0764(18)
H44B H 0.372(2) 0.1224(19) 1.144(2)
H2? H 0.141(4) 0.981(3) 0.636(3)
H2? H 0.359(4) 0.481(3) 0.864(3)
H2? H 0.859(4) 0.019(3) 0.364(3)
H2? H 0.641(4) 0.519(3) 0.136(3)

#END
