./ACOGIJ01_from_xyz.cif_generated_by_CrystalShift
_symmetry_cell_setting triclinic
_symmetry_space_group_name_H-M 'P 1'
loop_
_symmetry_equiv_pos_site_id
_symmetry_equiv_pos_as_xyz
1 x,y,z
_cell_length_a 8.837900
_cell_length_b 19.203300
_cell_length_c 13.093900
_cell_angle_alpha 90.000000
_cell_angle_beta 123.169000
_cell_angle_gamma 90.000000
_cell_volume 1860.162133
loop_
_atom_site_label
_atom_site_type_symbol
_atom_site_fract_x
_atom_site_fract_y
_atom_site_fract_z
Zn1 Zn 0.058500 0.046134 0.323820
O2 O 0.231700 0.128960 0.393420
O3 O 0.175500 0.174240 0.525600
O4 O 0.191500 -0.019280 0.494700
O5 O 0.269400 -0.028350 0.363810
O6 O -0.100900 0.093380 0.373480
H7 H -0.134000 0.067100 0.411000
H8 H -0.018000 0.121000 0.428000
N9 N -0.148200 -0.030320 0.216700
N10 N -0.028100 0.074560 0.143800
C11 C -0.207100 -0.081600 0.253700
H12 H -0.157100 -0.086700 0.336900
C13 C -0.340100 -0.128010 0.173900
H14 H -0.376200 -0.163800 0.203800
C15 C -0.417300 -0.120930 0.052100
H16 H -0.507700 -0.151500 -0.001900
C17 C -0.359900 -0.067070 0.007800
C18 C -0.433200 -0.054780 -0.118700
H19 H -0.525400 -0.083300 -0.176900
C20 C -0.371400 -0.002820 -0.155100
H21 H -0.420500 0.003500 -0.238000
C22 C -0.231400 0.042980 -0.068900
C23 C -0.164000 0.099050 -0.100900
H24 H -0.208300 0.107700 -0.182500
C25 C -0.033900 0.140840 -0.012700
H26 H 0.010800 0.178300 -0.033300
C27 C 0.031700 0.126800 0.109300
H28 H 0.121600 0.155400 0.169100
C29 C -0.158500 0.033050 0.056100
C30 C -0.223100 -0.023220 0.095200
C31 C 0.278300 0.161500 0.490300
C32 C 0.469400 0.188650 0.566700
C33 C 0.610400 0.167660 0.554500
C34 C 0.778400 0.200280 0.627800
H35 H 0.872000 0.188400 0.618300
C36 C 0.809100 0.249560 0.713800
H37 H 0.922100 0.270400 0.761500
C38 C 0.673400 0.267620 0.728600
H39 H 0.694400 0.299800 0.788100
C40 C 0.505500 0.238290 0.655600
H41 H 0.413100 0.251700 0.665400
C42 C 0.599400 0.110120 0.471700
H43 H 0.475300 0.094200 0.420700
H44 H 0.634800 0.128500 0.418700
C45 C 0.281000 -0.049250 0.457700
Zn46 Zn 0.941500 -0.046134 0.676180
O47 O 0.768300 -0.128960 0.606580
O48 O 0.824500 -0.174240 0.474400
O49 O 0.808500 0.019280 0.505300
O50 O 0.730600 0.028350 0.636190
O51 O 1.100900 -0.093380 0.626520
H52 H 1.134000 -0.067100 0.589000
H53 H 1.018000 -0.121000 0.572000
N54 N 1.148200 0.030320 0.783300
N55 N 1.028100 -0.074560 0.856200
C56 C 1.207100 0.081600 0.746300
H57 H 1.157100 0.086700 0.663100
C58 C 1.340100 0.128010 0.826100
H59 H 1.376200 0.163800 0.796200
C60 C 1.417300 0.120930 0.947900
H61 H 1.507700 0.151500 1.001900
C62 C 1.359900 0.067070 0.992200
C63 C 1.433200 0.054780 1.118700
H64 H 1.525400 0.083300 1.176900
C65 C 1.371400 0.002820 1.155100
H66 H 1.420500 -0.003500 1.238000
C67 C 1.231400 -0.042980 1.068900
C68 C 1.164000 -0.099050 1.100900
H69 H 1.208300 -0.107700 1.182500
C70 C 1.033900 -0.140840 1.012700
H71 H 0.989200 -0.178300 1.033300
C72 C 0.968300 -0.126800 0.890700
H73 H 0.878400 -0.155400 0.830900
C74 C 1.158500 -0.033050 0.943900
C75 C 1.223100 0.023220 0.904800
C76 C 0.721700 -0.161500 0.509700
C77 C 0.530600 -0.188650 0.433300
C78 C 0.389600 -0.167660 0.445500
C79 C 0.221600 -0.200280 0.372200
H80 H 0.128000 -0.188400 0.381700
C81 C 0.190900 -0.249560 0.286200
H82 H 0.077900 -0.270400 0.238500
C83 C 0.326600 -0.267620 0.271400
H84 H 0.305600 -0.299800 0.211900
C85 C 0.494500 -0.238290 0.344400
H86 H 0.586900 -0.251700 0.334600
C87 C 0.400600 -0.110120 0.528300
H88 H 0.524700 -0.094200 0.579300
H89 H 0.365200 -0.128500 0.581300
C90 C 0.719000 0.049250 0.542300
Zn91 Zn 0.058500 1.046134 0.323820
O92 O 0.231700 1.128960 0.393420
O93 O 0.175500 1.174240 0.525600
O94 O 0.191500 0.980720 0.494700
O95 O 0.269400 0.971650 0.363810
O96 O -0.100900 1.093380 0.373480
H97 H -0.134000 1.067100 0.411000
H98 H -0.018000 1.121000 0.428000
N99 N -0.148200 0.969680 0.216700
N100 N -0.028100 1.074560 0.143800
C101 C -0.207100 0.918400 0.253700
H102 H -0.157100 0.913300 0.336900
C103 C -0.340100 0.871990 0.173900
H104 H -0.376200 0.836200 0.203800
C105 C -0.417300 0.879070 0.052100
H106 H -0.507700 0.848500 -0.001900
C107 C -0.359900 0.932930 0.007800
C108 C -0.433200 0.945220 -0.118700
H109 H -0.525400 0.916700 -0.176900
C110 C -0.371400 0.997180 -0.155100
H111 H -0.420500 1.003500 -0.238000
C112 C -0.231400 1.042980 -0.068900
C113 C -0.164000 1.099050 -0.100900
H114 H -0.208300 1.107700 -0.182500
C115 C -0.033900 1.140840 -0.012700
H116 H 0.010800 1.178300 -0.033300
C117 C 0.031700 1.126800 0.109300
H118 H 0.121600 1.155400 0.169100
C119 C -0.158500 1.033050 0.056100
C120 C -0.223100 0.976780 0.095200
C121 C 0.278300 1.161500 0.490300
C122 C 0.469400 1.188650 0.566700
C123 C 0.610400 1.167660 0.554500
C124 C 0.778400 1.200280 0.627800
H125 H 0.872000 1.188400 0.618300
C126 C 0.809100 1.249560 0.713800
H127 H 0.922100 1.270400 0.761500
C128 C 0.673400 1.267620 0.728600
H129 H 0.694400 1.299800 0.788100
C130 C 0.505500 1.238290 0.655600
H131 H 0.413100 1.251700 0.665400
C132 C 0.599400 1.110120 0.471700
H133 H 0.475300 1.094200 0.420700
H134 H 0.634800 1.128500 0.418700
C135 C 0.281000 0.950750 0.457700
Zn136 Zn 0.941500 0.953866 0.676180
O137 O 0.768300 0.871040 0.606580
O138 O 0.824500 0.825760 0.474400
O139 O 0.808500 1.019280 0.505300
O140 O 0.730600 1.028350 0.636190
O141 O 1.100900 0.906620 0.626520
H142 H 1.134000 0.932900 0.589000
H143 H 1.018000 0.879000 0.572000
N144 N 1.148200 1.030320 0.783300
N145 N 1.028100 0.925440 0.856200
C146 C 1.207100 1.081600 0.746300
H147 H 1.157100 1.086700 0.663100
C148 C 1.340100 1.128010 0.826100
H149 H 1.376200 1.163800 0.796200
C150 C 1.417300 1.120930 0.947900
H151 H 1.507700 1.151500 1.001900
C152 C 1.359900 1.067070 0.992200
C153 C 1.433200 1.054780 1.118700
H154 H 1.525400 1.083300 1.176900
C155 C 1.371400 1.002820 1.155100
H156 H 1.420500 0.996500 1.238000
C157 C 1.231400 0.957020 1.068900
C158 C 1.164000 0.900950 1.100900
H159 H 1.208300 0.892300 1.182500
C160 C 1.033900 0.859160 1.012700
H161 H 0.989200 0.821700 1.033300
C162 C 0.968300 0.873200 0.890700
H163 H 0.878400 0.844600 0.830900
C164 C 1.158500 0.966950 0.943900
C165 C 1.223100 1.023220 0.904800
C166 C 0.721700 0.838500 0.509700
C167 C 0.530600 0.811350 0.433300
C168 C 0.389600 0.832340 0.445500
C169 C 0.221600 0.799720 0.372200
H170 H 0.128000 0.811600 0.381700
C171 C 0.190900 0.750440 0.286200
H172 H 0.077900 0.729600 0.238500
C173 C 0.326600 0.732380 0.271400
H174 H 0.305600 0.700200 0.211900
C175 C 0.494500 0.761710 0.344400
H176 H 0.586900 0.748300 0.334600
C177 C 0.400600 0.889880 0.528300
H178 H 0.524700 0.905800 0.579300
H179 H 0.365200 0.871500 0.581300
C180 C 0.719000 1.049250 0.542300
Zn181 Zn 0.941500 0.546134 0.176180
O182 O 0.768300 0.628960 0.106580
O183 O 0.824500 0.674240 -0.025600
O184 O 0.808500 0.480720 0.005300
O185 O 0.730600 0.471650 0.136190
O186 O 1.100900 0.593380 0.126520
H187 H 1.134000 0.567100 0.089000
H188 H 1.018000 0.621000 0.072000
N189 N 1.148200 0.469680 0.283300
N190 N 1.028100 0.574560 0.356200
C191 C 1.207100 0.418400 0.246300
H192 H 1.157100 0.413300 0.163100
C193 C 1.340100 0.371990 0.326100
H194 H 1.376200 0.336200 0.296200
C195 C 1.417300 0.379070 0.447900
H196 H 1.507700 0.348500 0.501900
C197 C 1.359900 0.432930 0.492200
C198 C 1.433200 0.445220 0.618700
H199 H 1.525400 0.416700 0.676900
C200 C 1.371400 0.497180 0.655100
H201 H 1.420500 0.503500 0.738000
C202 C 1.231400 0.542980 0.568900
C203 C 1.164000 0.599050 0.600900
H204 H 1.208300 0.607700 0.682500
C205 C 1.033900 0.640840 0.512700
H206 H 0.989200 0.678300 0.533300
C207 C 0.968300 0.626800 0.390700
H208 H 0.878400 0.655400 0.330900
C209 C 1.158500 0.533050 0.443900
C210 C 1.223100 0.476780 0.404800
C211 C 0.721700 0.661500 0.009700
C212 C 0.530600 0.688650 -0.066700
C213 C 0.389600 0.667660 -0.054500
C214 C 0.221600 0.700280 -0.127800
H215 H 0.128000 0.688400 -0.118300
C216 C 0.190900 0.749560 -0.213800
H217 H 0.077900 0.770400 -0.261500
C218 C 0.326600 0.767620 -0.228600
H219 H 0.305600 0.799800 -0.288100
C220 C 0.494500 0.738290 -0.155600
H221 H 0.586900 0.751700 -0.165400
C222 C 0.400600 0.610120 0.028300
H223 H 0.524700 0.594200 0.079300
H224 H 0.365200 0.628500 0.081300
C225 C 0.719000 0.450750 0.042300
Zn226 Zn 0.058500 0.453866 -0.176180
O227 O 0.231700 0.371040 -0.106580
O228 O 0.175500 0.325760 0.025600
O229 O 0.191500 0.519280 -0.005300
O230 O 0.269400 0.528350 -0.136190
O231 O -0.100900 0.406620 -0.126520
H232 H -0.134000 0.432900 -0.089000
H233 H -0.018000 0.379000 -0.072000
N234 N -0.148200 0.530320 -0.283300
N235 N -0.028100 0.425440 -0.356200
C236 C -0.207100 0.581600 -0.246300
H237 H -0.157100 0.586700 -0.163100
C238 C -0.340100 0.628010 -0.326100
H239 H -0.376200 0.663800 -0.296200
C240 C -0.417300 0.620930 -0.447900
H241 H -0.507700 0.651500 -0.501900
C242 C -0.359900 0.567070 -0.492200
C243 C -0.433200 0.554780 -0.618700
H244 H -0.525400 0.583300 -0.676900
C245 C -0.371400 0.502820 -0.655100
H246 H -0.420500 0.496500 -0.738000
C247 C -0.231400 0.457020 -0.568900
C248 C -0.164000 0.400950 -0.600900
H249 H -0.208300 0.392300 -0.682500
C250 C -0.033900 0.359160 -0.512700
H251 H 0.010800 0.321700 -0.533300
C252 C 0.031700 0.373200 -0.390700
H253 H 0.121600 0.344600 -0.330900
C254 C -0.158500 0.466950 -0.443900
C255 C -0.223100 0.523220 -0.404800
C256 C 0.278300 0.338500 -0.009700
C257 C 0.469400 0.311350 0.066700
C258 C 0.610400 0.332340 0.054500
C259 C 0.778400 0.299720 0.127800
H260 H 0.872000 0.311600 0.118300
C261 C 0.809100 0.250440 0.213800
H262 H 0.922100 0.229600 0.261500
C263 C 0.673400 0.232380 0.228600
H264 H 0.694400 0.200200 0.288100
C265 C 0.505500 0.261710 0.155600
H266 H 0.413100 0.248300 0.165400
C267 C 0.599400 0.389880 -0.028300
H268 H 0.475300 0.405800 -0.079300
H269 H 0.634800 0.371500 -0.081300
C270 C 0.281000 0.549250 -0.042300
Zn271 Zn 0.941500 0.546134 1.176180
O272 O 0.768300 0.628960 1.106580
O273 O 0.824500 0.674240 0.974400
O274 O 0.808500 0.480720 1.005300
O275 O 0.730600 0.471650 1.136190
O276 O 1.100900 0.593380 1.126520
H277 H 1.134000 0.567100 1.089000
H278 H 1.018000 0.621000 1.072000
N279 N 1.148200 0.469680 1.283300
N280 N 1.028100 0.574560 1.356200
C281 C 1.207100 0.418400 1.246300
H282 H 1.157100 0.413300 1.163100
C283 C 1.340100 0.371990 1.326100
H284 H 1.376200 0.336200 1.296200
C285 C 1.417300 0.379070 1.447900
H286 H 1.507700 0.348500 1.501900
C287 C 1.359900 0.432930 1.492200
C288 C 1.433200 0.445220 1.618700
H289 H 1.525400 0.416700 1.676900
C290 C 1.371400 0.497180 1.655100
H291 H 1.420500 0.503500 1.738000
C292 C 1.231400 0.542980 1.568900
C293 C 1.164000 0.599050 1.600900
H294 H 1.208300 0.607700 1.682500
C295 C 1.033900 0.640840 1.512700
H296 H 0.989200 0.678300 1.533300
C297 C 0.968300 0.626800 1.390700
H298 H 0.878400 0.655400 1.330900
C299 C 1.158500 0.533050 1.443900
C300 C 1.223100 0.476780 1.404800
C301 C 0.721700 0.661500 1.009700
C302 C 0.530600 0.688650 0.933300
C303 C 0.389600 0.667660 0.945500
C304 C 0.221600 0.700280 0.872200
H305 H 0.128000 0.688400 0.881700
C306 C 0.190900 0.749560 0.786200
H307 H 0.077900 0.770400 0.738500
C308 C 0.326600 0.767620 0.771400
H309 H 0.305600 0.799800 0.711900
C310 C 0.494500 0.738290 0.844400
H311 H 0.586900 0.751700 0.834600
C312 C 0.400600 0.610120 1.028300
H313 H 0.524700 0.594200 1.079300
H314 H 0.365200 0.628500 1.081300
C315 C 0.719000 0.450750 1.042300
Zn316 Zn 0.058500 0.453866 0.823820
O317 O 0.231700 0.371040 0.893420
O318 O 0.175500 0.325760 1.025600
O319 O 0.191500 0.519280 0.994700
O320 O 0.269400 0.528350 0.863810
O321 O -0.100900 0.406620 0.873480
H322 H -0.134000 0.432900 0.911000
H323 H -0.018000 0.379000 0.928000
N324 N -0.148200 0.530320 0.716700
N325 N -0.028100 0.425440 0.643800
C326 C -0.207100 0.581600 0.753700
H327 H -0.157100 0.586700 0.836900
C328 C -0.340100 0.628010 0.673900
H329 H -0.376200 0.663800 0.703800
C330 C -0.417300 0.620930 0.552100
H331 H -0.507700 0.651500 0.498100
C332 C -0.359900 0.567070 0.507800
C333 C -0.433200 0.554780 0.381300
H334 H -0.525400 0.583300 0.323100
C335 C -0.371400 0.502820 0.344900
H336 H -0.420500 0.496500 0.262000
C337 C -0.231400 0.457020 0.431100
C338 C -0.164000 0.400950 0.399100
H339 H -0.208300 0.392300 0.317500
C340 C -0.033900 0.359160 0.487300
H341 H 0.010800 0.321700 0.466700
C342 C 0.031700 0.373200 0.609300
H343 H 0.121600 0.344600 0.669100
C344 C -0.158500 0.466950 0.556100
C345 C -0.223100 0.523220 0.595200
C346 C 0.278300 0.338500 0.990300
C347 C 0.469400 0.311350 1.066700
C348 C 0.610400 0.332340 1.054500
C349 C 0.778400 0.299720 1.127800
H350 H 0.872000 0.311600 1.118300
C351 C 0.809100 0.250440 1.213800
H352 H 0.922100 0.229600 1.261500
C353 C 0.673400 0.232380 1.228600
H354 H 0.694400 0.200200 1.288100
C355 C 0.505500 0.261710 1.155600
H356 H 0.413100 0.248300 1.165400
C357 C 0.599400 0.389880 0.971700
H358 H 0.475300 0.405800 0.920700
H359 H 0.634800 0.371500 0.918700
C360 C 0.281000 0.549250 0.957700

#END
