./ACOGIJ_from_xyz.cif_generated_by_CrystalShift
_symmetry_cell_setting triclinic
_symmetry_space_group_name_H-M 'P 1'
loop_
_symmetry_equiv_pos_site_id
_symmetry_equiv_pos_as_xyz
1 x,y,z
_cell_length_a 8.847600
_cell_length_b 19.206500
_cell_length_c 11.097900
_cell_angle_alpha 90.000000
_cell_angle_beta 98.881000
_cell_angle_gamma 90.000000
_cell_volume 1863.272464
loop_
_atom_site_label
_atom_site_type_symbol
_atom_site_fract_x
_atom_site_fract_y
_atom_site_fract_z
Zn1 Zn 0.234580 -0.046187 0.176201
N2 N 0.135300 0.030580 0.283580
O3 O 0.150040 -0.174130 -0.025590
C4 C 0.323100 0.049110 0.042680
O5 O 0.338130 -0.129060 0.106820
O6 O 0.025420 -0.093530 0.126380
O7 O 0.197020 0.019290 0.005590
O8 O 0.405650 0.028380 0.136690
C9 C 0.403300 -0.188610 -0.067010
N10 N 0.327950 -0.074710 0.356240
C11 C 0.556500 -0.167520 -0.054250
C12 C 0.350100 -0.238360 -0.155680
H13 H 0.245800 -0.252100 -0.165500
C14 C 0.181700 0.023220 0.405010
C15 C 0.288500 -0.161450 0.009620
C16 C 0.372200 0.109870 -0.028420
C17 C 0.132000 0.067200 0.492480
C18 C 0.444500 -0.267800 -0.228900
H19 H 0.404800 -0.300600 -0.289800
C20 C 0.030400 0.120860 0.448300
H21 H -0.006300 0.152100 0.503500
C22 C 0.651000 -0.200350 -0.127800
H23 H 0.756200 -0.188100 -0.118000
C24 C 0.285900 -0.033430 0.444660
C25 C 0.337400 -0.042940 0.568910
C26 C 0.422500 -0.127030 0.390300
H27 H 0.452900 -0.156300 0.329400
C28 C 0.039200 0.081550 0.246000
H29 H 0.005800 0.086800 0.161000
C30 C 0.186100 0.054560 0.619100
H31 H 0.151600 0.083500 0.678700
C32 C -0.015200 0.128000 0.325900
H33 H -0.083400 0.164300 0.295200
C34 C 0.479300 -0.140750 0.512600
H35 H 0.546700 -0.178800 0.533900
C36 C 0.284100 0.002940 0.655270
H37 H 0.319100 -0.003500 0.739900
C38 C 0.437100 -0.099080 0.601200
H39 H 0.475100 -0.108000 0.684500
C40 C 0.596600 -0.249680 -0.213700
H41 H 0.663500 -0.271000 -0.261900
H42 H 0.440200 0.091900 -0.081900
H43 H 0.285200 0.128600 -0.079600
H44 H 0.045000 -0.120800 0.068600
H45 H -0.051000 -0.063800 0.088000
Zn46 Zn 0.765420 0.046187 -0.176201
N47 N 0.864700 -0.030580 -0.283580
O48 O 0.849960 0.174130 0.025590
C49 C 0.676900 -0.049110 -0.042680
O50 O 0.661870 0.129060 -0.106820
O51 O 0.974580 0.093530 -0.126380
O52 O 0.802980 -0.019290 -0.005590
O53 O 0.594350 -0.028380 -0.136690
C54 C 0.596700 0.188610 0.067010
N55 N 0.672050 0.074710 -0.356240
C56 C 0.443500 0.167520 0.054250
C57 C 0.649900 0.238360 0.155680
H58 H 0.754200 0.252100 0.165500
C59 C 0.818300 -0.023220 -0.405010
C60 C 0.711500 0.161450 -0.009620
C61 C 0.627800 -0.109870 0.028420
C62 C 0.868000 -0.067200 -0.492480
C63 C 0.555500 0.267800 0.228900
H64 H 0.595200 0.300600 0.289800
C65 C 0.969600 -0.120860 -0.448300
H66 H 1.006300 -0.152100 -0.503500
C67 C 0.349000 0.200350 0.127800
H68 H 0.243800 0.188100 0.118000
C69 C 0.714100 0.033430 -0.444660
C70 C 0.662600 0.042940 -0.568910
C71 C 0.577500 0.127030 -0.390300
H72 H 0.547100 0.156300 -0.329400
C73 C 0.960800 -0.081550 -0.246000
H74 H 0.994200 -0.086800 -0.161000
C75 C 0.813900 -0.054560 -0.619100
H76 H 0.848400 -0.083500 -0.678700
C77 C 1.015200 -0.128000 -0.325900
H78 H 1.083400 -0.164300 -0.295200
C79 C 0.520700 0.140750 -0.512600
H80 H 0.453300 0.178800 -0.533900
C81 C 0.715900 -0.002940 -0.655270
H82 H 0.680900 0.003500 -0.739900
C83 C 0.562900 0.099080 -0.601200
H84 H 0.524900 0.108000 -0.684500
C85 C 0.403400 0.249680 0.213700
H86 H 0.336500 0.271000 0.261900
H87 H 0.559800 -0.091900 0.081900
H88 H 0.714800 -0.128600 0.079600
H89 H 0.955000 0.120800 -0.068600
H90 H 1.051000 0.063800 -0.088000
Zn91 Zn 0.234580 -0.046187 1.176201
N92 N 0.135300 0.030580 1.283580
O93 O 0.150040 -0.174130 0.974410
C94 C 0.323100 0.049110 1.042680
O95 O 0.338130 -0.129060 1.106820
O96 O 0.025420 -0.093530 1.126380
O97 O 0.197020 0.019290 1.005590
O98 O 0.405650 0.028380 1.136690
C99 C 0.403300 -0.188610 0.932990
N100 N 0.327950 -0.074710 1.356240
C101 C 0.556500 -0.167520 0.945750
C102 C 0.350100 -0.238360 0.844320
H103 H 0.245800 -0.252100 0.834500
C104 C 0.181700 0.023220 1.405010
C105 C 0.288500 -0.161450 1.009620
C106 C 0.372200 0.109870 0.971580
C107 C 0.132000 0.067200 1.492480
C108 C 0.444500 -0.267800 0.771100
H109 H 0.404800 -0.300600 0.710200
C110 C 0.030400 0.120860 1.448300
H111 H -0.006300 0.152100 1.503500
C112 C 0.651000 -0.200350 0.872200
H113 H 0.756200 -0.188100 0.882000
C114 C 0.285900 -0.033430 1.444660
C115 C 0.337400 -0.042940 1.568910
C116 C 0.422500 -0.127030 1.390300
H117 H 0.452900 -0.156300 1.329400
C118 C 0.039200 0.081550 1.246000
H119 H 0.005800 0.086800 1.161000
C120 C 0.186100 0.054560 1.619100
H121 H 0.151600 0.083500 1.678700
C122 C -0.015200 0.128000 1.325900
H123 H -0.083400 0.164300 1.295200
C124 C 0.479300 -0.140750 1.512600
H125 H 0.546700 -0.178800 1.533900
C126 C 0.284100 0.002940 1.655270
H127 H 0.319100 -0.003500 1.739900
C128 C 0.437100 -0.099080 1.601200
H129 H 0.475100 -0.108000 1.684500
C130 C 0.596600 -0.249680 0.786300
H131 H 0.663500 -0.271000 0.738100
H132 H 0.440200 0.091900 0.918100
H133 H 0.285200 0.128600 0.920400
H134 H 0.045000 -0.120800 1.068600
H135 H -0.051000 -0.063800 1.088000
Zn136 Zn 0.765420 0.046187 0.823799
N137 N 0.864700 -0.030580 0.716420
O138 O 0.849960 0.174130 1.025590
C139 C 0.676900 -0.049110 0.957320
O140 O 0.661870 0.129060 0.893180
O141 O 0.974580 0.093530 0.873620
O142 O 0.802980 -0.019290 0.994410
O143 O 0.594350 -0.028380 0.863310
C144 C 0.596700 0.188610 1.067010
N145 N 0.672050 0.074710 0.643760
C146 C 0.443500 0.167520 1.054250
C147 C 0.649900 0.238360 1.155680
H148 H 0.754200 0.252100 1.165500
C149 C 0.818300 -0.023220 0.594990
C150 C 0.711500 0.161450 0.990380
C151 C 0.627800 -0.109870 1.028420
C152 C 0.868000 -0.067200 0.507520
C153 C 0.555500 0.267800 1.228900
H154 H 0.595200 0.300600 1.289800
C155 C 0.969600 -0.120860 0.551700
H156 H 1.006300 -0.152100 0.496500
C157 C 0.349000 0.200350 1.127800
H158 H 0.243800 0.188100 1.118000
C159 C 0.714100 0.033430 0.555340
C160 C 0.662600 0.042940 0.431090
C161 C 0.577500 0.127030 0.609700
H162 H 0.547100 0.156300 0.670600
C163 C 0.960800 -0.081550 0.754000
H164 H 0.994200 -0.086800 0.839000
C165 C 0.813900 -0.054560 0.380900
H166 H 0.848400 -0.083500 0.321300
C167 C 1.015200 -0.128000 0.674100
H168 H 1.083400 -0.164300 0.704800
C169 C 0.520700 0.140750 0.487400
H170 H 0.453300 0.178800 0.466100
C171 C 0.715900 -0.002940 0.344730
H172 H 0.680900 0.003500 0.260100
C173 C 0.562900 0.099080 0.398800
H174 H 0.524900 0.108000 0.315500
C175 C 0.403400 0.249680 1.213700
H176 H 0.336500 0.271000 1.261900
H177 H 0.559800 -0.091900 1.081900
H178 H 0.714800 -0.128600 1.079600
H179 H 0.955000 0.120800 0.931400
H180 H 1.051000 0.063800 0.912000
Zn181 Zn 0.234580 0.953813 0.176201
N182 N 0.135300 1.030580 0.283580
O183 O 0.150040 0.825870 -0.025590
C184 C 0.323100 1.049110 0.042680
O185 O 0.338130 0.870940 0.106820
O186 O 0.025420 0.906470 0.126380
O187 O 0.197020 1.019290 0.005590
O188 O 0.405650 1.028380 0.136690
C189 C 0.403300 0.811390 -0.067010
N190 N 0.327950 0.925290 0.356240
C191 C 0.556500 0.832480 -0.054250
C192 C 0.350100 0.761640 -0.155680
H193 H 0.245800 0.747900 -0.165500
C194 C 0.181700 1.023220 0.405010
C195 C 0.288500 0.838550 0.009620
C196 C 0.372200 1.109870 -0.028420
C197 C 0.132000 1.067200 0.492480
C198 C 0.444500 0.732200 -0.228900
H199 H 0.404800 0.699400 -0.289800
C200 C 0.030400 1.120860 0.448300
H201 H -0.006300 1.152100 0.503500
C202 C 0.651000 0.799650 -0.127800
H203 H 0.756200 0.811900 -0.118000
C204 C 0.285900 0.966570 0.444660
C205 C 0.337400 0.957060 0.568910
C206 C 0.422500 0.872970 0.390300
H207 H 0.452900 0.843700 0.329400
C208 C 0.039200 1.081550 0.246000
H209 H 0.005800 1.086800 0.161000
C210 C 0.186100 1.054560 0.619100
H211 H 0.151600 1.083500 0.678700
C212 C -0.015200 1.128000 0.325900
H213 H -0.083400 1.164300 0.295200
C214 C 0.479300 0.859250 0.512600
H215 H 0.546700 0.821200 0.533900
C216 C 0.284100 1.002940 0.655270
H217 H 0.319100 0.996500 0.739900
C218 C 0.437100 0.900920 0.601200
H219 H 0.475100 0.892000 0.684500
C220 C 0.596600 0.750320 -0.213700
H221 H 0.663500 0.729000 -0.261900
H222 H 0.440200 1.091900 -0.081900
H223 H 0.285200 1.128600 -0.079600
H224 H 0.045000 0.879200 0.068600
H225 H -0.051000 0.936200 0.088000
Zn226 Zn 0.765420 1.046187 -0.176201
N227 N 0.864700 0.969420 -0.283580
O228 O 0.849960 1.174130 0.025590
C229 C 0.676900 0.950890 -0.042680
O230 O 0.661870 1.129060 -0.106820
O231 O 0.974580 1.093530 -0.126380
O232 O 0.802980 0.980710 -0.005590
O233 O 0.594350 0.971620 -0.136690
C234 C 0.596700 1.188610 0.067010
N235 N 0.672050 1.074710 -0.356240
C236 C 0.443500 1.167520 0.054250
C237 C 0.649900 1.238360 0.155680
H238 H 0.754200 1.252100 0.165500
C239 C 0.818300 0.976780 -0.405010
C240 C 0.711500 1.161450 -0.009620
C241 C 0.627800 0.890130 0.028420
C242 C 0.868000 0.932800 -0.492480
C243 C 0.555500 1.267800 0.228900
H244 H 0.595200 1.300600 0.289800
C245 C 0.969600 0.879140 -0.448300
H246 H 1.006300 0.847900 -0.503500
C247 C 0.349000 1.200350 0.127800
H248 H 0.243800 1.188100 0.118000
C249 C 0.714100 1.033430 -0.444660
C250 C 0.662600 1.042940 -0.568910
C251 C 0.577500 1.127030 -0.390300
H252 H 0.547100 1.156300 -0.329400
C253 C 0.960800 0.918450 -0.246000
H254 H 0.994200 0.913200 -0.161000
C255 C 0.813900 0.945440 -0.619100
H256 H 0.848400 0.916500 -0.678700
C257 C 1.015200 0.872000 -0.325900
H258 H 1.083400 0.835700 -0.295200
C259 C 0.520700 1.140750 -0.512600
H260 H 0.453300 1.178800 -0.533900
C261 C 0.715900 0.997060 -0.655270
H262 H 0.680900 1.003500 -0.739900
C263 C 0.562900 1.099080 -0.601200
H264 H 0.524900 1.108000 -0.684500
C265 C 0.403400 1.249680 0.213700
H266 H 0.336500 1.271000 0.261900
H267 H 0.559800 0.908100 0.081900
H268 H 0.714800 0.871400 0.079600
H269 H 0.955000 1.120800 -0.068600
H270 H 1.051000 1.063800 -0.088000
Zn271 Zn 0.234580 0.953813 1.176201
N272 N 0.135300 1.030580 1.283580
O273 O 0.150040 0.825870 0.974410
C274 C 0.323100 1.049110 1.042680
O275 O 0.338130 0.870940 1.106820
O276 O 0.025420 0.906470 1.126380
O277 O 0.197020 1.019290 1.005590
O278 O 0.405650 1.028380 1.136690
C279 C 0.403300 0.811390 0.932990
N280 N 0.327950 0.925290 1.356240
C281 C 0.556500 0.832480 0.945750
C282 C 0.350100 0.761640 0.844320
H283 H 0.245800 0.747900 0.834500
C284 C 0.181700 1.023220 1.405010
C285 C 0.288500 0.838550 1.009620
C286 C 0.372200 1.109870 0.971580
C287 C 0.132000 1.067200 1.492480
C288 C 0.444500 0.732200 0.771100
H289 H 0.404800 0.699400 0.710200
C290 C 0.030400 1.120860 1.448300
H291 H -0.006300 1.152100 1.503500
C292 C 0.651000 0.799650 0.872200
H293 H 0.756200 0.811900 0.882000
C294 C 0.285900 0.966570 1.444660
C295 C 0.337400 0.957060 1.568910
C296 C 0.422500 0.872970 1.390300
H297 H 0.452900 0.843700 1.329400
C298 C 0.039200 1.081550 1.246000
H299 H 0.005800 1.086800 1.161000
C300 C 0.186100 1.054560 1.619100
H301 H 0.151600 1.083500 1.678700
C302 C -0.015200 1.128000 1.325900
H303 H -0.083400 1.164300 1.295200
C304 C 0.479300 0.859250 1.512600
H305 H 0.546700 0.821200 1.533900
C306 C 0.284100 1.002940 1.655270
H307 H 0.319100 0.996500 1.739900
C308 C 0.437100 0.900920 1.601200
H309 H 0.475100 0.892000 1.684500
C310 C 0.596600 0.750320 0.786300
H311 H 0.663500 0.729000 0.738100
H312 H 0.440200 1.091900 0.918100
H313 H 0.285200 1.128600 0.920400
H314 H 0.045000 0.879200 1.068600
H315 H -0.051000 0.936200 1.088000
Zn316 Zn 0.765420 1.046187 0.823799
N317 N 0.864700 0.969420 0.716420
O318 O 0.849960 1.174130 1.025590
C319 C 0.676900 0.950890 0.957320
O320 O 0.661870 1.129060 0.893180
O321 O 0.974580 1.093530 0.873620
O322 O 0.802980 0.980710 0.994410
O323 O 0.594350 0.971620 0.863310
C324 C 0.596700 1.188610 1.067010
N325 N 0.672050 1.074710 0.643760
C326 C 0.443500 1.167520 1.054250
C327 C 0.649900 1.238360 1.155680
H328 H 0.754200 1.252100 1.165500
C329 C 0.818300 0.976780 0.594990
C330 C 0.711500 1.161450 0.990380
C331 C 0.627800 0.890130 1.028420
C332 C 0.868000 0.932800 0.507520
C333 C 0.555500 1.267800 1.228900
H334 H 0.595200 1.300600 1.289800
C335 C 0.969600 0.879140 0.551700
H336 H 1.006300 0.847900 0.496500
C337 C 0.349000 1.200350 1.127800
H338 H 0.243800 1.188100 1.118000
C339 C 0.714100 1.033430 0.555340
C340 C 0.662600 1.042940 0.431090
C341 C 0.577500 1.127030 0.609700
H342 H 0.547100 1.156300 0.670600
C343 C 0.960800 0.918450 0.754000
H344 H 0.994200 0.913200 0.839000
C345 C 0.813900 0.945440 0.380900
H346 H 0.848400 0.916500 0.321300
C347 C 1.015200 0.872000 0.674100
H348 H 1.083400 0.835700 0.704800
C349 C 0.520700 1.140750 0.487400
H350 H 0.453300 1.178800 0.466100
C351 C 0.715900 0.997060 0.344730
H352 H 0.680900 1.003500 0.260100
C353 C 0.562900 1.099080 0.398800
H354 H 0.524900 1.108000 0.315500
C355 C 0.403400 1.249680 1.213700
H356 H 0.336500 1.271000 1.261900
H357 H 0.559800 0.908100 1.081900
H358 H 0.714800 0.871400 1.079600
H359 H 0.955000 1.120800 0.931400
H360 H 1.051000 1.063800 0.912000
Zn361 Zn 0.265420 0.453813 0.323799
N362 N 0.364700 0.530580 0.216420
O363 O 0.349960 0.325870 0.525590
C364 C 0.176900 0.549110 0.457320
O365 O 0.161870 0.370940 0.393180
O366 O 0.474580 0.406470 0.373620
O367 O 0.302980 0.519290 0.494410
O368 O 0.094350 0.528380 0.363310
C369 C 0.096700 0.311390 0.567010
N370 N 0.172050 0.425290 0.143760
C371 C -0.056500 0.332480 0.554250
C372 C 0.149900 0.261640 0.655680
H373 H 0.254200 0.247900 0.665500
C374 C 0.318300 0.523220 0.094990
C375 C 0.211500 0.338550 0.490380
C376 C 0.127800 0.609870 0.528420
C377 C 0.368000 0.567200 0.007520
C378 C 0.055500 0.232200 0.728900
H379 H 0.095200 0.199400 0.789800
C380 C 0.469600 0.620860 0.051700
H381 H 0.506300 0.652100 -0.003500
C382 C -0.151000 0.299650 0.627800
H383 H -0.256200 0.311900 0.618000
C384 C 0.214100 0.466570 0.055340
C385 C 0.162600 0.457060 -0.068910
C386 C 0.077500 0.372970 0.109700
H387 H 0.047100 0.343700 0.170600
C388 C 0.460800 0.581550 0.254000
H389 H 0.494200 0.586800 0.339000
C390 C 0.313900 0.554560 -0.119100
H391 H 0.348400 0.583500 -0.178700
C392 C 0.515200 0.628000 0.174100
H393 H 0.583400 0.664300 0.204800
C394 C 0.020700 0.359250 -0.012600
H395 H -0.046700 0.321200 -0.033900
C396 C 0.215900 0.502940 -0.155270
H397 H 0.180900 0.496500 -0.239900
C398 C 0.062900 0.400920 -0.101200
H399 H 0.024900 0.392000 -0.184500
C400 C -0.096600 0.250320 0.713700
H401 H -0.163500 0.229000 0.761900
H402 H 0.059800 0.591900 0.581900
H403 H 0.214800 0.628600 0.579600
H404 H 0.455000 0.379200 0.431400
H405 H 0.551000 0.436200 0.412000
Zn406 Zn -0.265420 0.546187 0.676201
N407 N -0.364700 0.469420 0.783580
O408 O -0.349960 0.674130 0.474410
C409 C -0.176900 0.450890 0.542680
O410 O -0.161870 0.629060 0.606820
O411 O -0.474580 0.593530 0.626380
O412 O -0.302980 0.480710 0.505590
O413 O -0.094350 0.471620 0.636690
C414 C -0.096700 0.688610 0.432990
N415 N -0.172050 0.574710 0.856240
C416 C 0.056500 0.667520 0.445750
C417 C -0.149900 0.738360 0.344320
H418 H -0.254200 0.752100 0.334500
C419 C -0.318300 0.476780 0.905010
C420 C -0.211500 0.661450 0.509620
C421 C -0.127800 0.390130 0.471580
C422 C -0.368000 0.432800 0.992480
C423 C -0.055500 0.767800 0.271100
H424 H -0.095200 0.800600 0.210200
C425 C -0.469600 0.379140 0.948300
H426 H -0.506300 0.347900 1.003500
C427 C 0.151000 0.700350 0.372200
H428 H 0.256200 0.688100 0.382000
C429 C -0.214100 0.533430 0.944660
C430 C -0.162600 0.542940 1.068910
C431 C -0.077500 0.627030 0.890300
H432 H -0.047100 0.656300 0.829400
C433 C -0.460800 0.418450 0.746000
H434 H -0.494200 0.413200 0.661000
C435 C -0.313900 0.445440 1.119100
H436 H -0.348400 0.416500 1.178700
C437 C -0.515200 0.372000 0.825900
H438 H -0.583400 0.335700 0.795200
C439 C -0.020700 0.640750 1.012600
H440 H 0.046700 0.678800 1.033900
C441 C -0.215900 0.497060 1.155270
H442 H -0.180900 0.503500 1.239900
C443 C -0.062900 0.599080 1.101200
H444 H -0.024900 0.608000 1.184500
C445 C 0.096600 0.749680 0.286300
H446 H 0.163500 0.771000 0.238100
H447 H -0.059800 0.408100 0.418100
H448 H -0.214800 0.371400 0.420400
H449 H -0.455000 0.620800 0.568600
H450 H -0.551000 0.563800 0.588000
Zn451 Zn 1.265420 0.453813 0.323799
N452 N 1.364700 0.530580 0.216420
O453 O 1.349960 0.325870 0.525590
C454 C 1.176900 0.549110 0.457320
O455 O 1.161870 0.370940 0.393180
O456 O 1.474580 0.406470 0.373620
O457 O 1.302980 0.519290 0.494410
O458 O 1.094350 0.528380 0.363310
C459 C 1.096700 0.311390 0.567010
N460 N 1.172050 0.425290 0.143760
C461 C 0.943500 0.332480 0.554250
C462 C 1.149900 0.261640 0.655680
H463 H 1.254200 0.247900 0.665500
C464 C 1.318300 0.523220 0.094990
C465 C 1.211500 0.338550 0.490380
C466 C 1.127800 0.609870 0.528420
C467 C 1.368000 0.567200 0.007520
C468 C 1.055500 0.232200 0.728900
H469 H 1.095200 0.199400 0.789800
C470 C 1.469600 0.620860 0.051700
H471 H 1.506300 0.652100 -0.003500
C472 C 0.849000 0.299650 0.627800
H473 H 0.743800 0.311900 0.618000
C474 C 1.214100 0.466570 0.055340
C475 C 1.162600 0.457060 -0.068910
C476 C 1.077500 0.372970 0.109700
H477 H 1.047100 0.343700 0.170600
C478 C 1.460800 0.581550 0.254000
H479 H 1.494200 0.586800 0.339000
C480 C 1.313900 0.554560 -0.119100
H481 H 1.348400 0.583500 -0.178700
C482 C 1.515200 0.628000 0.174100
H483 H 1.583400 0.664300 0.204800
C484 C 1.020700 0.359250 -0.012600
H485 H 0.953300 0.321200 -0.033900
C486 C 1.215900 0.502940 -0.155270
H487 H 1.180900 0.496500 -0.239900
C488 C 1.062900 0.400920 -0.101200
H489 H 1.024900 0.392000 -0.184500
C490 C 0.903400 0.250320 0.713700
H491 H 0.836500 0.229000 0.761900
H492 H 1.059800 0.591900 0.581900
H493 H 1.214800 0.628600 0.579600
H494 H 1.455000 0.379200 0.431400
H495 H 1.551000 0.436200 0.412000
Zn496 Zn 0.734580 0.546187 0.676201
N497 N 0.635300 0.469420 0.783580
O498 O 0.650040 0.674130 0.474410
C499 C 0.823100 0.450890 0.542680
O500 O 0.838130 0.629060 0.606820
O501 O 0.525420 0.593530 0.626380
O502 O 0.697020 0.480710 0.505590
O503 O 0.905650 0.471620 0.636690
C504 C 0.903300 0.688610 0.432990
N505 N 0.827950 0.574710 0.856240
C506 C 1.056500 0.667520 0.445750
C507 C 0.850100 0.738360 0.344320
H508 H 0.745800 0.752100 0.334500
C509 C 0.681700 0.476780 0.905010
C510 C 0.788500 0.661450 0.509620
C511 C 0.872200 0.390130 0.471580
C512 C 0.632000 0.432800 0.992480
C513 C 0.944500 0.767800 0.271100
H514 H 0.904800 0.800600 0.210200
C515 C 0.530400 0.379140 0.948300
H516 H 0.493700 0.347900 1.003500
C517 C 1.151000 0.700350 0.372200
H518 H 1.256200 0.688100 0.382000
C519 C 0.785900 0.533430 0.944660
C520 C 0.837400 0.542940 1.068910
C521 C 0.922500 0.627030 0.890300
H522 H 0.952900 0.656300 0.829400
C523 C 0.539200 0.418450 0.746000
H524 H 0.505800 0.413200 0.661000
C525 C 0.686100 0.445440 1.119100
H526 H 0.651600 0.416500 1.178700
C527 C 0.484800 0.372000 0.825900
H528 H 0.416600 0.335700 0.795200
C529 C 0.979300 0.640750 1.012600
H530 H 1.046700 0.678800 1.033900
C531 C 0.784100 0.497060 1.155270
H532 H 0.819100 0.503500 1.239900
C533 C 0.937100 0.599080 1.101200
H534 H 0.975100 0.608000 1.184500
C535 C 1.096600 0.749680 0.286300
H536 H 1.163500 0.771000 0.238100
H537 H 0.940200 0.408100 0.418100
H538 H 0.785200 0.371400 0.420400
H539 H 0.545000 0.620800 0.568600
H540 H 0.449000 0.563800 0.588000

#END
