
#######################################################################
#
#                 Cambridge Crystallographic Data Centre
#                                CCDC 
#
#######################################################################
#
# If this CIF has been generated from an entry in the Cambridge 
# Structural Database, then it will include bibliographic, chemical, 
# crystal, experimental, refinement or atomic coordinate data resulting 
# from the CCDC's data processing and validation procedures.
#
#######################################################################

data_ACOHUV
_symmetry_cell_setting           orthorhombic
_symmetry_space_group_name_H-M   'P n a 21'
_symmetry_Int_Tables_number      33
_space_group_name_Hall           'P 2c -2n'
loop_
_symmetry_equiv_pos_site_id
_symmetry_equiv_pos_as_xyz
1 x,y,z
2 -x,-y,1/2+z
3 1/2+x,1/2-y,z
4 1/2-x,1/2+y,1/2+z
_cell_length_a                   11.830(2)
_cell_length_b                   8.6933(17)
_cell_length_c                   14.914(3)
_cell_angle_alpha                90
_cell_angle_beta                 90
_cell_angle_gamma                90
_cell_volume                     1533.78
loop_
_atom_site_label
_atom_site_type_symbol
_atom_site_fract_x
_atom_site_fract_y
_atom_site_fract_z
Li1 Li 0.4162(4) 0.5970(5) 0.9949(3)
C1 C 0.6489(3) 0.9670(4) 1.2519(2)
H1 H 0.6702 1.0260 1.3028
C2 C 0.3810(3) 0.6066(4) 0.7051(2)
H2 H 0.4176 0.5439 0.6579
H3 H 0.3615 0.7085 0.6798
C3 C 0.2749(3) 0.5252(4) 0.7418(2)
H4 H 0.2119 0.5987 0.7503
H5 H 0.2500 0.4416 0.7013
C4 C 0.3152(3) 0.4616(4) 0.8307(2)
H6 H 0.2513 0.4500 0.8730
H7 H 0.3521 0.3604 0.8226
O1 O 0.39495(19) 0.5741(2) 0.86305(14)
C5 C 0.4581(3) 0.6233(4) 0.7865(2)
H8 H 0.5265 0.5589 0.7791
H9 H 0.4819 0.7318 0.7936
O2 O 0.43999(18) 0.3772(2) 1.02207(14)
C6 C 0.5337(3) 0.2993(3) 0.97875(19)
H10 H 0.6067 0.3420 0.9996
H11 H 0.5290 0.3111 0.9128
C7 C 0.5231(3) 0.1323(4) 1.0049(2)
H12 H 0.5621 0.1110 1.0623
H13 H 0.5538 0.0638 0.9578
C8 C 0.3625(3) 0.2641(4) 1.0577(3)
H14 H 0.2835 0.2913 1.0426
H15 H 0.3697 0.2572 1.1237
C9 C 0.3956(3) 0.1138(4) 1.0141(2)
H16 H 0.3589 0.1013 0.9549
H17 H 0.3761 0.0249 1.0527
As1 As 0.68039(2) 0.71647(3) 0.95714(3)
C10 C 0.5820(3) 0.7910(3) 1.1030(2)
C11 C 0.6937(2) 0.8541(4) 1.1080(2)
C12 C 0.7261(3) 0.9396(4) 1.1844(2)
H18 H 0.8010 0.9782 1.1893
C13 C 0.5049(3) 0.8204(4) 1.1735(2)
H19 H 0.4304 0.7801 1.1710
N1 N 0.5574(2) 0.7117(3) 1.02661(18)
C14 C 0.5383(3) 0.9072(4) 1.2454(2)
H20 H 0.4857 0.9277 1.2920
N2 N 0.7609(2) 0.8272(3) 1.03546(17)
N2B N 0.2609(2) 0.6728(3) 1.03546(17)
Li1B Li 0.9162(4) 0.9030(5) 0.9949(3)
C1 C 1.1489(3) 0.5330(4) 1.2519(2)
H1 H 1.1702 0.4740 1.3028
C2 C 0.8810(3) 0.8934(4) 0.7051(2)
H2 H 0.9176 0.9561 0.6579
H3 H 0.8615 0.7915 0.6798
C3 C 0.7749(3) 0.9748(4) 0.7418(2)
H4 H 0.7119 0.9013 0.7503
H5 H 0.7500 1.0584 0.7013
C4 C 0.8152(3) 1.0384(4) 0.8307(2)
H6 H 0.7513 1.0500 0.8730
H7 H 0.8521 1.1396 0.8226
O1 O 0.89495(19) 0.9259(2) 0.86305(14)
C5 C 0.9581(3) 0.8767(4) 0.7865(2)
H8 H 1.0265 0.9411 0.7791
H9 H 0.9819 0.7682 0.7936
O2 O 0.93999(18) 1.1228(2) 1.02207(14)
C6 C 1.0337(3) 1.2007(3) 0.97875(19)
H10 H 1.1067 1.1580 0.9996
H11 H 1.0290 1.1889 0.9128
C7 C 1.0231(3) 1.3677(4) 1.0049(2)
H12 H 1.0621 1.3890 1.0623
H13 H 1.0538 1.4362 0.9578
C8 C 0.8625(3) 1.2359(4) 1.0577(3)
H14 H 0.7835 1.2087 1.0426
H15 H 0.8697 1.2428 1.1237
C9 C 0.8956(3) 1.3862(4) 1.0141(2)
H16 H 0.8589 1.3987 0.9549
H17 H 0.8761 1.4751 1.0527
As1 As 1.18039(2) 0.78353(3) 0.95714(3)
C10 C 1.0820(3) 0.7090(3) 1.1030(2)
C11 C 1.1937(2) 0.6459(4) 1.1080(2)
C12 C 1.2261(3) 0.5604(4) 1.1844(2)
H18 H 1.3010 0.5218 1.1893
C13 C 1.0049(3) 0.6796(4) 1.1735(2)
H19 H 0.9304 0.7199 1.1710
N1 N 1.0574(2) 0.7883(3) 1.02661(18)
C14 C 1.0383(3) 0.5928(4) 1.2454(2)
H20 H 0.9857 0.5723 1.2920
N2 N 1.2609(2) 0.6728(3) 1.03546(17)
Li1B Li 1.4162(4) 0.5970(5) 0.9949(3)
Li1 Li 0.5838(4) 0.4030(5) 0.4949(3)
C1 C 0.3511(3) 0.0330(4) 0.7519(2)
H1 H 0.3298 -0.0260 0.8028
C2 C 0.6190(3) 0.3934(4) 0.2051(2)
H2 H 0.5824 0.4561 0.1579
H3 H 0.6385 0.2915 0.1798
C3 C 0.7251(3) 0.4748(4) 0.2418(2)
H4 H 0.7881 0.4013 0.2503
H5 H 0.7500 0.5584 0.2013
C4 C 0.6848(3) 0.5384(4) 0.3307(2)
H6 H 0.7487 0.5500 0.3730
H7 H 0.6479 0.6396 0.3226
O1 O 0.60505(19) 0.4259(2) 0.36305(14)
C5 C 0.5419(3) 0.3767(4) 0.2865(2)
H8 H 0.4735 0.4411 0.2791
H9 H 0.5181 0.2682 0.2936
O2 O 0.56001(18) 0.6228(2) 0.52207(14)
C6 C 0.4663(3) 0.7007(3) 0.47875(19)
H10 H 0.3933 0.6580 0.4996
H11 H 0.4710 0.6889 0.4128
C7 C 0.4769(3) 0.8677(4) 0.5049(2)
H12 H 0.4379 0.8890 0.5623
H13 H 0.4462 0.9362 0.4578
C8 C 0.6375(3) 0.7359(4) 0.5577(3)
H14 H 0.7165 0.7087 0.5426
H15 H 0.6303 0.7428 0.6237
C9 C 0.6044(3) 0.8862(4) 0.5141(2)
H16 H 0.6411 0.8987 0.4549
H17 H 0.6239 0.9751 0.5527
As1 As 0.31961(2) 0.28353(3) 0.45714(3)
C10 C 0.4180(3) 0.2090(3) 0.6030(2)
C11 C 0.3063(2) 0.1459(4) 0.6080(2)
C12 C 0.2739(3) 0.0604(4) 0.6844(2)
H18 H 0.1990 0.0218 0.6893
C13 C 0.4951(3) 0.1796(4) 0.6735(2)
H19 H 0.5696 0.2199 0.6710
N1 N 0.4426(2) 0.2883(3) 0.52661(18)
C14 C 0.4617(3) 0.0928(4) 0.7454(2)
H20 H 0.5143 0.0723 0.7920
N2 N 0.2391(2) 0.1728(3) 0.53546(17)
N2B N 0.7391(2) 0.3272(3) 0.53546(17)
Li1B Li 0.0838(4) 0.0970(5) 0.4949(3)
C1 C -0.1489(3) 0.4670(4) 0.7519(2)
H1 H -0.1702 0.5260 0.8028
C2 C 0.1190(3) 0.1066(4) 0.2051(2)
H2 H 0.0824 0.0439 0.1579
H3 H 0.1385 0.2085 0.1798
C3 C 0.2251(3) 0.0252(4) 0.2418(2)
H4 H 0.2881 0.0987 0.2503
H5 H 0.2500 -0.0584 0.2013
C4 C 0.1848(3) -0.0384(4) 0.3307(2)
H6 H 0.2487 -0.0500 0.3730
H7 H 0.1479 -0.1396 0.3226
O1 O 0.10505(19) 0.0741(2) 0.36305(14)
C5 C 0.0419(3) 0.1233(4) 0.2865(2)
H8 H -0.0265 0.0589 0.2791
H9 H 0.0181 0.2318 0.2936
O2 O 0.06001(18) -0.1228(2) 0.52207(14)
C6 C -0.0337(3) -0.2007(3) 0.47875(19)
H10 H -0.1067 -0.1580 0.4996
H11 H -0.0290 -0.1889 0.4128
C7 C -0.0231(3) -0.3677(4) 0.5049(2)
H12 H -0.0621 -0.3890 0.5623
H13 H -0.0538 -0.4362 0.4578
C8 C 0.1375(3) -0.2359(4) 0.5577(3)
H14 H 0.2165 -0.2087 0.5426
H15 H 0.1303 -0.2428 0.6237
C9 C 0.1044(3) -0.3862(4) 0.5141(2)
H16 H 0.1411 -0.3987 0.4549
H17 H 0.1239 -0.4751 0.5527
As1 As -0.18039(2) 0.21647(3) 0.45714(3)
C10 C -0.0820(3) 0.2910(3) 0.6030(2)
C11 C -0.1937(2) 0.3541(4) 0.6080(2)
C12 C -0.2261(3) 0.4396(4) 0.6844(2)
H18 H -0.3010 0.4782 0.6893
C13 C -0.0049(3) 0.3204(4) 0.6735(2)
H19 H 0.0696 0.2801 0.6710
N1 N -0.0574(2) 0.2117(3) 0.52661(18)
C14 C -0.0383(3) 0.4072(4) 0.7454(2)
H20 H 0.0143 0.4277 0.7920
N2 N -0.2609(2) 0.3272(3) 0.53546(17)
Li1B Li -0.4162(4) 0.4030(5) 0.4949(3)

#END
