./ACOHUV_from_xyz.cif_generated_by_CrystalShift
_symmetry_cell_setting triclinic
_symmetry_space_group_name_H-M 'P 1'
loop_
_symmetry_equiv_pos_site_id
_symmetry_equiv_pos_as_xyz
1 x,y,z
_cell_length_a 11.830000
_cell_length_b 8.693300
_cell_length_c 14.914000
_cell_angle_alpha 90.000000
_cell_angle_beta 90.000000
_cell_angle_gamma 90.000000
_cell_volume 1533.781695
loop_
_atom_site_label
_atom_site_type_symbol
_atom_site_fract_x
_atom_site_fract_y
_atom_site_fract_z
Li1 Li 0.416200 0.597000 0.994900
C2 C 0.648900 0.967000 1.251900
H3 H 0.670200 1.026000 1.302800
C4 C 0.381000 0.606600 0.705100
H5 H 0.417600 0.543900 0.657900
H6 H 0.361500 0.708500 0.679800
C7 C 0.274900 0.525200 0.741800
H8 H 0.211900 0.598700 0.750300
H9 H 0.250000 0.441600 0.701300
C10 C 0.315200 0.461600 0.830700
H11 H 0.251300 0.450000 0.873000
H12 H 0.352100 0.360400 0.822600
O13 O 0.394950 0.574100 0.863050
C14 C 0.458100 0.623300 0.786500
H15 H 0.526500 0.558900 0.779100
H16 H 0.481900 0.731800 0.793600
O17 O 0.439990 0.377200 1.022070
C18 C 0.533700 0.299300 0.978750
H19 H 0.606700 0.342000 0.999600
H20 H 0.529000 0.311100 0.912800
C21 C 0.523100 0.132300 1.004900
H22 H 0.562100 0.111000 1.062300
H23 H 0.553800 0.063800 0.957800
C24 C 0.362500 0.264100 1.057700
H25 H 0.283500 0.291300 1.042600
H26 H 0.369700 0.257200 1.123700
C27 C 0.395600 0.113800 1.014100
H28 H 0.358900 0.101300 0.954900
H29 H 0.376100 0.024900 1.052700
As30 As 0.680390 0.716470 0.957140
C31 C 0.582000 0.791000 1.103000
C32 C 0.693700 0.854100 1.108000
C33 C 0.726100 0.939600 1.184400
H34 H 0.801000 0.978200 1.189300
C35 C 0.504900 0.820400 1.173500
H36 H 0.430400 0.780100 1.171000
N37 N 0.557400 0.711700 1.026610
C38 C 0.538300 0.907200 1.245400
H39 H 0.485700 0.927700 1.292000
N40 N 0.760900 0.827200 1.035460
N41 N 0.260900 0.672800 1.035460
Li42 Li 0.916200 0.903000 0.994900
C43 C 1.148900 0.533000 1.251900
H44 H 1.170200 0.474000 1.302800
C45 C 0.881000 0.893400 0.705100
H46 H 0.917600 0.956100 0.657900
H47 H 0.861500 0.791500 0.679800
C48 C 0.774900 0.974800 0.741800
H49 H 0.711900 0.901300 0.750300
H50 H 0.750000 1.058400 0.701300
C51 C 0.815200 1.038400 0.830700
H52 H 0.751300 1.050000 0.873000
H53 H 0.852100 1.139600 0.822600
O54 O 0.894950 0.925900 0.863050
C55 C 0.958100 0.876700 0.786500
H56 H 1.026500 0.941100 0.779100
H57 H 0.981900 0.768200 0.793600
O58 O 0.939990 1.122800 1.022070
C59 C 1.033700 1.200700 0.978750
H60 H 1.106700 1.158000 0.999600
H61 H 1.029000 1.188900 0.912800
C62 C 1.023100 1.367700 1.004900
H63 H 1.062100 1.389000 1.062300
H64 H 1.053800 1.436200 0.957800
C65 C 0.862500 1.235900 1.057700
H66 H 0.783500 1.208700 1.042600
H67 H 0.869700 1.242800 1.123700
C68 C 0.895600 1.386200 1.014100
H69 H 0.858900 1.398700 0.954900
H70 H 0.876100 1.475100 1.052700
As71 As 1.180390 0.783530 0.957140
C72 C 1.082000 0.709000 1.103000
C73 C 1.193700 0.645900 1.108000
C74 C 1.226100 0.560400 1.184400
H75 H 1.301000 0.521800 1.189300
C76 C 1.004900 0.679600 1.173500
H77 H 0.930400 0.719900 1.171000
N78 N 1.057400 0.788300 1.026610
C79 C 1.038300 0.592800 1.245400
H80 H 0.985700 0.572300 1.292000
N81 N 1.260900 0.672800 1.035460
Li82 Li 1.416200 0.597000 0.994900
Li83 Li 0.583800 0.403000 0.494900
C84 C 0.351100 0.033000 0.751900
H85 H 0.329800 -0.026000 0.802800
C86 C 0.619000 0.393400 0.205100
H87 H 0.582400 0.456100 0.157900
H88 H 0.638500 0.291500 0.179800
C89 C 0.725100 0.474800 0.241800
H90 H 0.788100 0.401300 0.250300
H91 H 0.750000 0.558400 0.201300
C92 C 0.684800 0.538400 0.330700
H93 H 0.748700 0.550000 0.373000
H94 H 0.647900 0.639600 0.322600
O95 O 0.605050 0.425900 0.363050
C96 C 0.541900 0.376700 0.286500
H97 H 0.473500 0.441100 0.279100
H98 H 0.518100 0.268200 0.293600
O99 O 0.560010 0.622800 0.522070
C100 C 0.466300 0.700700 0.478750
H101 H 0.393300 0.658000 0.499600
H102 H 0.471000 0.688900 0.412800
C103 C 0.476900 0.867700 0.504900
H104 H 0.437900 0.889000 0.562300
H105 H 0.446200 0.936200 0.457800
C106 C 0.637500 0.735900 0.557700
H107 H 0.716500 0.708700 0.542600
H108 H 0.630300 0.742800 0.623700
C109 C 0.604400 0.886200 0.514100
H110 H 0.641100 0.898700 0.454900
H111 H 0.623900 0.975100 0.552700
As112 As 0.319610 0.283530 0.457140
C113 C 0.418000 0.209000 0.603000
C114 C 0.306300 0.145900 0.608000
C115 C 0.273900 0.060400 0.684400
H116 H 0.199000 0.021800 0.689300
C117 C 0.495100 0.179600 0.673500
H118 H 0.569600 0.219900 0.671000
N119 N 0.442600 0.288300 0.526610
C120 C 0.461700 0.092800 0.745400
H121 H 0.514300 0.072300 0.792000
N122 N 0.239100 0.172800 0.535460
N123 N 0.739100 0.327200 0.535460
Li124 Li 0.083800 0.097000 0.494900
C125 C -0.148900 0.467000 0.751900
H126 H -0.170200 0.526000 0.802800
C127 C 0.119000 0.106600 0.205100
H128 H 0.082400 0.043900 0.157900
H129 H 0.138500 0.208500 0.179800
C130 C 0.225100 0.025200 0.241800
H131 H 0.288100 0.098700 0.250300
H132 H 0.250000 -0.058400 0.201300
C133 C 0.184800 -0.038400 0.330700
H134 H 0.248700 -0.050000 0.373000
H135 H 0.147900 -0.139600 0.322600
O136 O 0.105050 0.074100 0.363050
C137 C 0.041900 0.123300 0.286500
H138 H -0.026500 0.058900 0.279100
H139 H 0.018100 0.231800 0.293600
O140 O 0.060010 -0.122800 0.522070
C141 C -0.033700 -0.200700 0.478750
H142 H -0.106700 -0.158000 0.499600
H143 H -0.029000 -0.188900 0.412800
C144 C -0.023100 -0.367700 0.504900
H145 H -0.062100 -0.389000 0.562300
H146 H -0.053800 -0.436200 0.457800
C147 C 0.137500 -0.235900 0.557700
H148 H 0.216500 -0.208700 0.542600
H149 H 0.130300 -0.242800 0.623700
C150 C 0.104400 -0.386200 0.514100
H151 H 0.141100 -0.398700 0.454900
H152 H 0.123900 -0.475100 0.552700
As153 As -0.180390 0.216470 0.457140
C154 C -0.082000 0.291000 0.603000
C155 C -0.193700 0.354100 0.608000
C156 C -0.226100 0.439600 0.684400
H157 H -0.301000 0.478200 0.689300
C158 C -0.004900 0.320400 0.673500
H159 H 0.069600 0.280100 0.671000
N160 N -0.057400 0.211700 0.526610
C161 C -0.038300 0.407200 0.745400
H162 H 0.014300 0.427700 0.792000
N163 N -0.260900 0.327200 0.535460
Li164 Li -0.416200 0.403000 0.494900

#END
