./ACOJUZ_from_xyz.cif_generated_by_CrystalShift
_symmetry_cell_setting triclinic
_symmetry_space_group_name_H-M 'P 1'
loop_
_symmetry_equiv_pos_site_id
_symmetry_equiv_pos_as_xyz
1 x,y,z
_cell_length_a 11.558200
_cell_length_b 23.309000
_cell_length_c 34.534000
_cell_angle_alpha 90.000000
_cell_angle_beta 95.489000
_cell_angle_gamma 90.000000
_cell_volume 9261.145939
loop_
_atom_site_label
_atom_site_type_symbol
_atom_site_fract_x
_atom_site_fract_y
_atom_site_fract_z
O1 O 1.275360 1.036790 0.471000
O2 O 0.967110 0.854570 0.466330
O3 O 1.392980 0.816610 0.463930
O4 O 1.521290 0.988150 0.365510
O5 O 1.375500 0.786540 0.319150
O6 O 1.255820 0.991480 0.246150
O7 O 1.065200 0.795910 0.199810
O8 O 1.113100 0.974550 0.097420
O9 O 0.890660 0.782460 0.056360
O10 O 0.737900 1.003240 0.022020
O11 O 0.474760 0.828600 0.059290
O12 O 0.478850 1.042770 0.128580
O13 O 0.475900 0.843850 0.204710
O14 O 0.772200 1.024890 0.246050
O15 O 0.796160 0.832920 0.327380
O16 O 0.906700 1.047680 0.387840
C17 C 1.196000 0.992160 0.469390
C18 C 1.078700 0.998730 0.457930
H19 H 1.049700 1.035800 0.450900
C20 C 1.002500 0.952670 0.456440
C21 C 1.046100 0.898970 0.468120
C22 C 1.164600 0.892730 0.479930
H23 H 1.193400 0.856000 0.488000
C24 C 1.241400 0.938650 0.480250
C25 C 1.233100 1.093810 0.464710
H26 H 1.172300 1.102400 0.482200
H27 H 1.199400 1.098600 0.437500
C28 C 1.335900 1.133110 0.473290
H29 H 1.363800 1.130500 0.500900
H30 H 1.312600 1.172700 0.467000
H31 H 1.398300 1.121700 0.457600
C32 C 1.008300 0.799000 0.478460
H33 H 1.037500 0.799500 0.506400
H34 H 1.072300 0.786800 0.463200
C35 C 0.906000 0.758310 0.471550
H36 H 0.841000 0.772600 0.485100
H37 H 0.928700 0.720200 0.481500
H38 H 0.882100 0.755800 0.443600
C39 C 1.371100 0.929450 0.488970
H40 H 1.407600 0.964800 0.500300
H41 H 1.385500 0.898100 0.508100
C42 C 1.424200 0.914280 0.451900
C43 C 1.459500 0.957980 0.427990
H44 H 1.460000 0.996500 0.436900
C45 C 1.493700 0.946030 0.391510
C46 C 1.495000 0.889490 0.377990
C47 C 1.464500 0.846320 0.402510
H48 H 1.468300 0.807500 0.394200
C49 C 1.428600 0.858160 0.438870
C50 C 1.394600 0.758200 0.452910
H51 H 1.367300 0.755100 0.424900
H52 H 1.339300 0.736700 0.467700
C53 C 1.511900 0.730900 0.459810
H54 H 1.563600 0.747100 0.441700
H55 H 1.504700 0.689400 0.455600
H56 H 1.544300 0.738300 0.486600
C57 C 1.568100 1.040470 0.379780
H58 H 1.640000 1.033700 0.397100
H59 H 1.511600 1.060800 0.394700
C60 C 1.594000 1.075390 0.345230
H61 H 1.642600 1.053000 0.329100
H62 H 1.635400 1.110400 0.354100
H63 H 1.521100 1.085600 0.330000
C64 C 1.523400 0.877160 0.336630
H65 H 1.583400 0.904500 0.329500
H66 H 1.555400 0.837900 0.335400
C67 C 1.417200 0.882390 0.307970
C68 C 1.389700 0.934190 0.289460
H69 H 1.441000 0.965900 0.293900
C70 C 1.288100 0.940710 0.264440
C71 C 1.213100 0.895150 0.257300
C72 C 1.240500 0.843190 0.275000
H73 H 1.189900 0.811400 0.270000
C74 C 1.341900 0.836670 0.300220
C75 C 1.303000 0.737160 0.313620
H76 H 1.293500 0.726200 0.285800
H77 H 1.225300 0.745100 0.322200
C78 C 1.361800 0.689910 0.337560
H79 H 1.436900 0.681200 0.327900
H80 H 1.312700 0.655600 0.335600
H81 H 1.374300 0.702100 0.364800
C82 C 1.324500 1.041250 0.255240
H83 H 1.405000 1.035200 0.248600
H84 H 1.326900 1.050100 0.283300
C85 C 1.268600 1.088910 0.231730
H86 H 1.261500 1.078300 0.204100
H87 H 1.316200 1.123600 0.235600
H88 H 1.191100 1.096300 0.240000
C89 C 1.098900 0.902870 0.232910
H90 H 1.070900 0.942300 0.237100
H91 H 1.041900 0.876200 0.242800
C92 C 1.098100 0.893460 0.189140
C93 C 1.077300 0.839240 0.173450
C94 C 1.067400 0.831290 0.133120
H95 H 1.053200 0.793900 0.122800
C96 C 1.077800 0.876780 0.108050
C97 C 1.102500 0.930690 0.123750
C98 C 1.110700 0.938510 0.164110
H99 H 1.125300 0.975800 0.174500
C100 C 1.034200 0.740630 0.186740
H101 H 1.098600 0.722800 0.174100
H102 H 0.964600 0.742100 0.167700
C103 C 1.009200 0.706860 0.221640
H104 H 1.077200 0.707700 0.240900
H105 H 0.991500 0.667100 0.214000
H106 H 0.942300 0.723600 0.233000
C107 C 1.157800 1.028390 0.110960
H108 H 1.232400 1.023100 0.127200
H109 H 1.102300 1.047500 0.126900
C110 C 1.175600 1.064380 0.075630
H111 H 1.228700 1.044500 0.059600
H112 H 1.209100 1.101500 0.084000
H113 H 1.100800 1.070500 0.060400
C114 C 1.058000 0.868150 0.064260
H115 H 1.077700 0.828200 0.057800
H116 H 1.110000 0.894100 0.051200
C117 C 0.932200 0.880350 0.049250
C118 C 0.895600 0.936010 0.039970
H119 H 0.951200 0.966100 0.040800
C120 C 0.779600 0.948430 0.029590
C121 C 0.697300 0.905090 0.027230
C122 C 0.734500 0.848980 0.035060
H123 H 0.679600 0.818600 0.032500
C124 C 0.850200 0.836840 0.046450
C125 C 0.808500 0.737060 0.057230
H126 H 0.770800 0.729600 0.030800
H127 H 0.747600 0.747300 0.074300
C128 C 0.873200 0.685370 0.072460
H129 H 0.943700 0.680800 0.059100
H130 H 0.823900 0.651400 0.067900
H131 H 0.894600 0.689800 0.100400
C132 C 0.818800 1.049230 0.023570
H133 H 0.874200 1.043900 0.003700
H134 H 0.863300 1.050900 0.049500
C135 C 0.750900 1.103460 0.015860
H136 H 0.705400 1.100800 -0.009500
H137 H 0.804600 1.136000 0.015800
H138 H 0.698400 1.109000 0.036200
C139 C 0.567800 0.917860 0.018900
H140 H 0.556700 0.952600 0.002500
H141 H 0.528500 0.885300 0.004700
C142 C 0.516000 0.927200 0.056950
C143 C 0.474800 0.881530 0.077730
C144 C 0.438000 0.889730 0.114610
H145 H 0.409700 0.858100 0.128200
C146 C 0.442400 0.943900 0.131680
C147 C 0.479700 0.990150 0.110570
C148 C 0.516300 0.981610 0.073900
H149 H 0.542300 1.013500 0.060000
C150 C 0.445300 0.779100 0.080620
H151 H 0.479400 0.782900 0.107900
H152 H 0.479800 0.744800 0.069400
C153 C 0.316100 0.770540 0.080180
H154 H 0.283300 0.800900 0.095500
H155 H 0.300500 0.733100 0.091500
H156 H 0.280200 0.772100 0.053300
C157 C 0.506400 1.092070 0.107380
H158 H 0.455200 1.094700 0.082800
H159 H 0.588100 1.090300 0.101000
C160 C 0.488700 1.143370 0.132790
H161 H 0.406800 1.145600 0.137900
H162 H 0.510200 1.178400 0.119500
H163 H 0.537500 1.139500 0.157500
C164 C 0.411800 0.950220 0.172920
H165 H 0.352400 0.921400 0.178200
H166 H 0.378800 0.988800 0.176500
C167 C 0.520200 0.941900 0.201370
C168 C 0.550400 0.888140 0.216410
C169 C 0.652000 0.880950 0.240660
H170 H 0.671600 0.843900 0.250800
C171 C 0.726100 0.927070 0.250460
C172 C 0.694100 0.981000 0.235870
C173 C 0.592600 0.987990 0.211480
H174 H 0.572300 1.025000 0.201500
C175 C 0.497300 0.789000 0.221680
H176 H 0.497600 0.791200 0.250300
H177 H 0.573500 0.774100 0.215400
C178 C 0.400400 0.750360 0.204800
H179 H 0.325500 0.766300 0.210500
H180 H 0.410200 0.712100 0.216400
H181 H 0.402700 0.747600 0.176600
C182 C 0.744100 1.080850 0.233300
H183 H 0.673000 1.094200 0.244400
H184 H 0.729900 1.081800 0.204600
C185 C 0.846800 1.119300 0.246920
H186 H 0.913800 1.109100 0.232900
H187 H 0.866900 1.114000 0.274900
H188 H 0.825900 1.159500 0.241700
C189 C 0.842600 0.917570 0.274410
H190 H 0.866800 0.877300 0.270900
H191 H 0.901400 0.942500 0.263800
C192 C 0.844100 0.929210 0.317520
C193 C 0.823900 0.885500 0.343740
C194 C 0.831900 0.896610 0.383190
H195 H 0.818000 0.866500 0.400700
C196 C 0.859600 0.950620 0.397740
C197 C 0.878100 0.994320 0.371760
C198 C 0.871700 0.983330 0.332410
H199 H 0.886600 1.013500 0.315100
C200 C 0.783300 0.785880 0.352650
H201 H 0.723100 0.794300 0.370400
H202 H 0.857600 0.777900 0.368500
C203 C 0.747500 0.734840 0.327100
H204 H 0.673400 0.743100 0.311900
H205 H 0.738700 0.701000 0.343400
H206 H 0.807200 0.727300 0.309400
C207 C 0.920900 1.094570 0.362300
H208 H 0.848700 1.100800 0.345000
H209 H 0.985000 1.086600 0.346000
C210 C 0.948200 1.146410 0.386840
H211 H 0.891500 1.149900 0.406100
H212 H 0.944700 1.180600 0.370300
H213 H 1.026500 1.142700 0.400300
C214 C 0.875300 0.960880 0.441370
H215 H 0.850400 1.000300 0.447200
H216 H 0.826300 0.933700 0.454600
O217 O 0.224640 0.536790 0.029000
O218 O 0.532890 0.354570 0.033670
O219 O 0.107020 0.316610 0.036070
O220 O -0.021290 0.488150 0.134490
O221 O 0.124500 0.286540 0.180850
O222 O 0.244180 0.491480 0.253850
O223 O 0.434800 0.295910 0.300190
O224 O 0.386900 0.474550 0.402580
O225 O 0.609340 0.282460 0.443640
O226 O 0.762100 0.503240 0.477980
O227 O 1.025240 0.328600 0.440710
O228 O 1.021150 0.542770 0.371420
O229 O 1.024100 0.343850 0.295290
O230 O 0.727800 0.524890 0.253950
O231 O 0.703840 0.332920 0.172620
O232 O 0.593300 0.547680 0.112160
C233 C 0.304000 0.492160 0.030610
C234 C 0.421300 0.498730 0.042070
H235 H 0.450300 0.535800 0.049100
C236 C 0.497500 0.452670 0.043560
C237 C 0.453900 0.398970 0.031880
C238 C 0.335400 0.392730 0.020070
H239 H 0.306600 0.356000 0.012000
C240 C 0.258600 0.438650 0.019750
C241 C 0.266900 0.593810 0.035290
H242 H 0.327700 0.602400 0.017800
H243 H 0.300600 0.598600 0.062500
C244 C 0.164100 0.633110 0.026710
H245 H 0.136200 0.630500 -0.000900
H246 H 0.187400 0.672700 0.033000
H247 H 0.101700 0.621700 0.042400
C248 C 0.491700 0.299000 0.021540
H249 H 0.462500 0.299500 -0.006400
H250 H 0.427700 0.286800 0.036800
C251 C 0.594000 0.258310 0.028450
H252 H 0.659000 0.272600 0.014900
H253 H 0.571300 0.220200 0.018500
H254 H 0.617900 0.255800 0.056400
C255 C 0.128900 0.429450 0.011030
H256 H 0.092400 0.464800 -0.000300
H257 H 0.114500 0.398100 -0.008100
C258 C 0.075800 0.414280 0.048100
C259 C 0.040500 0.457980 0.072010
H260 H 0.040000 0.496500 0.063100
C261 C 0.006300 0.446030 0.108490
C262 C 0.005000 0.389490 0.122010
C263 C 0.035500 0.346320 0.097490
H264 H 0.031700 0.307500 0.105800
C265 C 0.071400 0.358160 0.061130
C266 C 0.105400 0.258200 0.047090
H267 H 0.132700 0.255100 0.075100
H268 H 0.160700 0.236700 0.032300
C269 C -0.011900 0.230900 0.040190
H270 H -0.063600 0.247100 0.058300
H271 H -0.004700 0.189400 0.044400
H272 H -0.044300 0.238300 0.013400
C273 C -0.068100 0.540470 0.120220
H274 H -0.140000 0.533700 0.102900
H275 H -0.011600 0.560800 0.105300
C276 C -0.094000 0.575390 0.154770
H277 H -0.142600 0.553000 0.170900
H278 H -0.135400 0.610400 0.145900
H279 H -0.021100 0.585600 0.170000
C280 C -0.023400 0.377160 0.163370
H281 H -0.083400 0.404500 0.170500
H282 H -0.055400 0.337900 0.164600
C283 C 0.082800 0.382390 0.192030
C284 C 0.110300 0.434190 0.210540
H285 H 0.059000 0.465900 0.206100
C286 C 0.211900 0.440710 0.235560
C287 C 0.286900 0.395150 0.242700
C288 C 0.259500 0.343190 0.225000
H289 H 0.310100 0.311400 0.230000
C290 C 0.158100 0.336670 0.199780
C291 C 0.197000 0.237160 0.186380
H292 H 0.206500 0.226200 0.214200
H293 H 0.274700 0.245100 0.177800
C294 C 0.138200 0.189910 0.162440
H295 H 0.063100 0.181200 0.172100
H296 H 0.187300 0.155600 0.164400
H297 H 0.125700 0.202100 0.135200
C298 C 0.175500 0.541250 0.244760
H299 H 0.095000 0.535200 0.251400
H300 H 0.173100 0.550100 0.216700
C301 C 0.231400 0.588910 0.268270
H302 H 0.238500 0.578300 0.295900
H303 H 0.183800 0.623600 0.264400
H304 H 0.308900 0.596300 0.260000
C305 C 0.401100 0.402870 0.267090
H306 H 0.429100 0.442300 0.262900
H307 H 0.458100 0.376200 0.257200
C308 C 0.401900 0.393460 0.310860
C309 C 0.422700 0.339240 0.326550
C310 C 0.432600 0.331290 0.366880
H311 H 0.446800 0.293900 0.377200
C312 C 0.422200 0.376780 0.391950
C313 C 0.397500 0.430690 0.376250
C314 C 0.389300 0.438510 0.335890
H315 H 0.374700 0.475800 0.325500
C316 C 0.465800 0.240630 0.313260
H317 H 0.401400 0.222800 0.325900
H318 H 0.535400 0.242100 0.332300
C319 C 0.490800 0.206860 0.278360
H320 H 0.422800 0.207700 0.259100
H321 H 0.508500 0.167100 0.286000
H322 H 0.557700 0.223600 0.267000
C323 C 0.342200 0.528390 0.389040
H324 H 0.267600 0.523100 0.372800
H325 H 0.397700 0.547500 0.373100
C326 C 0.324400 0.564380 0.424370
H327 H 0.271300 0.544500 0.440400
H328 H 0.290900 0.601500 0.416000
H329 H 0.399200 0.570500 0.439600
C330 C 0.442000 0.368150 0.435740
H331 H 0.422300 0.328200 0.442200
H332 H 0.390000 0.394100 0.448800
C333 C 0.567800 0.380350 0.450750
C334 C 0.604400 0.436010 0.460030
H335 H 0.548800 0.466100 0.459200
C336 C 0.720400 0.448430 0.470410
C337 C 0.802700 0.405090 0.472770
C338 C 0.765500 0.348980 0.464940
H339 H 0.820400 0.318600 0.467500
C340 C 0.649800 0.336840 0.453550
C341 C 0.691500 0.237060 0.442770
H342 H 0.729200 0.229600 0.469200
H343 H 0.752400 0.247300 0.425700
C344 C 0.626800 0.185370 0.427540
H345 H 0.556300 0.180800 0.440900
H346 H 0.676100 0.151400 0.432100
H347 H 0.605400 0.189800 0.399600
C348 C 0.681200 0.549230 0.476430
H349 H 0.625800 0.543900 0.496300
H350 H 0.636700 0.550900 0.450500
C351 C 0.749100 0.603460 0.484140
H352 H 0.794600 0.600800 0.509500
H353 H 0.695400 0.636000 0.484200
H354 H 0.801600 0.609000 0.463800
C355 C 0.932200 0.417860 0.481100
H356 H 0.943300 0.452600 0.497500
H357 H 0.971500 0.385300 0.495300
C358 C 0.984000 0.427200 0.443050
C359 C 1.025200 0.381530 0.422270
C360 C 1.062000 0.389730 0.385390
H361 H 1.090300 0.358100 0.371800
C362 C 1.057600 0.443900 0.368320
C363 C 1.020300 0.490150 0.389430
C364 C 0.983700 0.481610 0.426100
H365 H 0.957700 0.513500 0.440000
C366 C 1.054700 0.279100 0.419380
H367 H 1.020600 0.282900 0.392100
H368 H 1.020200 0.244800 0.430600
C369 C 1.183900 0.270540 0.419820
H370 H 1.216700 0.300900 0.404500
H371 H 1.199500 0.233100 0.408500
H372 H 1.219800 0.272100 0.446700
C373 C 0.993600 0.592070 0.392620
H374 H 1.044800 0.594700 0.417200
H375 H 0.911900 0.590300 0.399000
C376 C 1.011300 0.643370 0.367210
H377 H 1.093200 0.645600 0.362100
H378 H 0.989800 0.678400 0.380500
H379 H 0.962500 0.639500 0.342500
C380 C 1.088200 0.450220 0.327080
H381 H 1.147600 0.421400 0.321800
H382 H 1.121200 0.488800 0.323500
C383 C 0.979800 0.441900 0.298630
C384 C 0.949600 0.388140 0.283590
C385 C 0.848000 0.380950 0.259340
H386 H 0.828400 0.343900 0.249200
C387 C 0.773900 0.427070 0.249540
C388 C 0.805900 0.481000 0.264130
C389 C 0.907400 0.487990 0.288520
H390 H 0.927700 0.525000 0.298500
C391 C 1.002700 0.289000 0.278320
H392 H 1.002400 0.291200 0.249700
H393 H 0.926500 0.274100 0.284600
C394 C 1.099600 0.250360 0.295200
H395 H 1.174500 0.266300 0.289500
H396 H 1.089800 0.212100 0.283600
H397 H 1.097300 0.247600 0.323400
C398 C 0.755900 0.580850 0.266700
H399 H 0.827000 0.594200 0.255600
H400 H 0.770100 0.581800 0.295400
C401 C 0.653200 0.619300 0.253080
H402 H 0.586200 0.609100 0.267100
H403 H 0.633100 0.614000 0.225100
H404 H 0.674100 0.659500 0.258300
C405 C 0.657400 0.417570 0.225590
H406 H 0.633200 0.377300 0.229100
H407 H 0.598600 0.442500 0.236200
C408 C 0.655900 0.429210 0.182480
C409 C 0.676100 0.385500 0.156260
C410 C 0.668100 0.396610 0.116810
H411 H 0.682000 0.366500 0.099300
C412 C 0.640400 0.450620 0.102260
C413 C 0.621900 0.494320 0.128240
C414 C 0.628300 0.483330 0.167590
H415 H 0.613400 0.513500 0.184900
C416 C 0.716700 0.285880 0.147350
H417 H 0.776900 0.294300 0.129600
H418 H 0.642400 0.277900 0.131500
C419 C 0.752500 0.234840 0.172900
H420 H 0.826600 0.243100 0.188100
H421 H 0.761300 0.201000 0.156600
H422 H 0.692800 0.227300 0.190600
C423 C 0.579100 0.594570 0.137700
H424 H 0.651300 0.600800 0.155000
H425 H 0.515000 0.586600 0.154000
C426 C 0.551800 0.646410 0.113160
H427 H 0.608500 0.649900 0.093900
H428 H 0.555300 0.680600 0.129700
H429 H 0.473500 0.642700 0.099700
C430 C 0.624700 0.460880 0.058630
H431 H 0.649600 0.500300 0.052800
H432 H 0.673700 0.433700 0.045400
O433 O -0.275360 -0.036790 0.529000
O434 O 0.032890 0.145430 0.533670
O435 O -0.392980 0.183390 0.536070
O436 O -0.521290 0.011850 0.634490
O437 O -0.375500 0.213460 0.680850
O438 O -0.255820 0.008520 0.753850
O439 O -0.065200 0.204090 0.800190
O440 O -0.113100 0.025450 0.902580
O441 O 0.109340 0.217540 0.943640
O442 O 0.262100 -0.003240 0.977980
O443 O 0.525240 0.171400 0.940710
O444 O 0.521150 -0.042770 0.871420
O445 O 0.524100 0.156150 0.795290
O446 O 0.227800 -0.024890 0.753950
O447 O 0.203840 0.167080 0.672620
O448 O 0.093300 -0.047680 0.612160
C449 C -0.196000 0.007840 0.530610
C450 C -0.078700 0.001270 0.542070
H451 H -0.049700 -0.035800 0.549100
C452 C -0.002500 0.047330 0.543560
C453 C -0.046100 0.101030 0.531880
C454 C -0.164600 0.107270 0.520070
H455 H -0.193400 0.144000 0.512000
C456 C -0.241400 0.061350 0.519750
C457 C -0.233100 -0.093810 0.535290
H458 H -0.172300 -0.102400 0.517800
H459 H -0.199400 -0.098600 0.562500
C460 C -0.335900 -0.133110 0.526710
H461 H -0.363800 -0.130500 0.499100
H462 H -0.312600 -0.172700 0.533000
H463 H -0.398300 -0.121700 0.542400
C464 C -0.008300 0.201000 0.521540
H465 H -0.037500 0.200500 0.493600
H466 H -0.072300 0.213200 0.536800
C467 C 0.094000 0.241690 0.528450
H468 H 0.159000 0.227400 0.514900
H469 H 0.071300 0.279800 0.518500
H470 H 0.117900 0.244200 0.556400
C471 C -0.371100 0.070550 0.511030
H472 H -0.407600 0.035200 0.499700
H473 H -0.385500 0.101900 0.491900
C474 C -0.424200 0.085720 0.548100
C475 C -0.459500 0.042020 0.572010
H476 H -0.460000 0.003500 0.563100
C477 C -0.493700 0.053970 0.608490
C478 C -0.495000 0.110510 0.622010
C479 C -0.464500 0.153680 0.597490
H480 H -0.468300 0.192500 0.605800
C481 C -0.428600 0.141840 0.561130
C482 C -0.394600 0.241800 0.547090
H483 H -0.367300 0.244900 0.575100
H484 H -0.339300 0.263300 0.532300
C485 C -0.511900 0.269100 0.540190
H486 H -0.563600 0.252900 0.558300
H487 H -0.504700 0.310600 0.544400
H488 H -0.544300 0.261700 0.513400
C489 C -0.568100 -0.040470 0.620220
H490 H -0.640000 -0.033700 0.602900
H491 H -0.511600 -0.060800 0.605300
C492 C -0.594000 -0.075390 0.654770
H493 H -0.642600 -0.053000 0.670900
H494 H -0.635400 -0.110400 0.645900
H495 H -0.521100 -0.085600 0.670000
C496 C -0.523400 0.122840 0.663370
H497 H -0.583400 0.095500 0.670500
H498 H -0.555400 0.162100 0.664600
C499 C -0.417200 0.117610 0.692030
C500 C -0.389700 0.065810 0.710540
H501 H -0.441000 0.034100 0.706100
C502 C -0.288100 0.059290 0.735560
C503 C -0.213100 0.104850 0.742700
C504 C -0.240500 0.156810 0.725000
H505 H -0.189900 0.188600 0.730000
C506 C -0.341900 0.163330 0.699780
C507 C -0.303000 0.262840 0.686380
H508 H -0.293500 0.273800 0.714200
H509 H -0.225300 0.254900 0.677800
C510 C -0.361800 0.310090 0.662440
H511 H -0.436900 0.318800 0.672100
H512 H -0.312700 0.344400 0.664400
H513 H -0.374300 0.297900 0.635200
C514 C -0.324500 -0.041250 0.744760
H515 H -0.405000 -0.035200 0.751400
H516 H -0.326900 -0.050100 0.716700
C517 C -0.268600 -0.088910 0.768270
H518 H -0.261500 -0.078300 0.795900
H519 H -0.316200 -0.123600 0.764400
H520 H -0.191100 -0.096300 0.760000
C521 C -0.098900 0.097130 0.767090
H522 H -0.070900 0.057700 0.762900
H523 H -0.041900 0.123800 0.757200
C524 C -0.098100 0.106540 0.810860
C525 C -0.077300 0.160760 0.826550
C526 C -0.067400 0.168710 0.866880
H527 H -0.053200 0.206100 0.877200
C528 C -0.077800 0.123220 0.891950
C529 C -0.102500 0.069310 0.876250
C530 C -0.110700 0.061490 0.835890
H531 H -0.125300 0.024200 0.825500
C532 C -0.034200 0.259370 0.813260
H533 H -0.098600 0.277200 0.825900
H534 H 0.035400 0.257900 0.832300
C535 C -0.009200 0.293140 0.778360
H536 H -0.077200 0.292300 0.759100
H537 H 0.008500 0.332900 0.786000
H538 H 0.057700 0.276400 0.767000
C539 C -0.157800 -0.028390 0.889040
H540 H -0.232400 -0.023100 0.872800
H541 H -0.102300 -0.047500 0.873100
C542 C -0.175600 -0.064380 0.924370
H543 H -0.228700 -0.044500 0.940400
H544 H -0.209100 -0.101500 0.916000
H545 H -0.100800 -0.070500 0.939600
C546 C -0.058000 0.131850 0.935740
H547 H -0.077700 0.171800 0.942200
H548 H -0.110000 0.105900 0.948800
C549 C 0.067800 0.119650 0.950750
C550 C 0.104400 0.063990 0.960030
H551 H 0.048800 0.033900 0.959200
C552 C 0.220400 0.051570 0.970410
C553 C 0.302700 0.094910 0.972770
C554 C 0.265500 0.151020 0.964940
H555 H 0.320400 0.181400 0.967500
C556 C 0.149800 0.163160 0.953550
C557 C 0.191500 0.262940 0.942770
H558 H 0.229200 0.270400 0.969200
H559 H 0.252400 0.252700 0.925700
C560 C 0.126800 0.314630 0.927540
H561 H 0.056300 0.319200 0.940900
H562 H 0.176100 0.348600 0.932100
H563 H 0.105400 0.310200 0.899600
C564 C 0.181200 -0.049230 0.976430
H565 H 0.125800 -0.043900 0.996300
H566 H 0.136700 -0.050900 0.950500
C567 C 0.249100 -0.103460 0.984140
H568 H 0.294600 -0.100800 1.009500
H569 H 0.195400 -0.136000 0.984200
H570 H 0.301600 -0.109000 0.963800
C571 C 0.432200 0.082140 0.981100
H572 H 0.443300 0.047400 0.997500
H573 H 0.471500 0.114700 0.995300
C574 C 0.484000 0.072800 0.943050
C575 C 0.525200 0.118470 0.922270
C576 C 0.562000 0.110270 0.885390
H577 H 0.590300 0.141900 0.871800
C578 C 0.557600 0.056100 0.868320
C579 C 0.520300 0.009850 0.889430
C580 C 0.483700 0.018390 0.926100
H581 H 0.457700 -0.013500 0.940000
C582 C 0.554700 0.220900 0.919380
H583 H 0.520600 0.217100 0.892100
H584 H 0.520200 0.255200 0.930600
C585 C 0.683900 0.229460 0.919820
H586 H 0.716700 0.199100 0.904500
H587 H 0.699500 0.266900 0.908500
H588 H 0.719800 0.227900 0.946700
C589 C 0.493600 -0.092070 0.892620
H590 H 0.544800 -0.094700 0.917200
H591 H 0.411900 -0.090300 0.899000
C592 C 0.511300 -0.143370 0.867210
H593 H 0.593200 -0.145600 0.862100
H594 H 0.489800 -0.178400 0.880500
H595 H 0.462500 -0.139500 0.842500
C596 C 0.588200 0.049780 0.827080
H597 H 0.647600 0.078600 0.821800
H598 H 0.621200 0.011200 0.823500
C599 C 0.479800 0.058100 0.798630
C600 C 0.449600 0.111860 0.783590
C601 C 0.348000 0.119050 0.759340
H602 H 0.328400 0.156100 0.749200
C603 C 0.273900 0.072930 0.749540
C604 C 0.305900 0.019000 0.764130
C605 C 0.407400 0.012010 0.788520
H606 H 0.427700 -0.025000 0.798500
C607 C 0.502700 0.211000 0.778320
H608 H 0.502400 0.208800 0.749700
H609 H 0.426500 0.225900 0.784600
C610 C 0.599600 0.249640 0.795200
H611 H 0.674500 0.233700 0.789500
H612 H 0.589800 0.287900 0.783600
H613 H 0.597300 0.252400 0.823400
C614 C 0.255900 -0.080850 0.766700
H615 H 0.327000 -0.094200 0.755600
H616 H 0.270100 -0.081800 0.795400
C617 C 0.153200 -0.119300 0.753080
H618 H 0.086200 -0.109100 0.767100
H619 H 0.133100 -0.114000 0.725100
H620 H 0.174100 -0.159500 0.758300
C621 C 0.157400 0.082430 0.725590
H622 H 0.133200 0.122700 0.729100
H623 H 0.098600 0.057500 0.736200
C624 C 0.155900 0.070790 0.682480
C625 C 0.176100 0.114500 0.656260
C626 C 0.168100 0.103390 0.616810
H627 H 0.182000 0.133500 0.599300
C628 C 0.140400 0.049380 0.602260
C629 C 0.121900 0.005680 0.628240
C630 C 0.128300 0.016670 0.667590
H631 H 0.113400 -0.013500 0.684900
C632 C 0.216700 0.214120 0.647350
H633 H 0.276900 0.205700 0.629600
H634 H 0.142400 0.222100 0.631500
C635 C 0.252500 0.265160 0.672900
H636 H 0.326600 0.256900 0.688100
H637 H 0.261300 0.299000 0.656600
H638 H 0.192800 0.272700 0.690600
C639 C 0.079100 -0.094570 0.637700
H640 H 0.151300 -0.100800 0.655000
H641 H 0.015000 -0.086600 0.654000
C642 C 0.051800 -0.146410 0.613160
H643 H 0.108500 -0.149900 0.593900
H644 H 0.055300 -0.180600 0.629700
H645 H -0.026500 -0.142700 0.599700
C646 C 0.124700 0.039120 0.558630
H647 H 0.149600 -0.000300 0.552800
H648 H 0.173700 0.066300 0.545400
O649 O 0.775360 0.463210 0.971000
O650 O 0.467110 0.645430 0.966330
O651 O 0.892980 0.683390 0.963930
O652 O 1.021290 0.511850 0.865510
O653 O 0.875500 0.713460 0.819150
O654 O 0.755820 0.508520 0.746150
O655 O 0.565200 0.704090 0.699810
O656 O 0.613100 0.525450 0.597420
O657 O 0.390660 0.717540 0.556360
O658 O 0.237900 0.496760 0.522020
O659 O -0.025240 0.671400 0.559290
O660 O -0.021150 0.457230 0.628580
O661 O -0.024100 0.656150 0.704710
O662 O 0.272200 0.475110 0.746050
O663 O 0.296160 0.667080 0.827380
O664 O 0.406700 0.452320 0.887840
C665 C 0.696000 0.507840 0.969390
C666 C 0.578700 0.501270 0.957930
H667 H 0.549700 0.464200 0.950900
C668 C 0.502500 0.547330 0.956440
C669 C 0.546100 0.601030 0.968120
C670 C 0.664600 0.607270 0.979930
H671 H 0.693400 0.644000 0.988000
C672 C 0.741400 0.561350 0.980250
C673 C 0.733100 0.406190 0.964710
H674 H 0.672300 0.397600 0.982200
H675 H 0.699400 0.401400 0.937500
C676 C 0.835900 0.366890 0.973290
H677 H 0.863800 0.369500 1.000900
H678 H 0.812600 0.327300 0.967000
H679 H 0.898300 0.378300 0.957600
C680 C 0.508300 0.701000 0.978460
H681 H 0.537500 0.700500 1.006400
H682 H 0.572300 0.713200 0.963200
C683 C 0.406000 0.741690 0.971550
H684 H 0.341000 0.727400 0.985100
H685 H 0.428700 0.779800 0.981500
H686 H 0.382100 0.744200 0.943600
C687 C 0.871100 0.570550 0.988970
H688 H 0.907600 0.535200 1.000300
H689 H 0.885500 0.601900 1.008100
C690 C 0.924200 0.585720 0.951900
C691 C 0.959500 0.542020 0.927990
H692 H 0.960000 0.503500 0.936900
C693 C 0.993700 0.553970 0.891510
C694 C 0.995000 0.610510 0.877990
C695 C 0.964500 0.653680 0.902510
H696 H 0.968300 0.692500 0.894200
C697 C 0.928600 0.641840 0.938870
C698 C 0.894600 0.741800 0.952910
H699 H 0.867300 0.744900 0.924900
H700 H 0.839300 0.763300 0.967700
C701 C 1.011900 0.769100 0.959810
H702 H 1.063600 0.752900 0.941700
H703 H 1.004700 0.810600 0.955600
H704 H 1.044300 0.761700 0.986600
C705 C 1.068100 0.459530 0.879780
H706 H 1.140000 0.466300 0.897100
H707 H 1.011600 0.439200 0.894700
C708 C 1.094000 0.424610 0.845230
H709 H 1.142600 0.447000 0.829100
H710 H 1.135400 0.389600 0.854100
H711 H 1.021100 0.414400 0.830000
C712 C 1.023400 0.622840 0.836630
H713 H 1.083400 0.595500 0.829500
H714 H 1.055400 0.662100 0.835400
C715 C 0.917200 0.617610 0.807970
C716 C 0.889700 0.565810 0.789460
H717 H 0.941000 0.534100 0.793900
C718 C 0.788100 0.559290 0.764440
C719 C 0.713100 0.604850 0.757300
C720 C 0.740500 0.656810 0.775000
H721 H 0.689900 0.688600 0.770000
C722 C 0.841900 0.663330 0.800220
C723 C 0.803000 0.762840 0.813620
H724 H 0.793500 0.773800 0.785800
H725 H 0.725300 0.754900 0.822200
C726 C 0.861800 0.810090 0.837560
H727 H 0.936900 0.818800 0.827900
H728 H 0.812700 0.844400 0.835600
H729 H 0.874300 0.797900 0.864800
C730 C 0.824500 0.458750 0.755240
H731 H 0.905000 0.464800 0.748600
H732 H 0.826900 0.449900 0.783300
C733 C 0.768600 0.411090 0.731730
H734 H 0.761500 0.421700 0.704100
H735 H 0.816200 0.376400 0.735600
H736 H 0.691100 0.403700 0.740000
C737 C 0.598900 0.597130 0.732910
H738 H 0.570900 0.557700 0.737100
H739 H 0.541900 0.623800 0.742800
C740 C 0.598100 0.606540 0.689140
C741 C 0.577300 0.660760 0.673450
C742 C 0.567400 0.668710 0.633120
H743 H 0.553200 0.706100 0.622800
C744 C 0.577800 0.623220 0.608050
C745 C 0.602500 0.569310 0.623750
C746 C 0.610700 0.561490 0.664110
H747 H 0.625300 0.524200 0.674500
C748 C 0.534200 0.759370 0.686740
H749 H 0.598600 0.777200 0.674100
H750 H 0.464600 0.757900 0.667700
C751 C 0.509200 0.793140 0.721640
H752 H 0.577200 0.792300 0.740900
H753 H 0.491500 0.832900 0.714000
H754 H 0.442300 0.776400 0.733000
C755 C 0.657800 0.471610 0.610960
H756 H 0.732400 0.476900 0.627200
H757 H 0.602300 0.452500 0.626900
C758 C 0.675600 0.435620 0.575630
H759 H 0.728700 0.455500 0.559600
H760 H 0.709100 0.398500 0.584000
H761 H 0.600800 0.429500 0.560400
C762 C 0.558000 0.631850 0.564260
H763 H 0.577700 0.671800 0.557800
H764 H 0.610000 0.605900 0.551200
C765 C 0.432200 0.619650 0.549250
C766 C 0.395600 0.563990 0.539970
H767 H 0.451200 0.533900 0.540800
C768 C 0.279600 0.551570 0.529590
C769 C 0.197300 0.594910 0.527230
C770 C 0.234500 0.651020 0.535060
H771 H 0.179600 0.681400 0.532500
C772 C 0.350200 0.663160 0.546450
C773 C 0.308500 0.762940 0.557230
H774 H 0.270800 0.770400 0.530800
H775 H 0.247600 0.752700 0.574300
C776 C 0.373200 0.814630 0.572460
H777 H 0.443700 0.819200 0.559100
H778 H 0.323900 0.848600 0.567900
H779 H 0.394600 0.810200 0.600400
C780 C 0.318800 0.450770 0.523570
H781 H 0.374200 0.456100 0.503700
H782 H 0.363300 0.449100 0.549500
C783 C 0.250900 0.396540 0.515860
H784 H 0.205400 0.399200 0.490500
H785 H 0.304600 0.364000 0.515800
H786 H 0.198400 0.391000 0.536200
C787 C 0.067800 0.582140 0.518900
H788 H 0.056700 0.547400 0.502500
H789 H 0.028500 0.614700 0.504700
C790 C 0.016000 0.572800 0.556950
C791 C -0.025200 0.618470 0.577730
C792 C -0.062000 0.610270 0.614610
H793 H -0.090300 0.641900 0.628200
C794 C -0.057600 0.556100 0.631680
C795 C -0.020300 0.509850 0.610570
C796 C 0.016300 0.518390 0.573900
H797 H 0.042300 0.486500 0.560000
C798 C -0.054700 0.720900 0.580620
H799 H -0.020600 0.717100 0.607900
H800 H -0.020200 0.755200 0.569400
C801 C -0.183900 0.729460 0.580180
H802 H -0.216700 0.699100 0.595500
H803 H -0.199500 0.766900 0.591500
H804 H -0.219800 0.727900 0.553300
C805 C 0.006400 0.407930 0.607380
H806 H -0.044800 0.405300 0.582800
H807 H 0.088100 0.409700 0.601000
C808 C -0.011300 0.356630 0.632790
H809 H -0.093200 0.354400 0.637900
H810 H 0.010200 0.321600 0.619500
H811 H 0.037500 0.360500 0.657500
C812 C -0.088200 0.549780 0.672920
H813 H -0.147600 0.578600 0.678200
H814 H -0.121200 0.511200 0.676500
C815 C 0.020200 0.558100 0.701370
C816 C 0.050400 0.611860 0.716410
C817 C 0.152000 0.619050 0.740660
H818 H 0.171600 0.656100 0.750800
C819 C 0.226100 0.572930 0.750460
C820 C 0.194100 0.519000 0.735870
C821 C 0.092600 0.512010 0.711480
H822 H 0.072300 0.475000 0.701500
C823 C -0.002700 0.711000 0.721680
H824 H -0.002400 0.708800 0.750300
H825 H 0.073500 0.725900 0.715400
C826 C -0.099600 0.749640 0.704800
H827 H -0.174500 0.733700 0.710500
H828 H -0.089800 0.787900 0.716400
H829 H -0.097300 0.752400 0.676600
C830 C 0.244100 0.419150 0.733300
H831 H 0.173000 0.405800 0.744400
H832 H 0.229900 0.418200 0.704600
C833 C 0.346800 0.380700 0.746920
H834 H 0.413800 0.390900 0.732900
H835 H 0.366900 0.386000 0.774900
H836 H 0.325900 0.340500 0.741700
C837 C 0.342600 0.582430 0.774410
H838 H 0.366800 0.622700 0.770900
H839 H 0.401400 0.557500 0.763800
C840 C 0.344100 0.570790 0.817520
C841 C 0.323900 0.614500 0.843740
C842 C 0.331900 0.603390 0.883190
H843 H 0.318000 0.633500 0.900700
C844 C 0.359600 0.549380 0.897740
C845 C 0.378100 0.505680 0.871760
C846 C 0.371700 0.516670 0.832410
H847 H 0.386600 0.486500 0.815100
C848 C 0.283300 0.714120 0.852650
H849 H 0.223100 0.705700 0.870400
H850 H 0.357600 0.722100 0.868500
C851 C 0.247500 0.765160 0.827100
H852 H 0.173400 0.756900 0.811900
H853 H 0.238700 0.799000 0.843400
H854 H 0.307200 0.772700 0.809400
C855 C 0.420900 0.405430 0.862300
H856 H 0.348700 0.399200 0.845000
H857 H 0.485000 0.413400 0.846000
C858 C 0.448200 0.353590 0.886840
H859 H 0.391500 0.350100 0.906100
H860 H 0.444700 0.319400 0.870300
H861 H 0.526500 0.357300 0.900300
C862 C 0.375300 0.539120 0.941370
H863 H 0.350400 0.499700 0.947200
H864 H 0.326300 0.566300 0.954600

#END
