./ACOKEI_from_xyz.cif_generated_by_CrystalShift
_symmetry_cell_setting triclinic
_symmetry_space_group_name_H-M 'P 1'
loop_
_symmetry_equiv_pos_site_id
_symmetry_equiv_pos_as_xyz
1 x,y,z
_cell_length_a 14.673600
_cell_length_b 8.280400
_cell_length_c 6.136800
_cell_angle_alpha 90.000000
_cell_angle_beta 90.000000
_cell_angle_gamma 90.000000
_cell_volume 745.641313
loop_
_atom_site_label
_atom_site_type_symbol
_atom_site_fract_x
_atom_site_fract_y
_atom_site_fract_z
Br1 Br 0.105050 0.602540 1.167830
F2 F 0.060800 -0.005500 1.002000
F3 F 0.038300 0.258300 1.250500
F4 F 0.188400 0.571100 0.716600
F5 F 0.208200 0.308800 0.467100
N6 N 0.147700 -0.104300 0.480000
C7 C 0.142200 0.005600 0.591100
C8 C 0.133400 0.145200 0.727500
C9 C 0.091200 0.137800 0.931300
C10 C 0.079000 0.272000 1.056300
C11 C 0.113600 0.420600 0.986700
C12 C 0.154800 0.430600 0.786700
C13 C 0.165200 0.296200 0.657600
Br14 Br 0.894950 0.397460 0.667830
F15 F 0.939200 1.005500 0.502000
F16 F 0.961700 0.741700 0.750500
F17 F 0.811600 0.428900 0.216600
F18 F 0.791800 0.691200 -0.032900
N19 N 0.852300 1.104300 -0.020000
C20 C 0.857800 0.994400 0.091100
C21 C 0.866600 0.854800 0.227500
C22 C 0.908800 0.862200 0.431300
C23 C 0.921000 0.728000 0.556300
C24 C 0.886400 0.579400 0.486700
C25 C 0.845200 0.569400 0.286700
C26 C 0.834800 0.703800 0.157600
Br27 Br 0.394950 1.102540 0.667830
F28 F 0.439200 0.494500 0.502000
F29 F 0.461700 0.758300 0.750500
F30 F 0.311600 1.071100 0.216600
F31 F 0.291800 0.808800 -0.032900
N32 N 0.352300 0.395700 -0.020000
C33 C 0.357800 0.505600 0.091100
C34 C 0.366600 0.645200 0.227500
C35 C 0.408800 0.637800 0.431300
C36 C 0.421000 0.772000 0.556300
C37 C 0.386400 0.920600 0.486700
C38 C 0.345200 0.930600 0.286700
C39 C 0.334800 0.796200 0.157600
Br40 Br 0.605050 -0.102540 1.167830
F41 F 0.560800 0.505500 1.002000
F42 F 0.538300 0.241700 1.250500
F43 F 0.688400 -0.071100 0.716600
F44 F 0.708200 0.191200 0.467100
N45 N 0.647700 0.604300 0.480000
C46 C 0.642200 0.494400 0.591100
C47 C 0.633400 0.354800 0.727500
C48 C 0.591200 0.362200 0.931300
C49 C 0.579000 0.228000 1.056300
C50 C 0.613600 0.079400 0.986700
C51 C 0.654800 0.069400 0.786700
C52 C 0.665200 0.203800 0.657600

#END
