
#######################################################################
#
#                 Cambridge Crystallographic Data Centre
#                                CCDC 
#
#######################################################################
#
# If this CIF has been generated from an entry in the Cambridge 
# Structural Database, then it will include bibliographic, chemical, 
# crystal, experimental, refinement or atomic coordinate data resulting 
# from the CCDC's data processing and validation procedures.
#
#######################################################################

data_ACOKEK
_symmetry_cell_setting           monoclinic
_symmetry_space_group_name_H-M   'C 2/c'
_symmetry_Int_Tables_number      15
_space_group_name_Hall           '-C 2yn'
loop_
_symmetry_equiv_pos_site_id
_symmetry_equiv_pos_as_xyz
1 x,y,z
2 -x,y,1/2-z
3 1/2+x,1/2+y,z
4 1/2-x,1/2+y,1/2-z
5 -x,-y,-z
6 x,-y,1/2+z
7 1/2-x,1/2-y,-z
8 1/2+x,1/2-y,1/2+z
_cell_length_a                   46.342(7)
_cell_length_b                   12.654(2)
_cell_length_c                   25.206(4)
_cell_angle_alpha                90
_cell_angle_beta                 122.625(2)
_cell_angle_gamma                90
_cell_volume                     12448.9
loop_
_atom_site_label
_atom_site_type_symbol
_atom_site_fract_x
_atom_site_fract_y
_atom_site_fract_z
O1 O 0.01563(7) 0.5511(2) 0.14419(14)
O2 O 0.04118(7) 0.9232(2) 0.06136(14)
O3 O 0.08017(6) 0.5457(2) 0.03483(12)
O4 O 0.16122(6) 0.9044(2) 0.10259(12)
O5 O 0.20698(7) 0.5238(2) 0.20766(14)
O6 O 0.22969(7) 0.8978(2) 0.33837(13)
O7 O 0.22016(7) 0.5239(2) 0.42413(15)
O8 O 0.16660(6) 0.89439(19) 0.45375(12)
O9 O 0.10584(6) 0.5323(2) 0.41736(12)
O10 O 0.03794(7) 0.9155(2) 0.36277(14)
C1 C 0.00329(9) 0.7369(3) 0.18717(18)
H1 H 0.0108 0.8022 0.2128
H2 H 0.0127 0.6757 0.2162
C2 C 0.01688(8) 0.7363(3) 0.14427(16)
C3 C 0.02350(9) 0.8309(3) 0.12440(17)
H3 H 0.0210 0.8959 0.1404
C4 C 0.03361(9) 0.8320(3) 0.08182(17)
C5 C 0.03681(8) 0.7383(3) 0.05699(16)
C6 C 0.03101(8) 0.6437(3) 0.07794(16)
H4 H 0.0336 0.5787 0.0620
C7 C 0.02165(8) 0.6421(3) 0.12130(17)
C8 C 0.02260(11) 0.4524(3) 0.1262(2)
H5 H 0.0468 0.4497 0.1383
H6 H 0.0076 0.4428 0.0801
C9 C 0.01588(14) 0.3671(4) 0.1598(2)
H7 H 0.0312 0.3764 0.2054
H8 H 0.0200 0.2978 0.1477
H9 H -0.0080 0.3714 0.1481
C10 C 0.03649(13) 1.0226(3) 0.0836(2)
H10 H 0.0500 1.0242 0.1302
H11 H 0.0120 1.0331 0.0684
C11 C 0.04844(14) 1.1076(4) 0.0582(3)
H12 H 0.0727 1.0965 0.0738
H13 H 0.0455 1.1768 0.0722
H14 H 0.0349 1.1049 0.0121
C12 C 0.04651(9) 0.7381(3) 0.00792(16)
H15 H 0.0353 0.6773 -0.0208
H16 H 0.0379 0.8036 -0.0174
C13 C 0.08477(9) 0.7310(3) 0.03784(15)
C14 C 0.10447(9) 0.8226(3) 0.05370(16)
H17 H 0.0936 0.8898 0.0434
C15 C 0.14035(9) 0.8162(3) 0.08487(17)
C16 C 0.15687(9) 0.7189(3) 0.10065(16)
C17 C 0.13678(9) 0.6279(3) 0.08354(16)
H18 H 0.1475 0.5606 0.0931
C18 C 0.10114(9) 0.6341(3) 0.05252(16)
C19 C 0.09564(10) 0.4447(3) 0.0491(2)
H19 H 0.1115 0.4371 0.0953
H20 H 0.1090 0.4361 0.0293
C20 C 0.06824(12) 0.3624(3) 0.0248(2)
H21 H 0.0557 0.3697 0.0459
H22 H 0.0787 0.2921 0.0333
H23 H 0.0524 0.3716 -0.0207
C21 C 0.14655(12) 1.0059(3) 0.0927(2)
H24 H 0.1341 1.0121 0.1146
H25 H 0.1301 1.0181 0.0472
C22 C 0.17463(14) 1.0853(4) 0.1181(2)
H26 H 0.1922 1.0674 0.1618
H27 H 0.1654 1.1556 0.1167
H28 H 0.1848 1.0850 0.0926
C23 C 0.19538(9) 0.7111(3) 0.13912(18)
H29 H 0.2053 0.7723 0.1298
H30 H 0.2026 0.6459 0.1277
C24 C 0.20882(8) 0.7095(3) 0.20946(17)
C25 C 0.21360(9) 0.8049(3) 0.24080(17)
H31 H 0.2093 0.8697 0.2186
C26 C 0.22476(9) 0.8062(3) 0.30469(17)
C27 C 0.23183(8) 0.7125(3) 0.33794(16)
C28 C 0.22658(8) 0.6177(3) 0.30628(17)
H32 H 0.2315 0.5530 0.3287
C29 C 0.21410(9) 0.6160(3) 0.24179(17)
C30 C 0.20900(11) 0.4265(3) 0.2373(2)
H33 H 0.1949 0.4298 0.2558
H34 H 0.2330 0.4125 0.2715
C31 C 0.19647(13) 0.3408(4) 0.1900(3)
H35 H 0.1719 0.3499 0.1593
H36 H 0.2005 0.2724 0.2111
H37 H 0.2087 0.3433 0.1682
C32 C 0.22190(12) 0.9963(3) 0.3057(2)
H38 H 0.1977 0.9975 0.2701
H39 H 0.2367 1.0070 0.2890
C33 C 0.22826(14) 1.0814(4) 0.3524(2)
H40 H 0.2109 1.0770 0.3633
H41 H 0.2269 1.1507 0.3338
H42 H 0.2511 1.0721 0.3905
C34 C 0.24539(9) 0.7126(3) 0.40750(17)
H43 H 0.2594 0.7769 0.4268
H44 H 0.2606 0.6506 0.4273
C35 C 0.21762(8) 0.7094(3) 0.42194(16)
C36 C 0.20418(8) 0.8032(3) 0.42816(16)
H45 H 0.2116 0.8685 0.4208
C37 C 0.17998(8) 0.8035(3) 0.44502(16)
C38 C 0.16910(8) 0.7084(3) 0.45625(15)
C39 C 0.18192(9) 0.6150(3) 0.44906(17)
H46 H 0.1743 0.5498 0.4561
C40 C 0.20591(9) 0.6145(3) 0.43152(17)
C41 C 0.20960(13) 0.4252(3) 0.4347(3)
H47 H 0.1845 0.4172 0.4065
H48 H 0.2159 0.4201 0.4789
C42 C 0.22767(15) 0.3407(5) 0.4212(3)
H49 H 0.2203 0.3441 0.3767
H50 H 0.2220 0.2711 0.4302
H51 H 0.2525 0.3518 0.4478
C43 C 0.17916(11) 0.9931(3) 0.4461(2)
H52 H 0.1738 0.9997 0.4026
H53 H 0.2043 0.9971 0.4755
C44 C 0.16211(13) 1.0807(3) 0.4599(3)
H54 H 0.1373 1.0773 0.4298
H55 H 0.1707 1.1490 0.4560
H56 H 0.1672 1.0726 0.5028
C45 C 0.14587(9) 0.7068(3) 0.48193(17)
H57 H 0.1526 0.7657 0.5122
H58 H 0.1500 0.6401 0.5056
C46 C 0.10732(9) 0.7157(3) 0.43267(17)
C47 C 0.09108(10) 0.8125(3) 0.41971(18)
H59 H 0.1043 0.8743 0.4390
C48 C 0.05546(9) 0.8215(3) 0.37860(18)
C49 C 0.03614(9) 0.7311(3) 0.35212(16)
C50 C 0.05250(9) 0.6341(3) 0.36409(17)
H60 H 0.0393 0.5721 0.3451
C51 C 0.08801(9) 0.6261(3) 0.40348(16)
C52 C 0.08674(10) 0.4359(3) 0.39576(19)
H61 H 0.0715 0.4364 0.3492
H62 H 0.0724 0.4278 0.4136
C53 C 0.11166(12) 0.3469(3) 0.4166(2)
H63 H 0.1251 0.3541 0.3973
H64 H 0.0992 0.2797 0.4038
H65 H 0.1271 0.3485 0.4626
C54 C 0.05610(12) 1.0097(4) 0.3864(3)
H66 H 0.0739 1.0145 0.3762
H67 H 0.0676 1.0114 0.4327
C55 C 0.03222(14) 1.1009(4) 0.3580(3)
H68 H 0.0222 1.1019 0.3124
H69 H 0.0448 1.1668 0.3766
H70 H 0.0139 1.0940 0.3663
O1A O -0.01563(7) 0.5511(2) 0.35581(14)
O2A O -0.04118(7) 0.9232(2) 0.43864(14)
O3A O -0.08017(6) 0.5457(2) 0.46517(12)
O4A O -0.16122(6) 0.9044(2) 0.39741(12)
O5A O -0.20698(7) 0.5238(2) 0.29234(14)
O6A O -0.22969(7) 0.8978(2) 0.16163(13)
O7A O -0.22016(7) 0.5239(2) 0.07587(15)
O8A O -0.16660(6) 0.89439(19) 0.04625(12)
O9A O -0.10584(6) 0.5323(2) 0.08264(12)
O10A O -0.03794(7) 0.9155(2) 0.13723(14)
C1A C -0.00329(9) 0.7369(3) 0.31283(18)
H1A H -0.0108 0.8022 0.2872
H2A H -0.0127 0.6757 0.2838
C2A C -0.01688(8) 0.7363(3) 0.35573(16)
C3A C -0.02350(9) 0.8309(3) 0.37560(17)
H3A H -0.0210 0.8959 0.3596
C4A C -0.03361(9) 0.8320(3) 0.41818(17)
C5A C -0.03681(8) 0.7383(3) 0.44301(16)
C6A C -0.03101(8) 0.6437(3) 0.42206(16)
H4A H -0.0336 0.5787 0.4380
C7A C -0.02165(8) 0.6421(3) 0.37870(17)
C8A C -0.02260(11) 0.4524(3) 0.3738(2)
H5A H -0.0468 0.4497 0.3617
H6A H -0.0076 0.4428 0.4199
C9A C -0.01588(14) 0.3671(4) 0.3402(2)
H7A H -0.0312 0.3764 0.2946
H8A H -0.0200 0.2978 0.3523
H9A H 0.0080 0.3714 0.3519
C10A C -0.03649(13) 1.0226(3) 0.4164(2)
H10A H -0.0500 1.0242 0.3698
H11A H -0.0120 1.0331 0.4316
C11A C -0.04844(14) 1.1076(4) 0.4418(3)
H12A H -0.0727 1.0965 0.4262
H13A H -0.0455 1.1768 0.4278
H14A H -0.0349 1.1049 0.4879
C12A C -0.04651(9) 0.7381(3) 0.49208(16)
H15A H -0.0353 0.6773 0.5208
H16A H -0.0379 0.8036 0.5174
C13A C -0.08477(9) 0.7310(3) 0.46216(15)
C14A C -0.10447(9) 0.8226(3) 0.44630(16)
H17A H -0.0936 0.8898 0.4566
C15A C -0.14035(9) 0.8162(3) 0.41513(17)
C16A C -0.15687(9) 0.7189(3) 0.39935(16)
C17A C -0.13678(9) 0.6279(3) 0.41646(16)
H18A H -0.1475 0.5606 0.4069
C18A C -0.10114(9) 0.6341(3) 0.44748(16)
C19A C -0.09564(10) 0.4447(3) 0.4509(2)
H19A H -0.1115 0.4371 0.4047
H20A H -0.1090 0.4361 0.4707
C20A C -0.06824(12) 0.3624(3) 0.4752(2)
H21A H -0.0557 0.3697 0.4541
H22A H -0.0787 0.2921 0.4667
H23A H -0.0524 0.3716 0.5207
C21A C -0.14655(12) 1.0059(3) 0.4073(2)
H24A H -0.1341 1.0121 0.3854
H25A H -0.1301 1.0181 0.4528
C22A C -0.17463(14) 1.0853(4) 0.3819(2)
H26A H -0.1922 1.0674 0.3382
H27A H -0.1654 1.1556 0.3833
H28A H -0.1848 1.0850 0.4074
C23A C -0.19538(9) 0.7111(3) 0.36088(18)
H29A H -0.2053 0.7723 0.3702
H30A H -0.2026 0.6459 0.3723
C24A C -0.20882(8) 0.7095(3) 0.29054(17)
C25A C -0.21360(9) 0.8049(3) 0.25920(17)
H31A H -0.2093 0.8697 0.2814
C26A C -0.22476(9) 0.8062(3) 0.19531(17)
C27A C -0.23183(8) 0.7125(3) 0.16206(16)
C28A C -0.22658(8) 0.6177(3) 0.19372(17)
H32A H -0.2315 0.5530 0.1713
C29A C -0.21410(9) 0.6160(3) 0.25821(17)
C30A C -0.20900(11) 0.4265(3) 0.2627(2)
H33A H -0.1949 0.4298 0.2442
H34A H -0.2330 0.4125 0.2285
C31A C -0.19647(13) 0.3408(4) 0.3100(3)
H35A H -0.1719 0.3499 0.3407
H36A H -0.2005 0.2724 0.2889
H37A H -0.2087 0.3433 0.3318
C32A C -0.22190(12) 0.9963(3) 0.1943(2)
H38A H -0.1977 0.9975 0.2299
H39A H -0.2367 1.0070 0.2110
C33A C -0.22826(14) 1.0814(4) 0.1476(2)
H40A H -0.2109 1.0770 0.1367
H41A H -0.2269 1.1507 0.1662
H42A H -0.2511 1.0721 0.1095
C34A C -0.24539(9) 0.7126(3) 0.09250(17)
H43A H -0.2594 0.7769 0.0732
H44A H -0.2606 0.6506 0.0727
C35A C -0.21762(8) 0.7094(3) 0.07806(16)
C36A C -0.20418(8) 0.8032(3) 0.07184(16)
H45A H -0.2116 0.8685 0.0792
C37A C -0.17998(8) 0.8035(3) 0.05498(16)
C38A C -0.16910(8) 0.7084(3) 0.04375(15)
C39A C -0.18192(9) 0.6150(3) 0.05094(17)
H46A H -0.1743 0.5498 0.0439
C40A C -0.20591(9) 0.6145(3) 0.06848(17)
C41A C -0.20960(13) 0.4252(3) 0.0653(3)
H47A H -0.1845 0.4172 0.0935
H48A H -0.2159 0.4201 0.0211
C42A C -0.22767(15) 0.3407(5) 0.0788(3)
H49A H -0.2203 0.3441 0.1233
H50A H -0.2220 0.2711 0.0698
H51A H -0.2525 0.3518 0.0522
C43A C -0.17916(11) 0.9931(3) 0.0539(2)
H52A H -0.1738 0.9997 0.0974
H53A H -0.2043 0.9971 0.0245
C44A C -0.16211(13) 1.0807(3) 0.0401(3)
H54A H -0.1373 1.0773 0.0702
H55A H -0.1707 1.1490 0.0440
H56A H -0.1672 1.0726 -0.0028
C45A C -0.14587(9) 0.7068(3) 0.01807(17)
H57A H -0.1526 0.7657 -0.0122
H58A H -0.1500 0.6401 -0.0056
C46A C -0.10732(9) 0.7157(3) 0.06733(17)
C47A C -0.09108(10) 0.8125(3) 0.08029(18)
H59A H -0.1043 0.8743 0.0610
C48A C -0.05546(9) 0.8215(3) 0.12140(18)
C49A C -0.03614(9) 0.7311(3) 0.14788(16)
C50A C -0.05250(9) 0.6341(3) 0.13591(17)
H60A H -0.0393 0.5721 0.1549
C51A C -0.08801(9) 0.6261(3) 0.09652(16)
C52A C -0.08674(10) 0.4359(3) 0.10424(19)
H61A H -0.0715 0.4364 0.1508
H62A H -0.0724 0.4278 0.0864
C53A C -0.11166(12) 0.3469(3) 0.0834(2)
H63A H -0.1251 0.3541 0.1027
H64A H -0.0992 0.2797 0.0962
H65A H -0.1271 0.3485 0.0374
C54A C -0.05610(12) 1.0097(4) 0.1136(3)
H66A H -0.0739 1.0145 0.1238
H67A H -0.0676 1.0114 0.0673
C55A C -0.03222(14) 1.1009(4) 0.1420(3)
H68A H -0.0222 1.1019 0.1876
H69A H -0.0448 1.1668 0.1234
H70A H -0.0139 1.0940 0.1337
O1 O 1.01563(7) 0.5511(2) 0.14419(14)
O2 O 1.04118(7) 0.9232(2) 0.06136(14)
O3 O 1.08017(6) 0.5457(2) 0.03483(12)
O4 O 1.16122(6) 0.9044(2) 0.10259(12)
O5 O 1.20698(7) 0.5238(2) 0.20766(14)
O6 O 1.22969(7) 0.8978(2) 0.33837(13)
O7 O 1.22016(7) 0.5239(2) 0.42413(15)
O8 O 1.16660(6) 0.89439(19) 0.45375(12)
O9 O 1.10584(6) 0.5323(2) 0.41736(12)
O10 O 1.03794(7) 0.9155(2) 0.36277(14)
C1 C 1.00329(9) 0.7369(3) 0.18717(18)
H1 H 1.0108 0.8022 0.2128
H2 H 1.0127 0.6757 0.2162
C2 C 1.01688(8) 0.7363(3) 0.14427(16)
C3 C 1.02350(9) 0.8309(3) 0.12440(17)
H3 H 1.0210 0.8959 0.1404
C4 C 1.03361(9) 0.8320(3) 0.08182(17)
C5 C 1.03681(8) 0.7383(3) 0.05699(16)
C6 C 1.03101(8) 0.6437(3) 0.07794(16)
H4 H 1.0336 0.5787 0.0620
C7 C 1.02165(8) 0.6421(3) 0.12130(17)
C8 C 1.02260(11) 0.4524(3) 0.1262(2)
H5 H 1.0468 0.4497 0.1383
H6 H 1.0076 0.4428 0.0801
C9 C 1.01588(14) 0.3671(4) 0.1598(2)
H7 H 1.0312 0.3764 0.2054
H8 H 1.0200 0.2978 0.1477
H9 H 0.9920 0.3714 0.1481
C10 C 1.03649(13) 1.0226(3) 0.0836(2)
H10 H 1.0500 1.0242 0.1302
H11 H 1.0120 1.0331 0.0684
C11 C 1.04844(14) 1.1076(4) 0.0582(3)
H12 H 1.0727 1.0965 0.0738
H13 H 1.0455 1.1768 0.0722
H14 H 1.0349 1.1049 0.0121
C12 C 1.04651(9) 0.7381(3) 0.00792(16)
H15 H 1.0353 0.6773 -0.0208
H16 H 1.0379 0.8036 -0.0174
C13 C 1.08477(9) 0.7310(3) 0.03784(15)
C14 C 1.10447(9) 0.8226(3) 0.05370(16)
H17 H 1.0936 0.8898 0.0434
C15 C 1.14035(9) 0.8162(3) 0.08487(17)
C16 C 1.15687(9) 0.7189(3) 0.10065(16)
C17 C 1.13678(9) 0.6279(3) 0.08354(16)
H18 H 1.1475 0.5606 0.0931
C18 C 1.10114(9) 0.6341(3) 0.05252(16)
C19 C 1.09564(10) 0.4447(3) 0.0491(2)
H19 H 1.1115 0.4371 0.0953
H20 H 1.1090 0.4361 0.0293
C20 C 1.06824(12) 0.3624(3) 0.0248(2)
H21 H 1.0557 0.3697 0.0459
H22 H 1.0787 0.2921 0.0333
H23 H 1.0524 0.3716 -0.0207
C21 C 1.14655(12) 1.0059(3) 0.0927(2)
H24 H 1.1341 1.0121 0.1146
H25 H 1.1301 1.0181 0.0472
C22 C 1.17463(14) 1.0853(4) 0.1181(2)
H26 H 1.1922 1.0674 0.1618
H27 H 1.1654 1.1556 0.1167
H28 H 1.1848 1.0850 0.0926
C23 C 1.19538(9) 0.7111(3) 0.13912(18)
H29 H 1.2053 0.7723 0.1298
H30 H 1.2026 0.6459 0.1277
C24 C 1.20882(8) 0.7095(3) 0.20946(17)
C25 C 1.21360(9) 0.8049(3) 0.24080(17)
H31 H 1.2093 0.8697 0.2186
C26 C 1.22476(9) 0.8062(3) 0.30469(17)
C27 C 1.23183(8) 0.7125(3) 0.33794(16)
C28 C 1.22658(8) 0.6177(3) 0.30628(17)
H32 H 1.2315 0.5530 0.3287
C29 C 1.21410(9) 0.6160(3) 0.24179(17)
C30 C 1.20900(11) 0.4265(3) 0.2373(2)
H33 H 1.1949 0.4298 0.2558
H34 H 1.2330 0.4125 0.2715
C31 C 1.19647(13) 0.3408(4) 0.1900(3)
H35 H 1.1719 0.3499 0.1593
H36 H 1.2005 0.2724 0.2111
H37 H 1.2087 0.3433 0.1682
C32 C 1.22190(12) 0.9963(3) 0.3057(2)
H38 H 1.1977 0.9975 0.2701
H39 H 1.2367 1.0070 0.2890
C33 C 1.22826(14) 1.0814(4) 0.3524(2)
H40 H 1.2109 1.0770 0.3633
H41 H 1.2269 1.1507 0.3338
H42 H 1.2511 1.0721 0.3905
C34 C 1.24539(9) 0.7126(3) 0.40750(17)
H43 H 1.2594 0.7769 0.4268
H44 H 1.2606 0.6506 0.4273
C35 C 1.21762(8) 0.7094(3) 0.42194(16)
C36 C 1.20418(8) 0.8032(3) 0.42816(16)
H45 H 1.2116 0.8685 0.4208
C37 C 1.17998(8) 0.8035(3) 0.44502(16)
C38 C 1.16910(8) 0.7084(3) 0.45625(15)
C39 C 1.18192(9) 0.6150(3) 0.44906(17)
H46 H 1.1743 0.5498 0.4561
C40 C 1.20591(9) 0.6145(3) 0.43152(17)
C41 C 1.20960(13) 0.4252(3) 0.4347(3)
H47 H 1.1845 0.4172 0.4065
H48 H 1.2159 0.4201 0.4789
C42 C 1.22767(15) 0.3407(5) 0.4212(3)
H49 H 1.2203 0.3441 0.3767
H50 H 1.2220 0.2711 0.4302
H51 H 1.2525 0.3518 0.4478
C43 C 1.17916(11) 0.9931(3) 0.4461(2)
H52 H 1.1738 0.9997 0.4026
H53 H 1.2043 0.9971 0.4755
C44 C 1.16211(13) 1.0807(3) 0.4599(3)
H54 H 1.1373 1.0773 0.4298
H55 H 1.1707 1.1490 0.4560
H56 H 1.1672 1.0726 0.5028
C45 C 1.14587(9) 0.7068(3) 0.48193(17)
H57 H 1.1526 0.7657 0.5122
H58 H 1.1500 0.6401 0.5056
C46 C 1.10732(9) 0.7157(3) 0.43267(17)
C47 C 1.09108(10) 0.8125(3) 0.41971(18)
H59 H 1.1043 0.8743 0.4390
C48 C 1.05546(9) 0.8215(3) 0.37860(18)
C49 C 1.03614(9) 0.7311(3) 0.35212(16)
C50 C 1.05250(9) 0.6341(3) 0.36409(17)
H60 H 1.0393 0.5721 0.3451
C51 C 1.08801(9) 0.6261(3) 0.40348(16)
C52 C 1.08674(10) 0.4359(3) 0.39576(19)
H61 H 1.0715 0.4364 0.3492
H62 H 1.0724 0.4278 0.4136
C53 C 1.11166(12) 0.3469(3) 0.4166(2)
H63 H 1.1251 0.3541 0.3973
H64 H 1.0992 0.2797 0.4038
H65 H 1.1271 0.3485 0.4626
C54 C 1.05610(12) 1.0097(4) 0.3864(3)
H66 H 1.0739 1.0145 0.3762
H67 H 1.0676 1.0114 0.4327
C55 C 1.03222(14) 1.1009(4) 0.3580(3)
H68 H 1.0222 1.1019 0.3124
H69 H 1.0448 1.1668 0.3766
H70 H 1.0139 1.0940 0.3663
O1A O 0.98437(7) 0.5511(2) 0.35581(14)
O2A O 0.95882(7) 0.9232(2) 0.43864(14)
O3A O 0.91983(6) 0.5457(2) 0.46517(12)
O4A O 0.83878(6) 0.9044(2) 0.39741(12)
O5A O 0.79302(7) 0.5238(2) 0.29234(14)
O6A O 0.77031(7) 0.8978(2) 0.16163(13)
O7A O 0.77984(7) 0.5239(2) 0.07587(15)
O8A O 0.83340(6) 0.89439(19) 0.04625(12)
O9A O 0.89416(6) 0.5323(2) 0.08264(12)
O10A O 0.96206(7) 0.9155(2) 0.13723(14)
C1A C 0.99671(9) 0.7369(3) 0.31283(18)
H1A H 0.9892 0.8022 0.2872
H2A H 0.9873 0.6757 0.2838
C2A C 0.98312(8) 0.7363(3) 0.35573(16)
C3A C 0.97650(9) 0.8309(3) 0.37560(17)
H3A H 0.9790 0.8959 0.3596
C4A C 0.96639(9) 0.8320(3) 0.41818(17)
C5A C 0.96319(8) 0.7383(3) 0.44301(16)
C6A C 0.96899(8) 0.6437(3) 0.42206(16)
H4A H 0.9664 0.5787 0.4380
C7A C 0.97835(8) 0.6421(3) 0.37870(17)
C8A C 0.97740(11) 0.4524(3) 0.3738(2)
H5A H 0.9532 0.4497 0.3617
H6A H 0.9924 0.4428 0.4199
C9A C 0.98412(14) 0.3671(4) 0.3402(2)
H7A H 0.9688 0.3764 0.2946
H8A H 0.9800 0.2978 0.3523
H9A H 1.0080 0.3714 0.3519
C10A C 0.96351(13) 1.0226(3) 0.4164(2)
H10A H 0.9500 1.0242 0.3698
H11A H 0.9880 1.0331 0.4316
C11A C 0.95156(14) 1.1076(4) 0.4418(3)
H12A H 0.9273 1.0965 0.4262
H13A H 0.9545 1.1768 0.4278
H14A H 0.9651 1.1049 0.4879
C12A C 0.95349(9) 0.7381(3) 0.49208(16)
H15A H 0.9647 0.6773 0.5208
H16A H 0.9621 0.8036 0.5174
C13A C 0.91523(9) 0.7310(3) 0.46216(15)
C14A C 0.89553(9) 0.8226(3) 0.44630(16)
H17A H 0.9064 0.8898 0.4566
C15A C 0.85965(9) 0.8162(3) 0.41513(17)
C16A C 0.84313(9) 0.7189(3) 0.39935(16)
C17A C 0.86322(9) 0.6279(3) 0.41646(16)
H18A H 0.8525 0.5606 0.4069
C18A C 0.89886(9) 0.6341(3) 0.44748(16)
C19A C 0.90436(10) 0.4447(3) 0.4509(2)
H19A H 0.8885 0.4371 0.4047
H20A H 0.8910 0.4361 0.4707
C20A C 0.93176(12) 0.3624(3) 0.4752(2)
H21A H 0.9443 0.3697 0.4541
H22A H 0.9213 0.2921 0.4667
H23A H 0.9476 0.3716 0.5207
C21A C 0.85345(12) 1.0059(3) 0.4073(2)
H24A H 0.8659 1.0121 0.3854
H25A H 0.8699 1.0181 0.4528
C22A C 0.82537(14) 1.0853(4) 0.3819(2)
H26A H 0.8078 1.0674 0.3382
H27A H 0.8346 1.1556 0.3833
H28A H 0.8152 1.0850 0.4074
C23A C 0.80462(9) 0.7111(3) 0.36088(18)
H29A H 0.7947 0.7723 0.3702
H30A H 0.7974 0.6459 0.3723
C24A C 0.79118(8) 0.7095(3) 0.29054(17)
C25A C 0.78640(9) 0.8049(3) 0.25920(17)
H31A H 0.7907 0.8697 0.2814
C26A C 0.77524(9) 0.8062(3) 0.19531(17)
C27A C 0.76817(8) 0.7125(3) 0.16206(16)
C28A C 0.77342(8) 0.6177(3) 0.19372(17)
H32A H 0.7685 0.5530 0.1713
C29A C 0.78590(9) 0.6160(3) 0.25821(17)
C30A C 0.79100(11) 0.4265(3) 0.2627(2)
H33A H 0.8051 0.4298 0.2442
H34A H 0.7670 0.4125 0.2285
C31A C 0.80353(13) 0.3408(4) 0.3100(3)
H35A H 0.8281 0.3499 0.3407
H36A H 0.7995 0.2724 0.2889
H37A H 0.7913 0.3433 0.3318
C32A C 0.77810(12) 0.9963(3) 0.1943(2)
H38A H 0.8023 0.9975 0.2299
H39A H 0.7633 1.0070 0.2110
C33A C 0.77174(14) 1.0814(4) 0.1476(2)
H40A H 0.7891 1.0770 0.1367
H41A H 0.7731 1.1507 0.1662
H42A H 0.7489 1.0721 0.1095
C34A C 0.75461(9) 0.7126(3) 0.09250(17)
H43A H 0.7406 0.7769 0.0732
H44A H 0.7394 0.6506 0.0727
C35A C 0.78238(8) 0.7094(3) 0.07806(16)
C36A C 0.79582(8) 0.8032(3) 0.07184(16)
H45A H 0.7884 0.8685 0.0792
C37A C 0.82002(8) 0.8035(3) 0.05498(16)
C38A C 0.83090(8) 0.7084(3) 0.04375(15)
C39A C 0.81808(9) 0.6150(3) 0.05094(17)
H46A H 0.8257 0.5498 0.0439
C40A C 0.79409(9) 0.6145(3) 0.06848(17)
C41A C 0.79040(13) 0.4252(3) 0.0653(3)
H47A H 0.8155 0.4172 0.0935
H48A H 0.7841 0.4201 0.0211
C42A C 0.77233(15) 0.3407(5) 0.0788(3)
H49A H 0.7797 0.3441 0.1233
H50A H 0.7780 0.2711 0.0698
H51A H 0.7475 0.3518 0.0522
C43A C 0.82084(11) 0.9931(3) 0.0539(2)
H52A H 0.8262 0.9997 0.0974
H53A H 0.7957 0.9971 0.0245
C44A C 0.83789(13) 1.0807(3) 0.0401(3)
H54A H 0.8627 1.0773 0.0702
H55A H 0.8293 1.1490 0.0440
H56A H 0.8328 1.0726 -0.0028
C45A C 0.85413(9) 0.7068(3) 0.01807(17)
H57A H 0.8474 0.7657 -0.0122
H58A H 0.8500 0.6401 -0.0056
C46A C 0.89268(9) 0.7157(3) 0.06733(17)
C47A C 0.90892(10) 0.8125(3) 0.08029(18)
H59A H 0.8957 0.8743 0.0610
C48A C 0.94454(9) 0.8215(3) 0.12140(18)
C49A C 0.96386(9) 0.7311(3) 0.14788(16)
C50A C 0.94750(9) 0.6341(3) 0.13591(17)
H60A H 0.9607 0.5721 0.1549
C51A C 0.91199(9) 0.6261(3) 0.09652(16)
C52A C 0.91326(10) 0.4359(3) 0.10424(19)
H61A H 0.9285 0.4364 0.1508
H62A H 0.9276 0.4278 0.0864
C53A C 0.88834(12) 0.3469(3) 0.0834(2)
H63A H 0.8749 0.3541 0.1027
H64A H 0.9008 0.2797 0.0962
H65A H 0.8729 0.3485 0.0374
C54A C 0.94390(12) 1.0097(4) 0.1136(3)
H66A H 0.9261 1.0145 0.1238
H67A H 0.9324 1.0114 0.0673
C55A C 0.96778(14) 1.1009(4) 0.1420(3)
H68A H 0.9778 1.1019 0.1876
H69A H 0.9552 1.1668 0.1234
H70A H 0.9861 1.0940 0.1337
O1 O 0.51563(7) 0.0511(2) 0.14419(14)
O2 O 0.54118(7) 0.4232(2) 0.06136(14)
O3 O 0.58017(6) 0.0457(2) 0.03483(12)
O4 O 0.66122(6) 0.4044(2) 0.10259(12)
O5 O 0.70698(7) 0.0238(2) 0.20766(14)
O6 O 0.72969(7) 0.3978(2) 0.33837(13)
O7 O 0.72016(7) 0.0239(2) 0.42413(15)
O8 O 0.66660(6) 0.39439(19) 0.45375(12)
O9 O 0.60584(6) 0.0323(2) 0.41736(12)
O10 O 0.53794(7) 0.4155(2) 0.36277(14)
C1 C 0.50329(9) 0.2369(3) 0.18717(18)
H1 H 0.5108 0.3022 0.2128
H2 H 0.5127 0.1757 0.2162
C2 C 0.51688(8) 0.2363(3) 0.14427(16)
C3 C 0.52350(9) 0.3309(3) 0.12440(17)
H3 H 0.5210 0.3959 0.1404
C4 C 0.53361(9) 0.3320(3) 0.08182(17)
C5 C 0.53681(8) 0.2383(3) 0.05699(16)
C6 C 0.53101(8) 0.1437(3) 0.07794(16)
H4 H 0.5336 0.0787 0.0620
C7 C 0.52165(8) 0.1421(3) 0.12130(17)
C8 C 0.52260(11) -0.0476(3) 0.1262(2)
H5 H 0.5468 -0.0503 0.1383
H6 H 0.5076 -0.0572 0.0801
C9 C 0.51588(14) -0.1329(4) 0.1598(2)
H7 H 0.5312 -0.1236 0.2054
H8 H 0.5200 -0.2022 0.1477
H9 H 0.4920 -0.1286 0.1481
C10 C 0.53649(13) 0.5226(3) 0.0836(2)
H10 H 0.5500 0.5242 0.1302
H11 H 0.5120 0.5331 0.0684
C11 C 0.54844(14) 0.6076(4) 0.0582(3)
H12 H 0.5727 0.5965 0.0738
H13 H 0.5455 0.6768 0.0722
H14 H 0.5349 0.6049 0.0121
C12 C 0.54651(9) 0.2381(3) 0.00792(16)
H15 H 0.5353 0.1773 -0.0208
H16 H 0.5379 0.3036 -0.0174
C13 C 0.58477(9) 0.2310(3) 0.03784(15)
C14 C 0.60447(9) 0.3226(3) 0.05370(16)
H17 H 0.5936 0.3898 0.0434
C15 C 0.64035(9) 0.3162(3) 0.08487(17)
C16 C 0.65687(9) 0.2189(3) 0.10065(16)
C17 C 0.63678(9) 0.1279(3) 0.08354(16)
H18 H 0.6475 0.0606 0.0931
C18 C 0.60114(9) 0.1341(3) 0.05252(16)
C19 C 0.59564(10) -0.0553(3) 0.0491(2)
H19 H 0.6115 -0.0629 0.0953
H20 H 0.6090 -0.0639 0.0293
C20 C 0.56824(12) -0.1376(3) 0.0248(2)
H21 H 0.5557 -0.1303 0.0459
H22 H 0.5787 -0.2079 0.0333
H23 H 0.5524 -0.1284 -0.0207
C21 C 0.64655(12) 0.5059(3) 0.0927(2)
H24 H 0.6341 0.5121 0.1146
H25 H 0.6301 0.5181 0.0472
C22 C 0.67463(14) 0.5853(4) 0.1181(2)
H26 H 0.6922 0.5674 0.1618
H27 H 0.6654 0.6556 0.1167
H28 H 0.6848 0.5850 0.0926
C23 C 0.69538(9) 0.2111(3) 0.13912(18)
H29 H 0.7053 0.2723 0.1298
H30 H 0.7026 0.1459 0.1277
C24 C 0.70882(8) 0.2095(3) 0.20946(17)
C25 C 0.71360(9) 0.3049(3) 0.24080(17)
H31 H 0.7093 0.3697 0.2186
C26 C 0.72476(9) 0.3062(3) 0.30469(17)
C27 C 0.73183(8) 0.2125(3) 0.33794(16)
C28 C 0.72658(8) 0.1177(3) 0.30628(17)
H32 H 0.7315 0.0530 0.3287
C29 C 0.71410(9) 0.1160(3) 0.24179(17)
C30 C 0.70900(11) -0.0735(3) 0.2373(2)
H33 H 0.6949 -0.0702 0.2558
H34 H 0.7330 -0.0875 0.2715
C31 C 0.69647(13) -0.1592(4) 0.1900(3)
H35 H 0.6719 -0.1501 0.1593
H36 H 0.7005 -0.2276 0.2111
H37 H 0.7087 -0.1567 0.1682
C32 C 0.72190(12) 0.4963(3) 0.3057(2)
H38 H 0.6977 0.4975 0.2701
H39 H 0.7367 0.5070 0.2890
C33 C 0.72826(14) 0.5814(4) 0.3524(2)
H40 H 0.7109 0.5770 0.3633
H41 H 0.7269 0.6507 0.3338
H42 H 0.7511 0.5721 0.3905
C34 C 0.74539(9) 0.2126(3) 0.40750(17)
H43 H 0.7594 0.2769 0.4268
H44 H 0.7606 0.1506 0.4273
C35 C 0.71762(8) 0.2094(3) 0.42194(16)
C36 C 0.70418(8) 0.3032(3) 0.42816(16)
H45 H 0.7116 0.3685 0.4208
C37 C 0.67998(8) 0.3035(3) 0.44502(16)
C38 C 0.66910(8) 0.2084(3) 0.45625(15)
C39 C 0.68192(9) 0.1150(3) 0.44906(17)
H46 H 0.6743 0.0498 0.4561
C40 C 0.70591(9) 0.1145(3) 0.43152(17)
C41 C 0.70960(13) -0.0748(3) 0.4347(3)
H47 H 0.6845 -0.0828 0.4065
H48 H 0.7159 -0.0799 0.4789
C42 C 0.72767(15) -0.1593(5) 0.4212(3)
H49 H 0.7203 -0.1559 0.3767
H50 H 0.7220 -0.2289 0.4302
H51 H 0.7525 -0.1482 0.4478
C43 C 0.67916(11) 0.4931(3) 0.4461(2)
H52 H 0.6738 0.4997 0.4026
H53 H 0.7043 0.4971 0.4755
C44 C 0.66211(13) 0.5807(3) 0.4599(3)
H54 H 0.6373 0.5773 0.4298
H55 H 0.6707 0.6490 0.4560
H56 H 0.6672 0.5726 0.5028
C45 C 0.64587(9) 0.2068(3) 0.48193(17)
H57 H 0.6526 0.2657 0.5122
H58 H 0.6500 0.1401 0.5056
C46 C 0.60732(9) 0.2157(3) 0.43267(17)
C47 C 0.59108(10) 0.3125(3) 0.41971(18)
H59 H 0.6043 0.3743 0.4390
C48 C 0.55546(9) 0.3215(3) 0.37860(18)
C49 C 0.53614(9) 0.2311(3) 0.35212(16)
C50 C 0.55250(9) 0.1341(3) 0.36409(17)
H60 H 0.5393 0.0721 0.3451
C51 C 0.58801(9) 0.1261(3) 0.40348(16)
C52 C 0.58674(10) -0.0641(3) 0.39576(19)
H61 H 0.5715 -0.0636 0.3492
H62 H 0.5724 -0.0722 0.4136
C53 C 0.61166(12) -0.1531(3) 0.4166(2)
H63 H 0.6251 -0.1459 0.3973
H64 H 0.5992 -0.2203 0.4038
H65 H 0.6271 -0.1515 0.4626
C54 C 0.55610(12) 0.5097(4) 0.3864(3)
H66 H 0.5739 0.5145 0.3762
H67 H 0.5676 0.5114 0.4327
C55 C 0.53222(14) 0.6009(4) 0.3580(3)
H68 H 0.5222 0.6019 0.3124
H69 H 0.5448 0.6668 0.3766
H70 H 0.5139 0.5940 0.3663
O1A O 0.48437(7) 0.0511(2) 0.35581(14)
O2A O 0.45882(7) 0.4232(2) 0.43864(14)
O3A O 0.41983(6) 0.0457(2) 0.46517(12)
O4A O 0.33878(6) 0.4044(2) 0.39741(12)
O5A O 0.29302(7) 0.0238(2) 0.29234(14)
O6A O 0.27031(7) 0.3978(2) 0.16163(13)
O7A O 0.27984(7) 0.0239(2) 0.07587(15)
O8A O 0.33340(6) 0.39439(19) 0.04625(12)
O9A O 0.39416(6) 0.0323(2) 0.08264(12)
O10A O 0.46206(7) 0.4155(2) 0.13723(14)
C1A C 0.49671(9) 0.2369(3) 0.31283(18)
H1A H 0.4892 0.3022 0.2872
H2A H 0.4873 0.1757 0.2838
C2A C 0.48312(8) 0.2363(3) 0.35573(16)
C3A C 0.47650(9) 0.3309(3) 0.37560(17)
H3A H 0.4790 0.3959 0.3596
C4A C 0.46639(9) 0.3320(3) 0.41818(17)
C5A C 0.46319(8) 0.2383(3) 0.44301(16)
C6A C 0.46899(8) 0.1437(3) 0.42206(16)
H4A H 0.4664 0.0787 0.4380
C7A C 0.47835(8) 0.1421(3) 0.37870(17)
C8A C 0.47740(11) -0.0476(3) 0.3738(2)
H5A H 0.4532 -0.0503 0.3617
H6A H 0.4924 -0.0572 0.4199
C9A C 0.48412(14) -0.1329(4) 0.3402(2)
H7A H 0.4688 -0.1236 0.2946
H8A H 0.4800 -0.2022 0.3523
H9A H 0.5080 -0.1286 0.3519
C10A C 0.46351(13) 0.5226(3) 0.4164(2)
H10A H 0.4500 0.5242 0.3698
H11A H 0.4880 0.5331 0.4316
C11A C 0.45156(14) 0.6076(4) 0.4418(3)
H12A H 0.4273 0.5965 0.4262
H13A H 0.4545 0.6768 0.4278
H14A H 0.4651 0.6049 0.4879
C12A C 0.45349(9) 0.2381(3) 0.49208(16)
H15A H 0.4647 0.1773 0.5208
H16A H 0.4621 0.3036 0.5174
C13A C 0.41523(9) 0.2310(3) 0.46216(15)
C14A C 0.39553(9) 0.3226(3) 0.44630(16)
H17A H 0.4064 0.3898 0.4566
C15A C 0.35965(9) 0.3162(3) 0.41513(17)
C16A C 0.34313(9) 0.2189(3) 0.39935(16)
C17A C 0.36322(9) 0.1279(3) 0.41646(16)
H18A H 0.3525 0.0606 0.4069
C18A C 0.39886(9) 0.1341(3) 0.44748(16)
C19A C 0.40436(10) -0.0553(3) 0.4509(2)
H19A H 0.3885 -0.0629 0.4047
H20A H 0.3910 -0.0639 0.4707
C20A C 0.43176(12) -0.1376(3) 0.4752(2)
H21A H 0.4443 -0.1303 0.4541
H22A H 0.4213 -0.2079 0.4667
H23A H 0.4476 -0.1284 0.5207
C21A C 0.35345(12) 0.5059(3) 0.4073(2)
H24A H 0.3659 0.5121 0.3854
H25A H 0.3699 0.5181 0.4528
C22A C 0.32537(14) 0.5853(4) 0.3819(2)
H26A H 0.3078 0.5674 0.3382
H27A H 0.3346 0.6556 0.3833
H28A H 0.3152 0.5850 0.4074
C23A C 0.30462(9) 0.2111(3) 0.36088(18)
H29A H 0.2947 0.2723 0.3702
H30A H 0.2974 0.1459 0.3723
C24A C 0.29118(8) 0.2095(3) 0.29054(17)
C25A C 0.28640(9) 0.3049(3) 0.25920(17)
H31A H 0.2907 0.3697 0.2814
C26A C 0.27524(9) 0.3062(3) 0.19531(17)
C27A C 0.26817(8) 0.2125(3) 0.16206(16)
C28A C 0.27342(8) 0.1177(3) 0.19372(17)
H32A H 0.2685 0.0530 0.1713
C29A C 0.28590(9) 0.1160(3) 0.25821(17)
C30A C 0.29100(11) -0.0735(3) 0.2627(2)
H33A H 0.3051 -0.0702 0.2442
H34A H 0.2670 -0.0875 0.2285
C31A C 0.30353(13) -0.1592(4) 0.3100(3)
H35A H 0.3281 -0.1501 0.3407
H36A H 0.2995 -0.2276 0.2889
H37A H 0.2913 -0.1567 0.3318
C32A C 0.27810(12) 0.4963(3) 0.1943(2)
H38A H 0.3023 0.4975 0.2299
H39A H 0.2633 0.5070 0.2110
C33A C 0.27174(14) 0.5814(4) 0.1476(2)
H40A H 0.2891 0.5770 0.1367
H41A H 0.2731 0.6507 0.1662
H42A H 0.2489 0.5721 0.1095
C34A C 0.25461(9) 0.2126(3) 0.09250(17)
H43A H 0.2406 0.2769 0.0732
H44A H 0.2394 0.1506 0.0727
C35A C 0.28238(8) 0.2094(3) 0.07806(16)
C36A C 0.29582(8) 0.3032(3) 0.07184(16)
H45A H 0.2884 0.3685 0.0792
C37A C 0.32002(8) 0.3035(3) 0.05498(16)
C38A C 0.33090(8) 0.2084(3) 0.04375(15)
C39A C 0.31808(9) 0.1150(3) 0.05094(17)
H46A H 0.3257 0.0498 0.0439
C40A C 0.29409(9) 0.1145(3) 0.06848(17)
C41A C 0.29040(13) -0.0748(3) 0.0653(3)
H47A H 0.3155 -0.0828 0.0935
H48A H 0.2841 -0.0799 0.0211
C42A C 0.27233(15) -0.1593(5) 0.0788(3)
H49A H 0.2797 -0.1559 0.1233
H50A H 0.2780 -0.2289 0.0698
H51A H 0.2475 -0.1482 0.0522
C43A C 0.32084(11) 0.4931(3) 0.0539(2)
H52A H 0.3262 0.4997 0.0974
H53A H 0.2957 0.4971 0.0245
C44A C 0.33789(13) 0.5807(3) 0.0401(3)
H54A H 0.3627 0.5773 0.0702
H55A H 0.3293 0.6490 0.0440
H56A H 0.3328 0.5726 -0.0028
C45A C 0.35413(9) 0.2068(3) 0.01807(17)
H57A H 0.3474 0.2657 -0.0122
H58A H 0.3500 0.1401 -0.0056
C46A C 0.39268(9) 0.2157(3) 0.06733(17)
C47A C 0.40892(10) 0.3125(3) 0.08029(18)
H59A H 0.3957 0.3743 0.0610
C48A C 0.44454(9) 0.3215(3) 0.12140(18)
C49A C 0.46386(9) 0.2311(3) 0.14788(16)
C50A C 0.44750(9) 0.1341(3) 0.13591(17)
H60A H 0.4607 0.0721 0.1549
C51A C 0.41199(9) 0.1261(3) 0.09652(16)
C52A C 0.41326(10) -0.0641(3) 0.10424(19)
H61A H 0.4285 -0.0636 0.1508
H62A H 0.4276 -0.0722 0.0864
C53A C 0.38834(12) -0.1531(3) 0.0834(2)
H63A H 0.3749 -0.1459 0.1027
H64A H 0.4008 -0.2203 0.0962
H65A H 0.3729 -0.1515 0.0374
C54A C 0.44390(12) 0.5097(4) 0.1136(3)
H66A H 0.4261 0.5145 0.1238
H67A H 0.4324 0.5114 0.0673
C55A C 0.46778(14) 0.6009(4) 0.1420(3)
H68A H 0.4778 0.6019 0.1876
H69A H 0.4552 0.6668 0.1234
H70A H 0.4861 0.5940 0.1337
O1 O -0.01563(7) 0.4489(2) 0.85581(14)
O2 O -0.04118(7) 0.0768(2) 0.93864(14)
O3 O -0.08017(6) 0.4543(2) 0.96517(12)
O4 O -0.16122(6) 0.0956(2) 0.89741(12)
O5 O -0.20698(7) 0.4762(2) 0.79234(14)
O6 O -0.22969(7) 0.1022(2) 0.66163(13)
O7 O -0.22016(7) 0.4761(2) 0.57587(15)
O8 O -0.16660(6) 0.10561(19) 0.54625(12)
O9 O -0.10584(6) 0.4677(2) 0.58264(12)
O10 O -0.03794(7) 0.0845(2) 0.63723(14)
C1 C -0.00329(9) 0.2631(3) 0.81283(18)
H1 H -0.0108 0.1978 0.7872
H2 H -0.0127 0.3243 0.7838
C2 C -0.01688(8) 0.2637(3) 0.85573(16)
C3 C -0.02350(9) 0.1691(3) 0.87560(17)
H3 H -0.0210 0.1041 0.8596
C4 C -0.03361(9) 0.1680(3) 0.91818(17)
C5 C -0.03681(8) 0.2617(3) 0.94301(16)
C6 C -0.03101(8) 0.3563(3) 0.92206(16)
H4 H -0.0336 0.4213 0.9380
C7 C -0.02165(8) 0.3579(3) 0.87870(17)
C8 C -0.02260(11) 0.5476(3) 0.8738(2)
H5 H -0.0468 0.5503 0.8617
H6 H -0.0076 0.5572 0.9199
C9 C -0.01588(14) 0.6329(4) 0.8402(2)
H7 H -0.0312 0.6236 0.7946
H8 H -0.0200 0.7022 0.8523
H9 H 0.0080 0.6286 0.8519
C10 C -0.03649(13) -0.0226(3) 0.9164(2)
H10 H -0.0500 -0.0242 0.8698
H11 H -0.0120 -0.0331 0.9316
C11 C -0.04844(14) -0.1076(4) 0.9418(3)
H12 H -0.0727 -0.0965 0.9262
H13 H -0.0455 -0.1768 0.9278
H14 H -0.0349 -0.1049 0.9879
C12 C -0.04651(9) 0.2619(3) 0.99208(16)
H15 H -0.0353 0.3227 1.0208
H16 H -0.0379 0.1964 1.0174
C13 C -0.08477(9) 0.2690(3) 0.96216(15)
C14 C -0.10447(9) 0.1774(3) 0.94630(16)
H17 H -0.0936 0.1102 0.9566
C15 C -0.14035(9) 0.1838(3) 0.91513(17)
C16 C -0.15687(9) 0.2811(3) 0.89935(16)
C17 C -0.13678(9) 0.3721(3) 0.91646(16)
H18 H -0.1475 0.4394 0.9069
C18 C -0.10114(9) 0.3659(3) 0.94748(16)
C19 C -0.09564(10) 0.5553(3) 0.9509(2)
H19 H -0.1115 0.5629 0.9047
H20 H -0.1090 0.5639 0.9707
C20 C -0.06824(12) 0.6376(3) 0.9752(2)
H21 H -0.0557 0.6303 0.9541
H22 H -0.0787 0.7079 0.9667
H23 H -0.0524 0.6284 1.0207
C21 C -0.14655(12) -0.0059(3) 0.9073(2)
H24 H -0.1341 -0.0121 0.8854
H25 H -0.1301 -0.0181 0.9528
C22 C -0.17463(14) -0.0853(4) 0.8819(2)
H26 H -0.1922 -0.0674 0.8382
H27 H -0.1654 -0.1556 0.8833
H28 H -0.1848 -0.0850 0.9074
C23 C -0.19538(9) 0.2889(3) 0.86088(18)
H29 H -0.2053 0.2277 0.8702
H30 H -0.2026 0.3541 0.8723
C24 C -0.20882(8) 0.2905(3) 0.79054(17)
C25 C -0.21360(9) 0.1951(3) 0.75920(17)
H31 H -0.2093 0.1303 0.7814
C26 C -0.22476(9) 0.1938(3) 0.69531(17)
C27 C -0.23183(8) 0.2875(3) 0.66206(16)
C28 C -0.22658(8) 0.3823(3) 0.69372(17)
H32 H -0.2315 0.4470 0.6713
C29 C -0.21410(9) 0.3840(3) 0.75821(17)
C30 C -0.20900(11) 0.5735(3) 0.7627(2)
H33 H -0.1949 0.5702 0.7442
H34 H -0.2330 0.5875 0.7285
C31 C -0.19647(13) 0.6592(4) 0.8100(3)
H35 H -0.1719 0.6501 0.8407
H36 H -0.2005 0.7276 0.7889
H37 H -0.2087 0.6567 0.8318
C32 C -0.22190(12) 0.0037(3) 0.6943(2)
H38 H -0.1977 0.0025 0.7299
H39 H -0.2367 -0.0070 0.7110
C33 C -0.22826(14) -0.0814(4) 0.6476(2)
H40 H -0.2109 -0.0770 0.6367
H41 H -0.2269 -0.1507 0.6662
H42 H -0.2511 -0.0721 0.6095
C34 C -0.24539(9) 0.2874(3) 0.59250(17)
H43 H -0.2594 0.2231 0.5732
H44 H -0.2606 0.3494 0.5727
C35 C -0.21762(8) 0.2906(3) 0.57806(16)
C36 C -0.20418(8) 0.1968(3) 0.57184(16)
H45 H -0.2116 0.1315 0.5792
C37 C -0.17998(8) 0.1965(3) 0.55498(16)
C38 C -0.16910(8) 0.2916(3) 0.54375(15)
C39 C -0.18192(9) 0.3850(3) 0.55094(17)
H46 H -0.1743 0.4502 0.5439
C40 C -0.20591(9) 0.3855(3) 0.56848(17)
C41 C -0.20960(13) 0.5748(3) 0.5653(3)
H47 H -0.1845 0.5828 0.5935
H48 H -0.2159 0.5799 0.5211
C42 C -0.22767(15) 0.6593(5) 0.5788(3)
H49 H -0.2203 0.6559 0.6233
H50 H -0.2220 0.7289 0.5698
H51 H -0.2525 0.6482 0.5522
C43 C -0.17916(11) 0.0069(3) 0.5539(2)
H52 H -0.1738 0.0003 0.5974
H53 H -0.2043 0.0029 0.5245
C44 C -0.16211(13) -0.0807(3) 0.5401(3)
H54 H -0.1373 -0.0773 0.5702
H55 H -0.1707 -0.1490 0.5440
H56 H -0.1672 -0.0726 0.4972
C45 C -0.14587(9) 0.2932(3) 0.51807(17)
H57 H -0.1526 0.2343 0.4878
H58 H -0.1500 0.3599 0.4944
C46 C -0.10732(9) 0.2843(3) 0.56733(17)
C47 C -0.09108(10) 0.1875(3) 0.58029(18)
H59 H -0.1043 0.1257 0.5610
C48 C -0.05546(9) 0.1785(3) 0.62140(18)
C49 C -0.03614(9) 0.2689(3) 0.64788(16)
C50 C -0.05250(9) 0.3659(3) 0.63591(17)
H60 H -0.0393 0.4279 0.6549
C51 C -0.08801(9) 0.3739(3) 0.59652(16)
C52 C -0.08674(10) 0.5641(3) 0.60424(19)
H61 H -0.0715 0.5636 0.6508
H62 H -0.0724 0.5722 0.5864
C53 C -0.11166(12) 0.6531(3) 0.5834(2)
H63 H -0.1251 0.6459 0.6027
H64 H -0.0992 0.7203 0.5962
H65 H -0.1271 0.6515 0.5374
C54 C -0.05610(12) -0.0097(4) 0.6136(3)
H66 H -0.0739 -0.0145 0.6238
H67 H -0.0676 -0.0114 0.5673
C55 C -0.03222(14) -0.1009(4) 0.6420(3)
H68 H -0.0222 -0.1019 0.6876
H69 H -0.0448 -0.1668 0.6234
H70 H -0.0139 -0.0940 0.6337
O1A O 0.01563(7) 0.4489(2) 0.64419(14)
O2A O 0.04118(7) 0.0768(2) 0.56136(14)
O3A O 0.08017(6) 0.4543(2) 0.53483(12)
O4A O 0.16122(6) 0.0956(2) 0.60259(12)
O5A O 0.20698(7) 0.4762(2) 0.70766(14)
O6A O 0.22969(7) 0.1022(2) 0.83837(13)
O7A O 0.22016(7) 0.4761(2) 0.92413(15)
O8A O 0.16660(6) 0.10561(19) 0.95375(12)
O9A O 0.10584(6) 0.4677(2) 0.91736(12)
O10A O 0.03794(7) 0.0845(2) 0.86277(14)
C1A C 0.00329(9) 0.2631(3) 0.68717(18)
H1A H 0.0108 0.1978 0.7128
H2A H 0.0127 0.3243 0.7162
C2A C 0.01688(8) 0.2637(3) 0.64427(16)
C3A C 0.02350(9) 0.1691(3) 0.62440(17)
H3A H 0.0210 0.1041 0.6404
C4A C 0.03361(9) 0.1680(3) 0.58182(17)
C5A C 0.03681(8) 0.2617(3) 0.55699(16)
C6A C 0.03101(8) 0.3563(3) 0.57794(16)
H4A H 0.0336 0.4213 0.5620
C7A C 0.02165(8) 0.3579(3) 0.62130(17)
C8A C 0.02260(11) 0.5476(3) 0.6262(2)
H5A H 0.0468 0.5503 0.6383
H6A H 0.0076 0.5572 0.5801
C9A C 0.01588(14) 0.6329(4) 0.6598(2)
H7A H 0.0312 0.6236 0.7054
H8A H 0.0200 0.7022 0.6477
H9A H -0.0080 0.6286 0.6481
C10A C 0.03649(13) -0.0226(3) 0.5836(2)
H10A H 0.0500 -0.0242 0.6302
H11A H 0.0120 -0.0331 0.5684
C11A C 0.04844(14) -0.1076(4) 0.5582(3)
H12A H 0.0727 -0.0965 0.5738
H13A H 0.0455 -0.1768 0.5722
H14A H 0.0349 -0.1049 0.5121
C12A C 0.04651(9) 0.2619(3) 0.50792(16)
H15A H 0.0353 0.3227 0.4792
H16A H 0.0379 0.1964 0.4826
C13A C 0.08477(9) 0.2690(3) 0.53784(15)
C14A C 0.10447(9) 0.1774(3) 0.55370(16)
H17A H 0.0936 0.1102 0.5434
C15A C 0.14035(9) 0.1838(3) 0.58487(17)
C16A C 0.15687(9) 0.2811(3) 0.60065(16)
C17A C 0.13678(9) 0.3721(3) 0.58354(16)
H18A H 0.1475 0.4394 0.5931
C18A C 0.10114(9) 0.3659(3) 0.55252(16)
C19A C 0.09564(10) 0.5553(3) 0.5491(2)
H19A H 0.1115 0.5629 0.5953
H20A H 0.1090 0.5639 0.5293
C20A C 0.06824(12) 0.6376(3) 0.5248(2)
H21A H 0.0557 0.6303 0.5459
H22A H 0.0787 0.7079 0.5333
H23A H 0.0524 0.6284 0.4793
C21A C 0.14655(12) -0.0059(3) 0.5927(2)
H24A H 0.1341 -0.0121 0.6146
H25A H 0.1301 -0.0181 0.5472
C22A C 0.17463(14) -0.0853(4) 0.6181(2)
H26A H 0.1922 -0.0674 0.6618
H27A H 0.1654 -0.1556 0.6167
H28A H 0.1848 -0.0850 0.5926
C23A C 0.19538(9) 0.2889(3) 0.63912(18)
H29A H 0.2053 0.2277 0.6298
H30A H 0.2026 0.3541 0.6277
C24A C 0.20882(8) 0.2905(3) 0.70946(17)
C25A C 0.21360(9) 0.1951(3) 0.74080(17)
H31A H 0.2093 0.1303 0.7186
C26A C 0.22476(9) 0.1938(3) 0.80469(17)
C27A C 0.23183(8) 0.2875(3) 0.83794(16)
C28A C 0.22658(8) 0.3823(3) 0.80628(17)
H32A H 0.2315 0.4470 0.8287
C29A C 0.21410(9) 0.3840(3) 0.74179(17)
C30A C 0.20900(11) 0.5735(3) 0.7373(2)
H33A H 0.1949 0.5702 0.7558
H34A H 0.2330 0.5875 0.7715
C31A C 0.19647(13) 0.6592(4) 0.6900(3)
H35A H 0.1719 0.6501 0.6593
H36A H 0.2005 0.7276 0.7111
H37A H 0.2087 0.6567 0.6682
C32A C 0.22190(12) 0.0037(3) 0.8057(2)
H38A H 0.1977 0.0025 0.7701
H39A H 0.2367 -0.0070 0.7890
C33A C 0.22826(14) -0.0814(4) 0.8524(2)
H40A H 0.2109 -0.0770 0.8633
H41A H 0.2269 -0.1507 0.8338
H42A H 0.2511 -0.0721 0.8905
C34A C 0.24539(9) 0.2874(3) 0.90750(17)
H43A H 0.2594 0.2231 0.9268
H44A H 0.2606 0.3494 0.9273
C35A C 0.21762(8) 0.2906(3) 0.92194(16)
C36A C 0.20418(8) 0.1968(3) 0.92816(16)
H45A H 0.2116 0.1315 0.9208
C37A C 0.17998(8) 0.1965(3) 0.94502(16)
C38A C 0.16910(8) 0.2916(3) 0.95625(15)
C39A C 0.18192(9) 0.3850(3) 0.94906(17)
H46A H 0.1743 0.4502 0.9561
C40A C 0.20591(9) 0.3855(3) 0.93152(17)
C41A C 0.20960(13) 0.5748(3) 0.9347(3)
H47A H 0.1845 0.5828 0.9065
H48A H 0.2159 0.5799 0.9789
C42A C 0.22767(15) 0.6593(5) 0.9212(3)
H49A H 0.2203 0.6559 0.8767
H50A H 0.2220 0.7289 0.9302
H51A H 0.2525 0.6482 0.9478
C43A C 0.17916(11) 0.0069(3) 0.9461(2)
H52A H 0.1738 0.0003 0.9026
H53A H 0.2043 0.0029 0.9755
C44A C 0.16211(13) -0.0807(3) 0.9599(3)
H54A H 0.1373 -0.0773 0.9298
H55A H 0.1707 -0.1490 0.9560
H56A H 0.1672 -0.0726 1.0028
C45A C 0.14587(9) 0.2932(3) 0.98193(17)
H57A H 0.1526 0.2343 1.0122
H58A H 0.1500 0.3599 1.0056
C46A C 0.10732(9) 0.2843(3) 0.93267(17)
C47A C 0.09108(10) 0.1875(3) 0.91971(18)
H59A H 0.1043 0.1257 0.9390
C48A C 0.05546(9) 0.1785(3) 0.87860(18)
C49A C 0.03614(9) 0.2689(3) 0.85212(16)
C50A C 0.05250(9) 0.3659(3) 0.86409(17)
H60A H 0.0393 0.4279 0.8451
C51A C 0.08801(9) 0.3739(3) 0.90348(16)
C52A C 0.08674(10) 0.5641(3) 0.89576(19)
H61A H 0.0715 0.5636 0.8492
H62A H 0.0724 0.5722 0.9136
C53A C 0.11166(12) 0.6531(3) 0.9166(2)
H63A H 0.1251 0.6459 0.8973
H64A H 0.0992 0.7203 0.9038
H65A H 0.1271 0.6515 0.9626
C54A C 0.05610(12) -0.0097(4) 0.8864(3)
H66A H 0.0739 -0.0145 0.8762
H67A H 0.0676 -0.0114 0.9327
C55A C 0.03222(14) -0.1009(4) 0.8580(3)
H68A H 0.0222 -0.1019 0.8124
H69A H 0.0448 -0.1668 0.8766
H70A H 0.0139 -0.0940 0.8663
O1 O 0.98437(7) 0.4489(2) 0.85581(14)
O2 O 0.95882(7) 0.0768(2) 0.93864(14)
O3 O 0.91983(6) 0.4543(2) 0.96517(12)
O4 O 0.83878(6) 0.0956(2) 0.89741(12)
O5 O 0.79302(7) 0.4762(2) 0.79234(14)
O6 O 0.77031(7) 0.1022(2) 0.66163(13)
O7 O 0.77984(7) 0.4761(2) 0.57587(15)
O8 O 0.83340(6) 0.10561(19) 0.54625(12)
O9 O 0.89416(6) 0.4677(2) 0.58264(12)
O10 O 0.96206(7) 0.0845(2) 0.63723(14)
C1 C 0.99671(9) 0.2631(3) 0.81283(18)
H1 H 0.9892 0.1978 0.7872
H2 H 0.9873 0.3243 0.7838
C2 C 0.98312(8) 0.2637(3) 0.85573(16)
C3 C 0.97650(9) 0.1691(3) 0.87560(17)
H3 H 0.9790 0.1041 0.8596
C4 C 0.96639(9) 0.1680(3) 0.91818(17)
C5 C 0.96319(8) 0.2617(3) 0.94301(16)
C6 C 0.96899(8) 0.3563(3) 0.92206(16)
H4 H 0.9664 0.4213 0.9380
C7 C 0.97835(8) 0.3579(3) 0.87870(17)
C8 C 0.97740(11) 0.5476(3) 0.8738(2)
H5 H 0.9532 0.5503 0.8617
H6 H 0.9924 0.5572 0.9199
C9 C 0.98412(14) 0.6329(4) 0.8402(2)
H7 H 0.9688 0.6236 0.7946
H8 H 0.9800 0.7022 0.8523
H9 H 1.0080 0.6286 0.8519
C10 C 0.96351(13) -0.0226(3) 0.9164(2)
H10 H 0.9500 -0.0242 0.8698
H11 H 0.9880 -0.0331 0.9316
C11 C 0.95156(14) -0.1076(4) 0.9418(3)
H12 H 0.9273 -0.0965 0.9262
H13 H 0.9545 -0.1768 0.9278
H14 H 0.9651 -0.1049 0.9879
C12 C 0.95349(9) 0.2619(3) 0.99208(16)
H15 H 0.9647 0.3227 1.0208
H16 H 0.9621 0.1964 1.0174
C13 C 0.91523(9) 0.2690(3) 0.96216(15)
C14 C 0.89553(9) 0.1774(3) 0.94630(16)
H17 H 0.9064 0.1102 0.9566
C15 C 0.85965(9) 0.1838(3) 0.91513(17)
C16 C 0.84313(9) 0.2811(3) 0.89935(16)
C17 C 0.86322(9) 0.3721(3) 0.91646(16)
H18 H 0.8525 0.4394 0.9069
C18 C 0.89886(9) 0.3659(3) 0.94748(16)
C19 C 0.90436(10) 0.5553(3) 0.9509(2)
H19 H 0.8885 0.5629 0.9047
H20 H 0.8910 0.5639 0.9707
C20 C 0.93176(12) 0.6376(3) 0.9752(2)
H21 H 0.9443 0.6303 0.9541
H22 H 0.9213 0.7079 0.9667
H23 H 0.9476 0.6284 1.0207
C21 C 0.85345(12) -0.0059(3) 0.9073(2)
H24 H 0.8659 -0.0121 0.8854
H25 H 0.8699 -0.0181 0.9528
C22 C 0.82537(14) -0.0853(4) 0.8819(2)
H26 H 0.8078 -0.0674 0.8382
H27 H 0.8346 -0.1556 0.8833
H28 H 0.8152 -0.0850 0.9074
C23 C 0.80462(9) 0.2889(3) 0.86088(18)
H29 H 0.7947 0.2277 0.8702
H30 H 0.7974 0.3541 0.8723
C24 C 0.79118(8) 0.2905(3) 0.79054(17)
C25 C 0.78640(9) 0.1951(3) 0.75920(17)
H31 H 0.7907 0.1303 0.7814
C26 C 0.77524(9) 0.1938(3) 0.69531(17)
C27 C 0.76817(8) 0.2875(3) 0.66206(16)
C28 C 0.77342(8) 0.3823(3) 0.69372(17)
H32 H 0.7685 0.4470 0.6713
C29 C 0.78590(9) 0.3840(3) 0.75821(17)
C30 C 0.79100(11) 0.5735(3) 0.7627(2)
H33 H 0.8051 0.5702 0.7442
H34 H 0.7670 0.5875 0.7285
C31 C 0.80353(13) 0.6592(4) 0.8100(3)
H35 H 0.8281 0.6501 0.8407
H36 H 0.7995 0.7276 0.7889
H37 H 0.7913 0.6567 0.8318
C32 C 0.77810(12) 0.0037(3) 0.6943(2)
H38 H 0.8023 0.0025 0.7299
H39 H 0.7633 -0.0070 0.7110
C33 C 0.77174(14) -0.0814(4) 0.6476(2)
H40 H 0.7891 -0.0770 0.6367
H41 H 0.7731 -0.1507 0.6662
H42 H 0.7489 -0.0721 0.6095
C34 C 0.75461(9) 0.2874(3) 0.59250(17)
H43 H 0.7406 0.2231 0.5732
H44 H 0.7394 0.3494 0.5727
C35 C 0.78238(8) 0.2906(3) 0.57806(16)
C36 C 0.79582(8) 0.1968(3) 0.57184(16)
H45 H 0.7884 0.1315 0.5792
C37 C 0.82002(8) 0.1965(3) 0.55498(16)
C38 C 0.83090(8) 0.2916(3) 0.54375(15)
C39 C 0.81808(9) 0.3850(3) 0.55094(17)
H46 H 0.8257 0.4502 0.5439
C40 C 0.79409(9) 0.3855(3) 0.56848(17)
C41 C 0.79040(13) 0.5748(3) 0.5653(3)
H47 H 0.8155 0.5828 0.5935
H48 H 0.7841 0.5799 0.5211
C42 C 0.77233(15) 0.6593(5) 0.5788(3)
H49 H 0.7797 0.6559 0.6233
H50 H 0.7780 0.7289 0.5698
H51 H 0.7475 0.6482 0.5522
C43 C 0.82084(11) 0.0069(3) 0.5539(2)
H52 H 0.8262 0.0003 0.5974
H53 H 0.7957 0.0029 0.5245
C44 C 0.83789(13) -0.0807(3) 0.5401(3)
H54 H 0.8627 -0.0773 0.5702
H55 H 0.8293 -0.1490 0.5440
H56 H 0.8328 -0.0726 0.4972
C45 C 0.85413(9) 0.2932(3) 0.51807(17)
H57 H 0.8474 0.2343 0.4878
H58 H 0.8500 0.3599 0.4944
C46 C 0.89268(9) 0.2843(3) 0.56733(17)
C47 C 0.90892(10) 0.1875(3) 0.58029(18)
H59 H 0.8957 0.1257 0.5610
C48 C 0.94454(9) 0.1785(3) 0.62140(18)
C49 C 0.96386(9) 0.2689(3) 0.64788(16)
C50 C 0.94750(9) 0.3659(3) 0.63591(17)
H60 H 0.9607 0.4279 0.6549
C51 C 0.91199(9) 0.3739(3) 0.59652(16)
C52 C 0.91326(10) 0.5641(3) 0.60424(19)
H61 H 0.9285 0.5636 0.6508
H62 H 0.9276 0.5722 0.5864
C53 C 0.88834(12) 0.6531(3) 0.5834(2)
H63 H 0.8749 0.6459 0.6027
H64 H 0.9008 0.7203 0.5962
H65 H 0.8729 0.6515 0.5374
C54 C 0.94390(12) -0.0097(4) 0.6136(3)
H66 H 0.9261 -0.0145 0.6238
H67 H 0.9324 -0.0114 0.5673
C55 C 0.96778(14) -0.1009(4) 0.6420(3)
H68 H 0.9778 -0.1019 0.6876
H69 H 0.9552 -0.1668 0.6234
H70 H 0.9861 -0.0940 0.6337
O1A O 1.01563(7) 0.4489(2) 0.64419(14)
O2A O 1.04118(7) 0.0768(2) 0.56136(14)
O3A O 1.08017(6) 0.4543(2) 0.53483(12)
O4A O 1.16122(6) 0.0956(2) 0.60259(12)
O5A O 1.20698(7) 0.4762(2) 0.70766(14)
O6A O 1.22969(7) 0.1022(2) 0.83837(13)
O7A O 1.22016(7) 0.4761(2) 0.92413(15)
O8A O 1.16660(6) 0.10561(19) 0.95375(12)
O9A O 1.10584(6) 0.4677(2) 0.91736(12)
O10A O 1.03794(7) 0.0845(2) 0.86277(14)
C1A C 1.00329(9) 0.2631(3) 0.68717(18)
H1A H 1.0108 0.1978 0.7128
H2A H 1.0127 0.3243 0.7162
C2A C 1.01688(8) 0.2637(3) 0.64427(16)
C3A C 1.02350(9) 0.1691(3) 0.62440(17)
H3A H 1.0210 0.1041 0.6404
C4A C 1.03361(9) 0.1680(3) 0.58182(17)
C5A C 1.03681(8) 0.2617(3) 0.55699(16)
C6A C 1.03101(8) 0.3563(3) 0.57794(16)
H4A H 1.0336 0.4213 0.5620
C7A C 1.02165(8) 0.3579(3) 0.62130(17)
C8A C 1.02260(11) 0.5476(3) 0.6262(2)
H5A H 1.0468 0.5503 0.6383
H6A H 1.0076 0.5572 0.5801
C9A C 1.01588(14) 0.6329(4) 0.6598(2)
H7A H 1.0312 0.6236 0.7054
H8A H 1.0200 0.7022 0.6477
H9A H 0.9920 0.6286 0.6481
C10A C 1.03649(13) -0.0226(3) 0.5836(2)
H10A H 1.0500 -0.0242 0.6302
H11A H 1.0120 -0.0331 0.5684
C11A C 1.04844(14) -0.1076(4) 0.5582(3)
H12A H 1.0727 -0.0965 0.5738
H13A H 1.0455 -0.1768 0.5722
H14A H 1.0349 -0.1049 0.5121
C12A C 1.04651(9) 0.2619(3) 0.50792(16)
H15A H 1.0353 0.3227 0.4792
H16A H 1.0379 0.1964 0.4826
C13A C 1.08477(9) 0.2690(3) 0.53784(15)
C14A C 1.10447(9) 0.1774(3) 0.55370(16)
H17A H 1.0936 0.1102 0.5434
C15A C 1.14035(9) 0.1838(3) 0.58487(17)
C16A C 1.15687(9) 0.2811(3) 0.60065(16)
C17A C 1.13678(9) 0.3721(3) 0.58354(16)
H18A H 1.1475 0.4394 0.5931
C18A C 1.10114(9) 0.3659(3) 0.55252(16)
C19A C 1.09564(10) 0.5553(3) 0.5491(2)
H19A H 1.1115 0.5629 0.5953
H20A H 1.1090 0.5639 0.5293
C20A C 1.06824(12) 0.6376(3) 0.5248(2)
H21A H 1.0557 0.6303 0.5459
H22A H 1.0787 0.7079 0.5333
H23A H 1.0524 0.6284 0.4793
C21A C 1.14655(12) -0.0059(3) 0.5927(2)
H24A H 1.1341 -0.0121 0.6146
H25A H 1.1301 -0.0181 0.5472
C22A C 1.17463(14) -0.0853(4) 0.6181(2)
H26A H 1.1922 -0.0674 0.6618
H27A H 1.1654 -0.1556 0.6167
H28A H 1.1848 -0.0850 0.5926
C23A C 1.19538(9) 0.2889(3) 0.63912(18)
H29A H 1.2053 0.2277 0.6298
H30A H 1.2026 0.3541 0.6277
C24A C 1.20882(8) 0.2905(3) 0.70946(17)
C25A C 1.21360(9) 0.1951(3) 0.74080(17)
H31A H 1.2093 0.1303 0.7186
C26A C 1.22476(9) 0.1938(3) 0.80469(17)
C27A C 1.23183(8) 0.2875(3) 0.83794(16)
C28A C 1.22658(8) 0.3823(3) 0.80628(17)
H32A H 1.2315 0.4470 0.8287
C29A C 1.21410(9) 0.3840(3) 0.74179(17)
C30A C 1.20900(11) 0.5735(3) 0.7373(2)
H33A H 1.1949 0.5702 0.7558
H34A H 1.2330 0.5875 0.7715
C31A C 1.19647(13) 0.6592(4) 0.6900(3)
H35A H 1.1719 0.6501 0.6593
H36A H 1.2005 0.7276 0.7111
H37A H 1.2087 0.6567 0.6682
C32A C 1.22190(12) 0.0037(3) 0.8057(2)
H38A H 1.1977 0.0025 0.7701
H39A H 1.2367 -0.0070 0.7890
C33A C 1.22826(14) -0.0814(4) 0.8524(2)
H40A H 1.2109 -0.0770 0.8633
H41A H 1.2269 -0.1507 0.8338
H42A H 1.2511 -0.0721 0.8905
C34A C 1.24539(9) 0.2874(3) 0.90750(17)
H43A H 1.2594 0.2231 0.9268
H44A H 1.2606 0.3494 0.9273
C35A C 1.21762(8) 0.2906(3) 0.92194(16)
C36A C 1.20418(8) 0.1968(3) 0.92816(16)
H45A H 1.2116 0.1315 0.9208
C37A C 1.17998(8) 0.1965(3) 0.94502(16)
C38A C 1.16910(8) 0.2916(3) 0.95625(15)
C39A C 1.18192(9) 0.3850(3) 0.94906(17)
H46A H 1.1743 0.4502 0.9561
C40A C 1.20591(9) 0.3855(3) 0.93152(17)
C41A C 1.20960(13) 0.5748(3) 0.9347(3)
H47A H 1.1845 0.5828 0.9065
H48A H 1.2159 0.5799 0.9789
C42A C 1.22767(15) 0.6593(5) 0.9212(3)
H49A H 1.2203 0.6559 0.8767
H50A H 1.2220 0.7289 0.9302
H51A H 1.2525 0.6482 0.9478
C43A C 1.17916(11) 0.0069(3) 0.9461(2)
H52A H 1.1738 0.0003 0.9026
H53A H 1.2043 0.0029 0.9755
C44A C 1.16211(13) -0.0807(3) 0.9599(3)
H54A H 1.1373 -0.0773 0.9298
H55A H 1.1707 -0.1490 0.9560
H56A H 1.1672 -0.0726 1.0028
C45A C 1.14587(9) 0.2932(3) 0.98193(17)
H57A H 1.1526 0.2343 1.0122
H58A H 1.1500 0.3599 1.0056
C46A C 1.10732(9) 0.2843(3) 0.93267(17)
C47A C 1.09108(10) 0.1875(3) 0.91971(18)
H59A H 1.1043 0.1257 0.9390
C48A C 1.05546(9) 0.1785(3) 0.87860(18)
C49A C 1.03614(9) 0.2689(3) 0.85212(16)
C50A C 1.05250(9) 0.3659(3) 0.86409(17)
H60A H 1.0393 0.4279 0.8451
C51A C 1.08801(9) 0.3739(3) 0.90348(16)
C52A C 1.08674(10) 0.5641(3) 0.89576(19)
H61A H 1.0715 0.5636 0.8492
H62A H 1.0724 0.5722 0.9136
C53A C 1.11166(12) 0.6531(3) 0.9166(2)
H63A H 1.1251 0.6459 0.8973
H64A H 1.0992 0.7203 0.9038
H65A H 1.1271 0.6515 0.9626
C54A C 1.05610(12) -0.0097(4) 0.8864(3)
H66A H 1.0739 -0.0145 0.8762
H67A H 1.0676 -0.0114 0.9327
C55A C 1.03222(14) -0.1009(4) 0.8580(3)
H68A H 1.0222 -0.1019 0.8124
H69A H 1.0448 -0.1668 0.8766
H70A H 1.0139 -0.0940 0.8663
O1 O 0.48437(7) 0.9489(2) 0.85581(14)
O2 O 0.45882(7) 0.5768(2) 0.93864(14)
O3 O 0.41983(6) 0.9543(2) 0.96517(12)
O4 O 0.33878(6) 0.5956(2) 0.89741(12)
O5 O 0.29302(7) 0.9762(2) 0.79234(14)
O6 O 0.27031(7) 0.6022(2) 0.66163(13)
O7 O 0.27984(7) 0.9761(2) 0.57587(15)
O8 O 0.33340(6) 0.60561(19) 0.54625(12)
O9 O 0.39416(6) 0.9677(2) 0.58264(12)
O10 O 0.46206(7) 0.5845(2) 0.63723(14)
C1 C 0.49671(9) 0.7631(3) 0.81283(18)
H1 H 0.4892 0.6978 0.7872
H2 H 0.4873 0.8243 0.7838
C2 C 0.48312(8) 0.7637(3) 0.85573(16)
C3 C 0.47650(9) 0.6691(3) 0.87560(17)
H3 H 0.4790 0.6041 0.8596
C4 C 0.46639(9) 0.6680(3) 0.91818(17)
C5 C 0.46319(8) 0.7617(3) 0.94301(16)
C6 C 0.46899(8) 0.8563(3) 0.92206(16)
H4 H 0.4664 0.9213 0.9380
C7 C 0.47835(8) 0.8579(3) 0.87870(17)
C8 C 0.47740(11) 1.0476(3) 0.8738(2)
H5 H 0.4532 1.0503 0.8617
H6 H 0.4924 1.0572 0.9199
C9 C 0.48412(14) 1.1329(4) 0.8402(2)
H7 H 0.4688 1.1236 0.7946
H8 H 0.4800 1.2022 0.8523
H9 H 0.5080 1.1286 0.8519
C10 C 0.46351(13) 0.4774(3) 0.9164(2)
H10 H 0.4500 0.4758 0.8698
H11 H 0.4880 0.4669 0.9316
C11 C 0.45156(14) 0.3924(4) 0.9418(3)
H12 H 0.4273 0.4035 0.9262
H13 H 0.4545 0.3232 0.9278
H14 H 0.4651 0.3951 0.9879
C12 C 0.45349(9) 0.7619(3) 0.99208(16)
H15 H 0.4647 0.8227 1.0208
H16 H 0.4621 0.6964 1.0174
C13 C 0.41523(9) 0.7690(3) 0.96216(15)
C14 C 0.39553(9) 0.6774(3) 0.94630(16)
H17 H 0.4064 0.6102 0.9566
C15 C 0.35965(9) 0.6838(3) 0.91513(17)
C16 C 0.34313(9) 0.7811(3) 0.89935(16)
C17 C 0.36322(9) 0.8721(3) 0.91646(16)
H18 H 0.3525 0.9394 0.9069
C18 C 0.39886(9) 0.8659(3) 0.94748(16)
C19 C 0.40436(10) 1.0553(3) 0.9509(2)
H19 H 0.3885 1.0629 0.9047
H20 H 0.3910 1.0639 0.9707
C20 C 0.43176(12) 1.1376(3) 0.9752(2)
H21 H 0.4443 1.1303 0.9541
H22 H 0.4213 1.2079 0.9667
H23 H 0.4476 1.1284 1.0207
C21 C 0.35345(12) 0.4941(3) 0.9073(2)
H24 H 0.3659 0.4879 0.8854
H25 H 0.3699 0.4819 0.9528
C22 C 0.32537(14) 0.4147(4) 0.8819(2)
H26 H 0.3078 0.4326 0.8382
H27 H 0.3346 0.3444 0.8833
H28 H 0.3152 0.4150 0.9074
C23 C 0.30462(9) 0.7889(3) 0.86088(18)
H29 H 0.2947 0.7277 0.8702
H30 H 0.2974 0.8541 0.8723
C24 C 0.29118(8) 0.7905(3) 0.79054(17)
C25 C 0.28640(9) 0.6951(3) 0.75920(17)
H31 H 0.2907 0.6303 0.7814
C26 C 0.27524(9) 0.6938(3) 0.69531(17)
C27 C 0.26817(8) 0.7875(3) 0.66206(16)
C28 C 0.27342(8) 0.8823(3) 0.69372(17)
H32 H 0.2685 0.9470 0.6713
C29 C 0.28590(9) 0.8840(3) 0.75821(17)
C30 C 0.29100(11) 1.0735(3) 0.7627(2)
H33 H 0.3051 1.0702 0.7442
H34 H 0.2670 1.0875 0.7285
C31 C 0.30353(13) 1.1592(4) 0.8100(3)
H35 H 0.3281 1.1501 0.8407
H36 H 0.2995 1.2276 0.7889
H37 H 0.2913 1.1567 0.8318
C32 C 0.27810(12) 0.5037(3) 0.6943(2)
H38 H 0.3023 0.5025 0.7299
H39 H 0.2633 0.4930 0.7110
C33 C 0.27174(14) 0.4186(4) 0.6476(2)
H40 H 0.2891 0.4230 0.6367
H41 H 0.2731 0.3493 0.6662
H42 H 0.2489 0.4279 0.6095
C34 C 0.25461(9) 0.7874(3) 0.59250(17)
H43 H 0.2406 0.7231 0.5732
H44 H 0.2394 0.8494 0.5727
C35 C 0.28238(8) 0.7906(3) 0.57806(16)
C36 C 0.29582(8) 0.6968(3) 0.57184(16)
H45 H 0.2884 0.6315 0.5792
C37 C 0.32002(8) 0.6965(3) 0.55498(16)
C38 C 0.33090(8) 0.7916(3) 0.54375(15)
C39 C 0.31808(9) 0.8850(3) 0.55094(17)
H46 H 0.3257 0.9502 0.5439
C40 C 0.29409(9) 0.8855(3) 0.56848(17)
C41 C 0.29040(13) 1.0748(3) 0.5653(3)
H47 H 0.3155 1.0828 0.5935
H48 H 0.2841 1.0799 0.5211
C42 C 0.27233(15) 1.1593(5) 0.5788(3)
H49 H 0.2797 1.1559 0.6233
H50 H 0.2780 1.2289 0.5698
H51 H 0.2475 1.1482 0.5522
C43 C 0.32084(11) 0.5069(3) 0.5539(2)
H52 H 0.3262 0.5003 0.5974
H53 H 0.2957 0.5029 0.5245
C44 C 0.33789(13) 0.4193(3) 0.5401(3)
H54 H 0.3627 0.4227 0.5702
H55 H 0.3293 0.3510 0.5440
H56 H 0.3328 0.4274 0.4972
C45 C 0.35413(9) 0.7932(3) 0.51807(17)
H57 H 0.3474 0.7343 0.4878
H58 H 0.3500 0.8599 0.4944
C46 C 0.39268(9) 0.7843(3) 0.56733(17)
C47 C 0.40892(10) 0.6875(3) 0.58029(18)
H59 H 0.3957 0.6257 0.5610
C48 C 0.44454(9) 0.6785(3) 0.62140(18)
C49 C 0.46386(9) 0.7689(3) 0.64788(16)
C50 C 0.44750(9) 0.8659(3) 0.63591(17)
H60 H 0.4607 0.9279 0.6549
C51 C 0.41199(9) 0.8739(3) 0.59652(16)
C52 C 0.41326(10) 1.0641(3) 0.60424(19)
H61 H 0.4285 1.0636 0.6508
H62 H 0.4276 1.0722 0.5864
C53 C 0.38834(12) 1.1531(3) 0.5834(2)
H63 H 0.3749 1.1459 0.6027
H64 H 0.4008 1.2203 0.5962
H65 H 0.3729 1.1515 0.5374
C54 C 0.44390(12) 0.4903(4) 0.6136(3)
H66 H 0.4261 0.4855 0.6238
H67 H 0.4324 0.4886 0.5673
C55 C 0.46778(14) 0.3991(4) 0.6420(3)
H68 H 0.4778 0.3981 0.6876
H69 H 0.4552 0.3332 0.6234
H70 H 0.4861 0.4060 0.6337
O1A O 0.51563(7) 0.9489(2) 0.64419(14)
O2A O 0.54118(7) 0.5768(2) 0.56136(14)
O3A O 0.58017(6) 0.9543(2) 0.53483(12)
O4A O 0.66122(6) 0.5956(2) 0.60259(12)
O5A O 0.70698(7) 0.9762(2) 0.70766(14)
O6A O 0.72969(7) 0.6022(2) 0.83837(13)
O7A O 0.72016(7) 0.9761(2) 0.92413(15)
O8A O 0.66660(6) 0.60561(19) 0.95375(12)
O9A O 0.60584(6) 0.9677(2) 0.91736(12)
O10A O 0.53794(7) 0.5845(2) 0.86277(14)
C1A C 0.50329(9) 0.7631(3) 0.68717(18)
H1A H 0.5108 0.6978 0.7128
H2A H 0.5127 0.8243 0.7162
C2A C 0.51688(8) 0.7637(3) 0.64427(16)
C3A C 0.52350(9) 0.6691(3) 0.62440(17)
H3A H 0.5210 0.6041 0.6404
C4A C 0.53361(9) 0.6680(3) 0.58182(17)
C5A C 0.53681(8) 0.7617(3) 0.55699(16)
C6A C 0.53101(8) 0.8563(3) 0.57794(16)
H4A H 0.5336 0.9213 0.5620
C7A C 0.52165(8) 0.8579(3) 0.62130(17)
C8A C 0.52260(11) 1.0476(3) 0.6262(2)
H5A H 0.5468 1.0503 0.6383
H6A H 0.5076 1.0572 0.5801
C9A C 0.51588(14) 1.1329(4) 0.6598(2)
H7A H 0.5312 1.1236 0.7054
H8A H 0.5200 1.2022 0.6477
H9A H 0.4920 1.1286 0.6481
C10A C 0.53649(13) 0.4774(3) 0.5836(2)
H10A H 0.5500 0.4758 0.6302
H11A H 0.5120 0.4669 0.5684
C11A C 0.54844(14) 0.3924(4) 0.5582(3)
H12A H 0.5727 0.4035 0.5738
H13A H 0.5455 0.3232 0.5722
H14A H 0.5349 0.3951 0.5121
C12A C 0.54651(9) 0.7619(3) 0.50792(16)
H15A H 0.5353 0.8227 0.4792
H16A H 0.5379 0.6964 0.4826
C13A C 0.58477(9) 0.7690(3) 0.53784(15)
C14A C 0.60447(9) 0.6774(3) 0.55370(16)
H17A H 0.5936 0.6102 0.5434
C15A C 0.64035(9) 0.6838(3) 0.58487(17)
C16A C 0.65687(9) 0.7811(3) 0.60065(16)
C17A C 0.63678(9) 0.8721(3) 0.58354(16)
H18A H 0.6475 0.9394 0.5931
C18A C 0.60114(9) 0.8659(3) 0.55252(16)
C19A C 0.59564(10) 1.0553(3) 0.5491(2)
H19A H 0.6115 1.0629 0.5953
H20A H 0.6090 1.0639 0.5293
C20A C 0.56824(12) 1.1376(3) 0.5248(2)
H21A H 0.5557 1.1303 0.5459
H22A H 0.5787 1.2079 0.5333
H23A H 0.5524 1.1284 0.4793
C21A C 0.64655(12) 0.4941(3) 0.5927(2)
H24A H 0.6341 0.4879 0.6146
H25A H 0.6301 0.4819 0.5472
C22A C 0.67463(14) 0.4147(4) 0.6181(2)
H26A H 0.6922 0.4326 0.6618
H27A H 0.6654 0.3444 0.6167
H28A H 0.6848 0.4150 0.5926
C23A C 0.69538(9) 0.7889(3) 0.63912(18)
H29A H 0.7053 0.7277 0.6298
H30A H 0.7026 0.8541 0.6277
C24A C 0.70882(8) 0.7905(3) 0.70946(17)
C25A C 0.71360(9) 0.6951(3) 0.74080(17)
H31A H 0.7093 0.6303 0.7186
C26A C 0.72476(9) 0.6938(3) 0.80469(17)
C27A C 0.73183(8) 0.7875(3) 0.83794(16)
C28A C 0.72658(8) 0.8823(3) 0.80628(17)
H32A H 0.7315 0.9470 0.8287
C29A C 0.71410(9) 0.8840(3) 0.74179(17)
C30A C 0.70900(11) 1.0735(3) 0.7373(2)
H33A H 0.6949 1.0702 0.7558
H34A H 0.7330 1.0875 0.7715
C31A C 0.69647(13) 1.1592(4) 0.6900(3)
H35A H 0.6719 1.1501 0.6593
H36A H 0.7005 1.2276 0.7111
H37A H 0.7087 1.1567 0.6682
C32A C 0.72190(12) 0.5037(3) 0.8057(2)
H38A H 0.6977 0.5025 0.7701
H39A H 0.7367 0.4930 0.7890
C33A C 0.72826(14) 0.4186(4) 0.8524(2)
H40A H 0.7109 0.4230 0.8633
H41A H 0.7269 0.3493 0.8338
H42A H 0.7511 0.4279 0.8905
C34A C 0.74539(9) 0.7874(3) 0.90750(17)
H43A H 0.7594 0.7231 0.9268
H44A H 0.7606 0.8494 0.9273
C35A C 0.71762(8) 0.7906(3) 0.92194(16)
C36A C 0.70418(8) 0.6968(3) 0.92816(16)
H45A H 0.7116 0.6315 0.9208
C37A C 0.67998(8) 0.6965(3) 0.94502(16)
C38A C 0.66910(8) 0.7916(3) 0.95625(15)
C39A C 0.68192(9) 0.8850(3) 0.94906(17)
H46A H 0.6743 0.9502 0.9561
C40A C 0.70591(9) 0.8855(3) 0.93152(17)
C41A C 0.70960(13) 1.0748(3) 0.9347(3)
H47A H 0.6845 1.0828 0.9065
H48A H 0.7159 1.0799 0.9789
C42A C 0.72767(15) 1.1593(5) 0.9212(3)
H49A H 0.7203 1.1559 0.8767
H50A H 0.7220 1.2289 0.9302
H51A H 0.7525 1.1482 0.9478
C43A C 0.67916(11) 0.5069(3) 0.9461(2)
H52A H 0.6738 0.5003 0.9026
H53A H 0.7043 0.5029 0.9755
C44A C 0.66211(13) 0.4193(3) 0.9599(3)
H54A H 0.6373 0.4227 0.9298
H55A H 0.6707 0.3510 0.9560
H56A H 0.6672 0.4274 1.0028
C45A C 0.64587(9) 0.7932(3) 0.98193(17)
H57A H 0.6526 0.7343 1.0122
H58A H 0.6500 0.8599 1.0056
C46A C 0.60732(9) 0.7843(3) 0.93267(17)
C47A C 0.59108(10) 0.6875(3) 0.91971(18)
H59A H 0.6043 0.6257 0.9390
C48A C 0.55546(9) 0.6785(3) 0.87860(18)
C49A C 0.53614(9) 0.7689(3) 0.85212(16)
C50A C 0.55250(9) 0.8659(3) 0.86409(17)
H60A H 0.5393 0.9279 0.8451
C51A C 0.58801(9) 0.8739(3) 0.90348(16)
C52A C 0.58674(10) 1.0641(3) 0.89576(19)
H61A H 0.5715 1.0636 0.8492
H62A H 0.5724 1.0722 0.9136
C53A C 0.61166(12) 1.1531(3) 0.9166(2)
H63A H 0.6251 1.1459 0.8973
H64A H 0.5992 1.2203 0.9038
H65A H 0.6271 1.1515 0.9626
C54A C 0.55610(12) 0.4903(4) 0.8864(3)
H66A H 0.5739 0.4855 0.8762
H67A H 0.5676 0.4886 0.9327
C55A C 0.53222(14) 0.3991(4) 0.8580(3)
H68A H 0.5222 0.3981 0.8124
H69A H 0.5448 0.3332 0.8766
H70A H 0.5139 0.4060 0.8663

#END
