./ACOKEK_from_xyz.cif_generated_by_CrystalShift
_symmetry_cell_setting triclinic
_symmetry_space_group_name_H-M 'P 1'
loop_
_symmetry_equiv_pos_site_id
_symmetry_equiv_pos_as_xyz
1 x,y,z
_cell_length_a 46.342000
_cell_length_b 12.654000
_cell_length_c 25.206000
_cell_angle_alpha 90.000000
_cell_angle_beta 122.625000
_cell_angle_gamma 90.000000
_cell_volume 12448.891078
loop_
_atom_site_label
_atom_site_type_symbol
_atom_site_fract_x
_atom_site_fract_y
_atom_site_fract_z
O1 O 0.015630 0.551100 0.144190
O2 O 0.041180 0.923200 0.061360
O3 O 0.080170 0.545700 0.034830
O4 O 0.161220 0.904400 0.102590
O5 O 0.206980 0.523800 0.207660
O6 O 0.229690 0.897800 0.338370
O7 O 0.220160 0.523900 0.424130
O8 O 0.166600 0.894390 0.453750
O9 O 0.105840 0.532300 0.417360
O10 O 0.037940 0.915500 0.362770
C11 C 0.003290 0.736900 0.187170
H12 H 0.010800 0.802200 0.212800
H13 H 0.012700 0.675700 0.216200
C14 C 0.016880 0.736300 0.144270
C15 C 0.023500 0.830900 0.124400
H16 H 0.021000 0.895900 0.140400
C17 C 0.033610 0.832000 0.081820
C18 C 0.036810 0.738300 0.056990
C19 C 0.031010 0.643700 0.077940
H20 H 0.033600 0.578700 0.062000
C21 C 0.021650 0.642100 0.121300
C22 C 0.022600 0.452400 0.126200
H23 H 0.046800 0.449700 0.138300
H24 H 0.007600 0.442800 0.080100
C25 C 0.015880 0.367100 0.159800
H26 H 0.031200 0.376400 0.205400
H27 H 0.020000 0.297800 0.147700
H28 H -0.008000 0.371400 0.148100
C29 C 0.036490 1.022600 0.083600
H30 H 0.050000 1.024200 0.130200
H31 H 0.012000 1.033100 0.068400
C32 C 0.048440 1.107600 0.058200
H33 H 0.072700 1.096500 0.073800
H34 H 0.045500 1.176800 0.072200
H35 H 0.034900 1.104900 0.012100
C36 C 0.046510 0.738100 0.007920
H37 H 0.035300 0.677300 -0.020800
H38 H 0.037900 0.803600 -0.017400
C39 C 0.084770 0.731000 0.037840
C40 C 0.104470 0.822600 0.053700
H41 H 0.093600 0.889800 0.043400
C42 C 0.140350 0.816200 0.084870
C43 C 0.156870 0.718900 0.100650
C44 C 0.136780 0.627900 0.083540
H45 H 0.147500 0.560600 0.093100
C46 C 0.101140 0.634100 0.052520
C47 C 0.095640 0.444700 0.049100
H48 H 0.111500 0.437100 0.095300
H49 H 0.109000 0.436100 0.029300
C50 C 0.068240 0.362400 0.024800
H51 H 0.055700 0.369700 0.045900
H52 H 0.078700 0.292100 0.033300
H53 H 0.052400 0.371600 -0.020700
C54 C 0.146550 1.005900 0.092700
H55 H 0.134100 1.012100 0.114600
H56 H 0.130100 1.018100 0.047200
C57 C 0.174630 1.085300 0.118100
H58 H 0.192200 1.067400 0.161800
H59 H 0.165400 1.155600 0.116700
H60 H 0.184800 1.085000 0.092600
C61 C 0.195380 0.711100 0.139120
H62 H 0.205300 0.772300 0.129800
H63 H 0.202600 0.645900 0.127700
C64 C 0.208820 0.709500 0.209460
C65 C 0.213600 0.804900 0.240800
H66 H 0.209300 0.869700 0.218600
C67 C 0.224760 0.806200 0.304690
C68 C 0.231830 0.712500 0.337940
C69 C 0.226580 0.617700 0.306280
H70 H 0.231500 0.553000 0.328700
C71 C 0.214100 0.616000 0.241790
C72 C 0.209000 0.426500 0.237300
H73 H 0.194900 0.429800 0.255800
H74 H 0.233000 0.412500 0.271500
C75 C 0.196470 0.340800 0.190000
H76 H 0.171900 0.349900 0.159300
H77 H 0.200500 0.272400 0.211100
H78 H 0.208700 0.343300 0.168200
C79 C 0.221900 0.996300 0.305700
H80 H 0.197700 0.997500 0.270100
H81 H 0.236700 1.007000 0.289000
C82 C 0.228260 1.081400 0.352400
H83 H 0.210900 1.077000 0.363300
H84 H 0.226900 1.150700 0.333800
H85 H 0.251100 1.072100 0.390500
C86 C 0.245390 0.712600 0.407500
H87 H 0.259400 0.776900 0.426800
H88 H 0.260600 0.650600 0.427300
C89 C 0.217620 0.709400 0.421940
C90 C 0.204180 0.803200 0.428160
H91 H 0.211600 0.868500 0.420800
C92 C 0.179980 0.803500 0.445020
C93 C 0.169100 0.708400 0.456250
C94 C 0.181920 0.615000 0.449060
H95 H 0.174300 0.549800 0.456100
C96 C 0.205910 0.614500 0.431520
C97 C 0.209600 0.425200 0.434700
H98 H 0.184500 0.417200 0.406500
H99 H 0.215900 0.420100 0.478900
C100 C 0.227670 0.340700 0.421200
H101 H 0.220300 0.344100 0.376700
H102 H 0.222000 0.271100 0.430200
H103 H 0.252500 0.351800 0.447800
C104 C 0.179160 0.993100 0.446100
H105 H 0.173800 0.999700 0.402600
H106 H 0.204300 0.997100 0.475500
C107 C 0.162110 1.080700 0.459900
H108 H 0.137300 1.077300 0.429800
H109 H 0.170700 1.149000 0.456000
H110 H 0.167200 1.072600 0.502800
C111 C 0.145870 0.706800 0.481930
H112 H 0.152600 0.765700 0.512200
H113 H 0.150000 0.640100 0.505600
C114 C 0.107320 0.715700 0.432670
C115 C 0.091080 0.812500 0.419710
H116 H 0.104300 0.874300 0.439000
C117 C 0.055460 0.821500 0.378600
C118 C 0.036140 0.731100 0.352120
C119 C 0.052500 0.634100 0.364090
H120 H 0.039300 0.572100 0.345100
C121 C 0.088010 0.626100 0.403480
C122 C 0.086740 0.435900 0.395760
H123 H 0.071500 0.436400 0.349200
H124 H 0.072400 0.427800 0.413600
C125 C 0.111660 0.346900 0.416600
H126 H 0.125100 0.354100 0.397300
H127 H 0.099200 0.279700 0.403800
H128 H 0.127100 0.348500 0.462600
C129 C 0.056100 1.009700 0.386400
H130 H 0.073900 1.014500 0.376200
H131 H 0.067600 1.011400 0.432700
C132 C 0.032220 1.100900 0.358000
H133 H 0.022200 1.101900 0.312400
H134 H 0.044800 1.166800 0.376600
H135 H 0.013900 1.094000 0.366300
O136 O -0.015630 0.551100 0.355810
O137 O -0.041180 0.923200 0.438640
O138 O -0.080170 0.545700 0.465170
O139 O -0.161220 0.904400 0.397410
O140 O -0.206980 0.523800 0.292340
O141 O -0.229690 0.897800 0.161630
O142 O -0.220160 0.523900 0.075870
O143 O -0.166600 0.894390 0.046250
O144 O -0.105840 0.532300 0.082640
O145 O -0.037940 0.915500 0.137230
C146 C -0.003290 0.736900 0.312830
H147 H -0.010800 0.802200 0.287200
H148 H -0.012700 0.675700 0.283800
C149 C -0.016880 0.736300 0.355730
C150 C -0.023500 0.830900 0.375600
H151 H -0.021000 0.895900 0.359600
C152 C -0.033610 0.832000 0.418180
C153 C -0.036810 0.738300 0.443010
C154 C -0.031010 0.643700 0.422060
H155 H -0.033600 0.578700 0.438000
C156 C -0.021650 0.642100 0.378700
C157 C -0.022600 0.452400 0.373800
H158 H -0.046800 0.449700 0.361700
H159 H -0.007600 0.442800 0.419900
C160 C -0.015880 0.367100 0.340200
H161 H -0.031200 0.376400 0.294600
H162 H -0.020000 0.297800 0.352300
H163 H 0.008000 0.371400 0.351900
C164 C -0.036490 1.022600 0.416400
H165 H -0.050000 1.024200 0.369800
H166 H -0.012000 1.033100 0.431600
C167 C -0.048440 1.107600 0.441800
H168 H -0.072700 1.096500 0.426200
H169 H -0.045500 1.176800 0.427800
H170 H -0.034900 1.104900 0.487900
C171 C -0.046510 0.738100 0.492080
H172 H -0.035300 0.677300 0.520800
H173 H -0.037900 0.803600 0.517400
C174 C -0.084770 0.731000 0.462160
C175 C -0.104470 0.822600 0.446300
H176 H -0.093600 0.889800 0.456600
C177 C -0.140350 0.816200 0.415130
C178 C -0.156870 0.718900 0.399350
C179 C -0.136780 0.627900 0.416460
H180 H -0.147500 0.560600 0.406900
C181 C -0.101140 0.634100 0.447480
C182 C -0.095640 0.444700 0.450900
H183 H -0.111500 0.437100 0.404700
H184 H -0.109000 0.436100 0.470700
C185 C -0.068240 0.362400 0.475200
H186 H -0.055700 0.369700 0.454100
H187 H -0.078700 0.292100 0.466700
H188 H -0.052400 0.371600 0.520700
C189 C -0.146550 1.005900 0.407300
H190 H -0.134100 1.012100 0.385400
H191 H -0.130100 1.018100 0.452800
C192 C -0.174630 1.085300 0.381900
H193 H -0.192200 1.067400 0.338200
H194 H -0.165400 1.155600 0.383300
H195 H -0.184800 1.085000 0.407400
C196 C -0.195380 0.711100 0.360880
H197 H -0.205300 0.772300 0.370200
H198 H -0.202600 0.645900 0.372300
C199 C -0.208820 0.709500 0.290540
C200 C -0.213600 0.804900 0.259200
H201 H -0.209300 0.869700 0.281400
C202 C -0.224760 0.806200 0.195310
C203 C -0.231830 0.712500 0.162060
C204 C -0.226580 0.617700 0.193720
H205 H -0.231500 0.553000 0.171300
C206 C -0.214100 0.616000 0.258210
C207 C -0.209000 0.426500 0.262700
H208 H -0.194900 0.429800 0.244200
H209 H -0.233000 0.412500 0.228500
C210 C -0.196470 0.340800 0.310000
H211 H -0.171900 0.349900 0.340700
H212 H -0.200500 0.272400 0.288900
H213 H -0.208700 0.343300 0.331800
C214 C -0.221900 0.996300 0.194300
H215 H -0.197700 0.997500 0.229900
H216 H -0.236700 1.007000 0.211000
C217 C -0.228260 1.081400 0.147600
H218 H -0.210900 1.077000 0.136700
H219 H -0.226900 1.150700 0.166200
H220 H -0.251100 1.072100 0.109500
C221 C -0.245390 0.712600 0.092500
H222 H -0.259400 0.776900 0.073200
H223 H -0.260600 0.650600 0.072700
C224 C -0.217620 0.709400 0.078060
C225 C -0.204180 0.803200 0.071840
H226 H -0.211600 0.868500 0.079200
C227 C -0.179980 0.803500 0.054980
C228 C -0.169100 0.708400 0.043750
C229 C -0.181920 0.615000 0.050940
H230 H -0.174300 0.549800 0.043900
C231 C -0.205910 0.614500 0.068480
C232 C -0.209600 0.425200 0.065300
H233 H -0.184500 0.417200 0.093500
H234 H -0.215900 0.420100 0.021100
C235 C -0.227670 0.340700 0.078800
H236 H -0.220300 0.344100 0.123300
H237 H -0.222000 0.271100 0.069800
H238 H -0.252500 0.351800 0.052200
C239 C -0.179160 0.993100 0.053900
H240 H -0.173800 0.999700 0.097400
H241 H -0.204300 0.997100 0.024500
C242 C -0.162110 1.080700 0.040100
H243 H -0.137300 1.077300 0.070200
H244 H -0.170700 1.149000 0.044000
H245 H -0.167200 1.072600 -0.002800
C246 C -0.145870 0.706800 0.018070
H247 H -0.152600 0.765700 -0.012200
H248 H -0.150000 0.640100 -0.005600
C249 C -0.107320 0.715700 0.067330
C250 C -0.091080 0.812500 0.080290
H251 H -0.104300 0.874300 0.061000
C252 C -0.055460 0.821500 0.121400
C253 C -0.036140 0.731100 0.147880
C254 C -0.052500 0.634100 0.135910
H255 H -0.039300 0.572100 0.154900
C256 C -0.088010 0.626100 0.096520
C257 C -0.086740 0.435900 0.104240
H258 H -0.071500 0.436400 0.150800
H259 H -0.072400 0.427800 0.086400
C260 C -0.111660 0.346900 0.083400
H261 H -0.125100 0.354100 0.102700
H262 H -0.099200 0.279700 0.096200
H263 H -0.127100 0.348500 0.037400
C264 C -0.056100 1.009700 0.113600
H265 H -0.073900 1.014500 0.123800
H266 H -0.067600 1.011400 0.067300
C267 C -0.032220 1.100900 0.142000
H268 H -0.022200 1.101900 0.187600
H269 H -0.044800 1.166800 0.123400
H270 H -0.013900 1.094000 0.133700
O271 O 1.015630 0.551100 0.144190
O272 O 1.041180 0.923200 0.061360
O273 O 1.080170 0.545700 0.034830
O274 O 1.161220 0.904400 0.102590
O275 O 1.206980 0.523800 0.207660
O276 O 1.229690 0.897800 0.338370
O277 O 1.220160 0.523900 0.424130
O278 O 1.166600 0.894390 0.453750
O279 O 1.105840 0.532300 0.417360
O280 O 1.037940 0.915500 0.362770
C281 C 1.003290 0.736900 0.187170
H282 H 1.010800 0.802200 0.212800
H283 H 1.012700 0.675700 0.216200
C284 C 1.016880 0.736300 0.144270
C285 C 1.023500 0.830900 0.124400
H286 H 1.021000 0.895900 0.140400
C287 C 1.033610 0.832000 0.081820
C288 C 1.036810 0.738300 0.056990
C289 C 1.031010 0.643700 0.077940
H290 H 1.033600 0.578700 0.062000
C291 C 1.021650 0.642100 0.121300
C292 C 1.022600 0.452400 0.126200
H293 H 1.046800 0.449700 0.138300
H294 H 1.007600 0.442800 0.080100
C295 C 1.015880 0.367100 0.159800
H296 H 1.031200 0.376400 0.205400
H297 H 1.020000 0.297800 0.147700
H298 H 0.992000 0.371400 0.148100
C299 C 1.036490 1.022600 0.083600
H300 H 1.050000 1.024200 0.130200
H301 H 1.012000 1.033100 0.068400
C302 C 1.048440 1.107600 0.058200
H303 H 1.072700 1.096500 0.073800
H304 H 1.045500 1.176800 0.072200
H305 H 1.034900 1.104900 0.012100
C306 C 1.046510 0.738100 0.007920
H307 H 1.035300 0.677300 -0.020800
H308 H 1.037900 0.803600 -0.017400
C309 C 1.084770 0.731000 0.037840
C310 C 1.104470 0.822600 0.053700
H311 H 1.093600 0.889800 0.043400
C312 C 1.140350 0.816200 0.084870
C313 C 1.156870 0.718900 0.100650
C314 C 1.136780 0.627900 0.083540
H315 H 1.147500 0.560600 0.093100
C316 C 1.101140 0.634100 0.052520
C317 C 1.095640 0.444700 0.049100
H318 H 1.111500 0.437100 0.095300
H319 H 1.109000 0.436100 0.029300
C320 C 1.068240 0.362400 0.024800
H321 H 1.055700 0.369700 0.045900
H322 H 1.078700 0.292100 0.033300
H323 H 1.052400 0.371600 -0.020700
C324 C 1.146550 1.005900 0.092700
H325 H 1.134100 1.012100 0.114600
H326 H 1.130100 1.018100 0.047200
C327 C 1.174630 1.085300 0.118100
H328 H 1.192200 1.067400 0.161800
H329 H 1.165400 1.155600 0.116700
H330 H 1.184800 1.085000 0.092600
C331 C 1.195380 0.711100 0.139120
H332 H 1.205300 0.772300 0.129800
H333 H 1.202600 0.645900 0.127700
C334 C 1.208820 0.709500 0.209460
C335 C 1.213600 0.804900 0.240800
H336 H 1.209300 0.869700 0.218600
C337 C 1.224760 0.806200 0.304690
C338 C 1.231830 0.712500 0.337940
C339 C 1.226580 0.617700 0.306280
H340 H 1.231500 0.553000 0.328700
C341 C 1.214100 0.616000 0.241790
C342 C 1.209000 0.426500 0.237300
H343 H 1.194900 0.429800 0.255800
H344 H 1.233000 0.412500 0.271500
C345 C 1.196470 0.340800 0.190000
H346 H 1.171900 0.349900 0.159300
H347 H 1.200500 0.272400 0.211100
H348 H 1.208700 0.343300 0.168200
C349 C 1.221900 0.996300 0.305700
H350 H 1.197700 0.997500 0.270100
H351 H 1.236700 1.007000 0.289000
C352 C 1.228260 1.081400 0.352400
H353 H 1.210900 1.077000 0.363300
H354 H 1.226900 1.150700 0.333800
H355 H 1.251100 1.072100 0.390500
C356 C 1.245390 0.712600 0.407500
H357 H 1.259400 0.776900 0.426800
H358 H 1.260600 0.650600 0.427300
C359 C 1.217620 0.709400 0.421940
C360 C 1.204180 0.803200 0.428160
H361 H 1.211600 0.868500 0.420800
C362 C 1.179980 0.803500 0.445020
C363 C 1.169100 0.708400 0.456250
C364 C 1.181920 0.615000 0.449060
H365 H 1.174300 0.549800 0.456100
C366 C 1.205910 0.614500 0.431520
C367 C 1.209600 0.425200 0.434700
H368 H 1.184500 0.417200 0.406500
H369 H 1.215900 0.420100 0.478900
C370 C 1.227670 0.340700 0.421200
H371 H 1.220300 0.344100 0.376700
H372 H 1.222000 0.271100 0.430200
H373 H 1.252500 0.351800 0.447800
C374 C 1.179160 0.993100 0.446100
H375 H 1.173800 0.999700 0.402600
H376 H 1.204300 0.997100 0.475500
C377 C 1.162110 1.080700 0.459900
H378 H 1.137300 1.077300 0.429800
H379 H 1.170700 1.149000 0.456000
H380 H 1.167200 1.072600 0.502800
C381 C 1.145870 0.706800 0.481930
H382 H 1.152600 0.765700 0.512200
H383 H 1.150000 0.640100 0.505600
C384 C 1.107320 0.715700 0.432670
C385 C 1.091080 0.812500 0.419710
H386 H 1.104300 0.874300 0.439000
C387 C 1.055460 0.821500 0.378600
C388 C 1.036140 0.731100 0.352120
C389 C 1.052500 0.634100 0.364090
H390 H 1.039300 0.572100 0.345100
C391 C 1.088010 0.626100 0.403480
C392 C 1.086740 0.435900 0.395760
H393 H 1.071500 0.436400 0.349200
H394 H 1.072400 0.427800 0.413600
C395 C 1.111660 0.346900 0.416600
H396 H 1.125100 0.354100 0.397300
H397 H 1.099200 0.279700 0.403800
H398 H 1.127100 0.348500 0.462600
C399 C 1.056100 1.009700 0.386400
H400 H 1.073900 1.014500 0.376200
H401 H 1.067600 1.011400 0.432700
C402 C 1.032220 1.100900 0.358000
H403 H 1.022200 1.101900 0.312400
H404 H 1.044800 1.166800 0.376600
H405 H 1.013900 1.094000 0.366300
O406 O 0.984370 0.551100 0.355810
O407 O 0.958820 0.923200 0.438640
O408 O 0.919830 0.545700 0.465170
O409 O 0.838780 0.904400 0.397410
O410 O 0.793020 0.523800 0.292340
O411 O 0.770310 0.897800 0.161630
O412 O 0.779840 0.523900 0.075870
O413 O 0.833400 0.894390 0.046250
O414 O 0.894160 0.532300 0.082640
O415 O 0.962060 0.915500 0.137230
C416 C 0.996710 0.736900 0.312830
H417 H 0.989200 0.802200 0.287200
H418 H 0.987300 0.675700 0.283800
C419 C 0.983120 0.736300 0.355730
C420 C 0.976500 0.830900 0.375600
H421 H 0.979000 0.895900 0.359600
C422 C 0.966390 0.832000 0.418180
C423 C 0.963190 0.738300 0.443010
C424 C 0.968990 0.643700 0.422060
H425 H 0.966400 0.578700 0.438000
C426 C 0.978350 0.642100 0.378700
C427 C 0.977400 0.452400 0.373800
H428 H 0.953200 0.449700 0.361700
H429 H 0.992400 0.442800 0.419900
C430 C 0.984120 0.367100 0.340200
H431 H 0.968800 0.376400 0.294600
H432 H 0.980000 0.297800 0.352300
H433 H 1.008000 0.371400 0.351900
C434 C 0.963510 1.022600 0.416400
H435 H 0.950000 1.024200 0.369800
H436 H 0.988000 1.033100 0.431600
C437 C 0.951560 1.107600 0.441800
H438 H 0.927300 1.096500 0.426200
H439 H 0.954500 1.176800 0.427800
H440 H 0.965100 1.104900 0.487900
C441 C 0.953490 0.738100 0.492080
H442 H 0.964700 0.677300 0.520800
H443 H 0.962100 0.803600 0.517400
C444 C 0.915230 0.731000 0.462160
C445 C 0.895530 0.822600 0.446300
H446 H 0.906400 0.889800 0.456600
C447 C 0.859650 0.816200 0.415130
C448 C 0.843130 0.718900 0.399350
C449 C 0.863220 0.627900 0.416460
H450 H 0.852500 0.560600 0.406900
C451 C 0.898860 0.634100 0.447480
C452 C 0.904360 0.444700 0.450900
H453 H 0.888500 0.437100 0.404700
H454 H 0.891000 0.436100 0.470700
C455 C 0.931760 0.362400 0.475200
H456 H 0.944300 0.369700 0.454100
H457 H 0.921300 0.292100 0.466700
H458 H 0.947600 0.371600 0.520700
C459 C 0.853450 1.005900 0.407300
H460 H 0.865900 1.012100 0.385400
H461 H 0.869900 1.018100 0.452800
C462 C 0.825370 1.085300 0.381900
H463 H 0.807800 1.067400 0.338200
H464 H 0.834600 1.155600 0.383300
H465 H 0.815200 1.085000 0.407400
C466 C 0.804620 0.711100 0.360880
H467 H 0.794700 0.772300 0.370200
H468 H 0.797400 0.645900 0.372300
C469 C 0.791180 0.709500 0.290540
C470 C 0.786400 0.804900 0.259200
H471 H 0.790700 0.869700 0.281400
C472 C 0.775240 0.806200 0.195310
C473 C 0.768170 0.712500 0.162060
C474 C 0.773420 0.617700 0.193720
H475 H 0.768500 0.553000 0.171300
C476 C 0.785900 0.616000 0.258210
C477 C 0.791000 0.426500 0.262700
H478 H 0.805100 0.429800 0.244200
H479 H 0.767000 0.412500 0.228500
C480 C 0.803530 0.340800 0.310000
H481 H 0.828100 0.349900 0.340700
H482 H 0.799500 0.272400 0.288900
H483 H 0.791300 0.343300 0.331800
C484 C 0.778100 0.996300 0.194300
H485 H 0.802300 0.997500 0.229900
H486 H 0.763300 1.007000 0.211000
C487 C 0.771740 1.081400 0.147600
H488 H 0.789100 1.077000 0.136700
H489 H 0.773100 1.150700 0.166200
H490 H 0.748900 1.072100 0.109500
C491 C 0.754610 0.712600 0.092500
H492 H 0.740600 0.776900 0.073200
H493 H 0.739400 0.650600 0.072700
C494 C 0.782380 0.709400 0.078060
C495 C 0.795820 0.803200 0.071840
H496 H 0.788400 0.868500 0.079200
C497 C 0.820020 0.803500 0.054980
C498 C 0.830900 0.708400 0.043750
C499 C 0.818080 0.615000 0.050940
H500 H 0.825700 0.549800 0.043900
C501 C 0.794090 0.614500 0.068480
C502 C 0.790400 0.425200 0.065300
H503 H 0.815500 0.417200 0.093500
H504 H 0.784100 0.420100 0.021100
C505 C 0.772330 0.340700 0.078800
H506 H 0.779700 0.344100 0.123300
H507 H 0.778000 0.271100 0.069800
H508 H 0.747500 0.351800 0.052200
C509 C 0.820840 0.993100 0.053900
H510 H 0.826200 0.999700 0.097400
H511 H 0.795700 0.997100 0.024500
C512 C 0.837890 1.080700 0.040100
H513 H 0.862700 1.077300 0.070200
H514 H 0.829300 1.149000 0.044000
H515 H 0.832800 1.072600 -0.002800
C516 C 0.854130 0.706800 0.018070
H517 H 0.847400 0.765700 -0.012200
H518 H 0.850000 0.640100 -0.005600
C519 C 0.892680 0.715700 0.067330
C520 C 0.908920 0.812500 0.080290
H521 H 0.895700 0.874300 0.061000
C522 C 0.944540 0.821500 0.121400
C523 C 0.963860 0.731100 0.147880
C524 C 0.947500 0.634100 0.135910
H525 H 0.960700 0.572100 0.154900
C526 C 0.911990 0.626100 0.096520
C527 C 0.913260 0.435900 0.104240
H528 H 0.928500 0.436400 0.150800
H529 H 0.927600 0.427800 0.086400
C530 C 0.888340 0.346900 0.083400
H531 H 0.874900 0.354100 0.102700
H532 H 0.900800 0.279700 0.096200
H533 H 0.872900 0.348500 0.037400
C534 C 0.943900 1.009700 0.113600
H535 H 0.926100 1.014500 0.123800
H536 H 0.932400 1.011400 0.067300
C537 C 0.967780 1.100900 0.142000
H538 H 0.977800 1.101900 0.187600
H539 H 0.955200 1.166800 0.123400
H540 H 0.986100 1.094000 0.133700
O541 O 0.515630 0.051100 0.144190
O542 O 0.541180 0.423200 0.061360
O543 O 0.580170 0.045700 0.034830
O544 O 0.661220 0.404400 0.102590
O545 O 0.706980 0.023800 0.207660
O546 O 0.729690 0.397800 0.338370
O547 O 0.720160 0.023900 0.424130
O548 O 0.666600 0.394390 0.453750
O549 O 0.605840 0.032300 0.417360
O550 O 0.537940 0.415500 0.362770
C551 C 0.503290 0.236900 0.187170
H552 H 0.510800 0.302200 0.212800
H553 H 0.512700 0.175700 0.216200
C554 C 0.516880 0.236300 0.144270
C555 C 0.523500 0.330900 0.124400
H556 H 0.521000 0.395900 0.140400
C557 C 0.533610 0.332000 0.081820
C558 C 0.536810 0.238300 0.056990
C559 C 0.531010 0.143700 0.077940
H560 H 0.533600 0.078700 0.062000
C561 C 0.521650 0.142100 0.121300
C562 C 0.522600 -0.047600 0.126200
H563 H 0.546800 -0.050300 0.138300
H564 H 0.507600 -0.057200 0.080100
C565 C 0.515880 -0.132900 0.159800
H566 H 0.531200 -0.123600 0.205400
H567 H 0.520000 -0.202200 0.147700
H568 H 0.492000 -0.128600 0.148100
C569 C 0.536490 0.522600 0.083600
H570 H 0.550000 0.524200 0.130200
H571 H 0.512000 0.533100 0.068400
C572 C 0.548440 0.607600 0.058200
H573 H 0.572700 0.596500 0.073800
H574 H 0.545500 0.676800 0.072200
H575 H 0.534900 0.604900 0.012100
C576 C 0.546510 0.238100 0.007920
H577 H 0.535300 0.177300 -0.020800
H578 H 0.537900 0.303600 -0.017400
C579 C 0.584770 0.231000 0.037840
C580 C 0.604470 0.322600 0.053700
H581 H 0.593600 0.389800 0.043400
C582 C 0.640350 0.316200 0.084870
C583 C 0.656870 0.218900 0.100650
C584 C 0.636780 0.127900 0.083540
H585 H 0.647500 0.060600 0.093100
C586 C 0.601140 0.134100 0.052520
C587 C 0.595640 -0.055300 0.049100
H588 H 0.611500 -0.062900 0.095300
H589 H 0.609000 -0.063900 0.029300
C590 C 0.568240 -0.137600 0.024800
H591 H 0.555700 -0.130300 0.045900
H592 H 0.578700 -0.207900 0.033300
H593 H 0.552400 -0.128400 -0.020700
C594 C 0.646550 0.505900 0.092700
H595 H 0.634100 0.512100 0.114600
H596 H 0.630100 0.518100 0.047200
C597 C 0.674630 0.585300 0.118100
H598 H 0.692200 0.567400 0.161800
H599 H 0.665400 0.655600 0.116700
H600 H 0.684800 0.585000 0.092600
C601 C 0.695380 0.211100 0.139120
H602 H 0.705300 0.272300 0.129800
H603 H 0.702600 0.145900 0.127700
C604 C 0.708820 0.209500 0.209460
C605 C 0.713600 0.304900 0.240800
H606 H 0.709300 0.369700 0.218600
C607 C 0.724760 0.306200 0.304690
C608 C 0.731830 0.212500 0.337940
C609 C 0.726580 0.117700 0.306280
H610 H 0.731500 0.053000 0.328700
C611 C 0.714100 0.116000 0.241790
C612 C 0.709000 -0.073500 0.237300
H613 H 0.694900 -0.070200 0.255800
H614 H 0.733000 -0.087500 0.271500
C615 C 0.696470 -0.159200 0.190000
H616 H 0.671900 -0.150100 0.159300
H617 H 0.700500 -0.227600 0.211100
H618 H 0.708700 -0.156700 0.168200
C619 C 0.721900 0.496300 0.305700
H620 H 0.697700 0.497500 0.270100
H621 H 0.736700 0.507000 0.289000
C622 C 0.728260 0.581400 0.352400
H623 H 0.710900 0.577000 0.363300
H624 H 0.726900 0.650700 0.333800
H625 H 0.751100 0.572100 0.390500
C626 C 0.745390 0.212600 0.407500
H627 H 0.759400 0.276900 0.426800
H628 H 0.760600 0.150600 0.427300
C629 C 0.717620 0.209400 0.421940
C630 C 0.704180 0.303200 0.428160
H631 H 0.711600 0.368500 0.420800
C632 C 0.679980 0.303500 0.445020
C633 C 0.669100 0.208400 0.456250
C634 C 0.681920 0.115000 0.449060
H635 H 0.674300 0.049800 0.456100
C636 C 0.705910 0.114500 0.431520
C637 C 0.709600 -0.074800 0.434700
H638 H 0.684500 -0.082800 0.406500
H639 H 0.715900 -0.079900 0.478900
C640 C 0.727670 -0.159300 0.421200
H641 H 0.720300 -0.155900 0.376700
H642 H 0.722000 -0.228900 0.430200
H643 H 0.752500 -0.148200 0.447800
C644 C 0.679160 0.493100 0.446100
H645 H 0.673800 0.499700 0.402600
H646 H 0.704300 0.497100 0.475500
C647 C 0.662110 0.580700 0.459900
H648 H 0.637300 0.577300 0.429800
H649 H 0.670700 0.649000 0.456000
H650 H 0.667200 0.572600 0.502800
C651 C 0.645870 0.206800 0.481930
H652 H 0.652600 0.265700 0.512200
H653 H 0.650000 0.140100 0.505600
C654 C 0.607320 0.215700 0.432670
C655 C 0.591080 0.312500 0.419710
H656 H 0.604300 0.374300 0.439000
C657 C 0.555460 0.321500 0.378600
C658 C 0.536140 0.231100 0.352120
C659 C 0.552500 0.134100 0.364090
H660 H 0.539300 0.072100 0.345100
C661 C 0.588010 0.126100 0.403480
C662 C 0.586740 -0.064100 0.395760
H663 H 0.571500 -0.063600 0.349200
H664 H 0.572400 -0.072200 0.413600
C665 C 0.611660 -0.153100 0.416600
H666 H 0.625100 -0.145900 0.397300
H667 H 0.599200 -0.220300 0.403800
H668 H 0.627100 -0.151500 0.462600
C669 C 0.556100 0.509700 0.386400
H670 H 0.573900 0.514500 0.376200
H671 H 0.567600 0.511400 0.432700
C672 C 0.532220 0.600900 0.358000
H673 H 0.522200 0.601900 0.312400
H674 H 0.544800 0.666800 0.376600
H675 H 0.513900 0.594000 0.366300
O676 O 0.484370 0.051100 0.355810
O677 O 0.458820 0.423200 0.438640
O678 O 0.419830 0.045700 0.465170
O679 O 0.338780 0.404400 0.397410
O680 O 0.293020 0.023800 0.292340
O681 O 0.270310 0.397800 0.161630
O682 O 0.279840 0.023900 0.075870
O683 O 0.333400 0.394390 0.046250
O684 O 0.394160 0.032300 0.082640
O685 O 0.462060 0.415500 0.137230
C686 C 0.496710 0.236900 0.312830
H687 H 0.489200 0.302200 0.287200
H688 H 0.487300 0.175700 0.283800
C689 C 0.483120 0.236300 0.355730
C690 C 0.476500 0.330900 0.375600
H691 H 0.479000 0.395900 0.359600
C692 C 0.466390 0.332000 0.418180
C693 C 0.463190 0.238300 0.443010
C694 C 0.468990 0.143700 0.422060
H695 H 0.466400 0.078700 0.438000
C696 C 0.478350 0.142100 0.378700
C697 C 0.477400 -0.047600 0.373800
H698 H 0.453200 -0.050300 0.361700
H699 H 0.492400 -0.057200 0.419900
C700 C 0.484120 -0.132900 0.340200
H701 H 0.468800 -0.123600 0.294600
H702 H 0.480000 -0.202200 0.352300
H703 H 0.508000 -0.128600 0.351900
C704 C 0.463510 0.522600 0.416400
H705 H 0.450000 0.524200 0.369800
H706 H 0.488000 0.533100 0.431600
C707 C 0.451560 0.607600 0.441800
H708 H 0.427300 0.596500 0.426200
H709 H 0.454500 0.676800 0.427800
H710 H 0.465100 0.604900 0.487900
C711 C 0.453490 0.238100 0.492080
H712 H 0.464700 0.177300 0.520800
H713 H 0.462100 0.303600 0.517400
C714 C 0.415230 0.231000 0.462160
C715 C 0.395530 0.322600 0.446300
H716 H 0.406400 0.389800 0.456600
C717 C 0.359650 0.316200 0.415130
C718 C 0.343130 0.218900 0.399350
C719 C 0.363220 0.127900 0.416460
H720 H 0.352500 0.060600 0.406900
C721 C 0.398860 0.134100 0.447480
C722 C 0.404360 -0.055300 0.450900
H723 H 0.388500 -0.062900 0.404700
H724 H 0.391000 -0.063900 0.470700
C725 C 0.431760 -0.137600 0.475200
H726 H 0.444300 -0.130300 0.454100
H727 H 0.421300 -0.207900 0.466700
H728 H 0.447600 -0.128400 0.520700
C729 C 0.353450 0.505900 0.407300
H730 H 0.365900 0.512100 0.385400
H731 H 0.369900 0.518100 0.452800
C732 C 0.325370 0.585300 0.381900
H733 H 0.307800 0.567400 0.338200
H734 H 0.334600 0.655600 0.383300
H735 H 0.315200 0.585000 0.407400
C736 C 0.304620 0.211100 0.360880
H737 H 0.294700 0.272300 0.370200
H738 H 0.297400 0.145900 0.372300
C739 C 0.291180 0.209500 0.290540
C740 C 0.286400 0.304900 0.259200
H741 H 0.290700 0.369700 0.281400
C742 C 0.275240 0.306200 0.195310
C743 C 0.268170 0.212500 0.162060
C744 C 0.273420 0.117700 0.193720
H745 H 0.268500 0.053000 0.171300
C746 C 0.285900 0.116000 0.258210
C747 C 0.291000 -0.073500 0.262700
H748 H 0.305100 -0.070200 0.244200
H749 H 0.267000 -0.087500 0.228500
C750 C 0.303530 -0.159200 0.310000
H751 H 0.328100 -0.150100 0.340700
H752 H 0.299500 -0.227600 0.288900
H753 H 0.291300 -0.156700 0.331800
C754 C 0.278100 0.496300 0.194300
H755 H 0.302300 0.497500 0.229900
H756 H 0.263300 0.507000 0.211000
C757 C 0.271740 0.581400 0.147600
H758 H 0.289100 0.577000 0.136700
H759 H 0.273100 0.650700 0.166200
H760 H 0.248900 0.572100 0.109500
C761 C 0.254610 0.212600 0.092500
H762 H 0.240600 0.276900 0.073200
H763 H 0.239400 0.150600 0.072700
C764 C 0.282380 0.209400 0.078060
C765 C 0.295820 0.303200 0.071840
H766 H 0.288400 0.368500 0.079200
C767 C 0.320020 0.303500 0.054980
C768 C 0.330900 0.208400 0.043750
C769 C 0.318080 0.115000 0.050940
H770 H 0.325700 0.049800 0.043900
C771 C 0.294090 0.114500 0.068480
C772 C 0.290400 -0.074800 0.065300
H773 H 0.315500 -0.082800 0.093500
H774 H 0.284100 -0.079900 0.021100
C775 C 0.272330 -0.159300 0.078800
H776 H 0.279700 -0.155900 0.123300
H777 H 0.278000 -0.228900 0.069800
H778 H 0.247500 -0.148200 0.052200
C779 C 0.320840 0.493100 0.053900
H780 H 0.326200 0.499700 0.097400
H781 H 0.295700 0.497100 0.024500
C782 C 0.337890 0.580700 0.040100
H783 H 0.362700 0.577300 0.070200
H784 H 0.329300 0.649000 0.044000
H785 H 0.332800 0.572600 -0.002800
C786 C 0.354130 0.206800 0.018070
H787 H 0.347400 0.265700 -0.012200
H788 H 0.350000 0.140100 -0.005600
C789 C 0.392680 0.215700 0.067330
C790 C 0.408920 0.312500 0.080290
H791 H 0.395700 0.374300 0.061000
C792 C 0.444540 0.321500 0.121400
C793 C 0.463860 0.231100 0.147880
C794 C 0.447500 0.134100 0.135910
H795 H 0.460700 0.072100 0.154900
C796 C 0.411990 0.126100 0.096520
C797 C 0.413260 -0.064100 0.104240
H798 H 0.428500 -0.063600 0.150800
H799 H 0.427600 -0.072200 0.086400
C800 C 0.388340 -0.153100 0.083400
H801 H 0.374900 -0.145900 0.102700
H802 H 0.400800 -0.220300 0.096200
H803 H 0.372900 -0.151500 0.037400
C804 C 0.443900 0.509700 0.113600
H805 H 0.426100 0.514500 0.123800
H806 H 0.432400 0.511400 0.067300
C807 C 0.467780 0.600900 0.142000
H808 H 0.477800 0.601900 0.187600
H809 H 0.455200 0.666800 0.123400
H810 H 0.486100 0.594000 0.133700
O811 O -0.015630 0.448900 0.855810
O812 O -0.041180 0.076800 0.938640
O813 O -0.080170 0.454300 0.965170
O814 O -0.161220 0.095600 0.897410
O815 O -0.206980 0.476200 0.792340
O816 O -0.229690 0.102200 0.661630
O817 O -0.220160 0.476100 0.575870
O818 O -0.166600 0.105610 0.546250
O819 O -0.105840 0.467700 0.582640
O820 O -0.037940 0.084500 0.637230
C821 C -0.003290 0.263100 0.812830
H822 H -0.010800 0.197800 0.787200
H823 H -0.012700 0.324300 0.783800
C824 C -0.016880 0.263700 0.855730
C825 C -0.023500 0.169100 0.875600
H826 H -0.021000 0.104100 0.859600
C827 C -0.033610 0.168000 0.918180
C828 C -0.036810 0.261700 0.943010
C829 C -0.031010 0.356300 0.922060
H830 H -0.033600 0.421300 0.938000
C831 C -0.021650 0.357900 0.878700
C832 C -0.022600 0.547600 0.873800
H833 H -0.046800 0.550300 0.861700
H834 H -0.007600 0.557200 0.919900
C835 C -0.015880 0.632900 0.840200
H836 H -0.031200 0.623600 0.794600
H837 H -0.020000 0.702200 0.852300
H838 H 0.008000 0.628600 0.851900
C839 C -0.036490 -0.022600 0.916400
H840 H -0.050000 -0.024200 0.869800
H841 H -0.012000 -0.033100 0.931600
C842 C -0.048440 -0.107600 0.941800
H843 H -0.072700 -0.096500 0.926200
H844 H -0.045500 -0.176800 0.927800
H845 H -0.034900 -0.104900 0.987900
C846 C -0.046510 0.261900 0.992080
H847 H -0.035300 0.322700 1.020800
H848 H -0.037900 0.196400 1.017400
C849 C -0.084770 0.269000 0.962160
C850 C -0.104470 0.177400 0.946300
H851 H -0.093600 0.110200 0.956600
C852 C -0.140350 0.183800 0.915130
C853 C -0.156870 0.281100 0.899350
C854 C -0.136780 0.372100 0.916460
H855 H -0.147500 0.439400 0.906900
C856 C -0.101140 0.365900 0.947480
C857 C -0.095640 0.555300 0.950900
H858 H -0.111500 0.562900 0.904700
H859 H -0.109000 0.563900 0.970700
C860 C -0.068240 0.637600 0.975200
H861 H -0.055700 0.630300 0.954100
H862 H -0.078700 0.707900 0.966700
H863 H -0.052400 0.628400 1.020700
C864 C -0.146550 -0.005900 0.907300
H865 H -0.134100 -0.012100 0.885400
H866 H -0.130100 -0.018100 0.952800
C867 C -0.174630 -0.085300 0.881900
H868 H -0.192200 -0.067400 0.838200
H869 H -0.165400 -0.155600 0.883300
H870 H -0.184800 -0.085000 0.907400
C871 C -0.195380 0.288900 0.860880
H872 H -0.205300 0.227700 0.870200
H873 H -0.202600 0.354100 0.872300
C874 C -0.208820 0.290500 0.790540
C875 C -0.213600 0.195100 0.759200
H876 H -0.209300 0.130300 0.781400
C877 C -0.224760 0.193800 0.695310
C878 C -0.231830 0.287500 0.662060
C879 C -0.226580 0.382300 0.693720
H880 H -0.231500 0.447000 0.671300
C881 C -0.214100 0.384000 0.758210
C882 C -0.209000 0.573500 0.762700
H883 H -0.194900 0.570200 0.744200
H884 H -0.233000 0.587500 0.728500
C885 C -0.196470 0.659200 0.810000
H886 H -0.171900 0.650100 0.840700
H887 H -0.200500 0.727600 0.788900
H888 H -0.208700 0.656700 0.831800
C889 C -0.221900 0.003700 0.694300
H890 H -0.197700 0.002500 0.729900
H891 H -0.236700 -0.007000 0.711000
C892 C -0.228260 -0.081400 0.647600
H893 H -0.210900 -0.077000 0.636700
H894 H -0.226900 -0.150700 0.666200
H895 H -0.251100 -0.072100 0.609500
C896 C -0.245390 0.287400 0.592500
H897 H -0.259400 0.223100 0.573200
H898 H -0.260600 0.349400 0.572700
C899 C -0.217620 0.290600 0.578060
C900 C -0.204180 0.196800 0.571840
H901 H -0.211600 0.131500 0.579200
C902 C -0.179980 0.196500 0.554980
C903 C -0.169100 0.291600 0.543750
C904 C -0.181920 0.385000 0.550940
H905 H -0.174300 0.450200 0.543900
C906 C -0.205910 0.385500 0.568480
C907 C -0.209600 0.574800 0.565300
H908 H -0.184500 0.582800 0.593500
H909 H -0.215900 0.579900 0.521100
C910 C -0.227670 0.659300 0.578800
H911 H -0.220300 0.655900 0.623300
H912 H -0.222000 0.728900 0.569800
H913 H -0.252500 0.648200 0.552200
C914 C -0.179160 0.006900 0.553900
H915 H -0.173800 0.000300 0.597400
H916 H -0.204300 0.002900 0.524500
C917 C -0.162110 -0.080700 0.540100
H918 H -0.137300 -0.077300 0.570200
H919 H -0.170700 -0.149000 0.544000
H920 H -0.167200 -0.072600 0.497200
C921 C -0.145870 0.293200 0.518070
H922 H -0.152600 0.234300 0.487800
H923 H -0.150000 0.359900 0.494400
C924 C -0.107320 0.284300 0.567330
C925 C -0.091080 0.187500 0.580290
H926 H -0.104300 0.125700 0.561000
C927 C -0.055460 0.178500 0.621400
C928 C -0.036140 0.268900 0.647880
C929 C -0.052500 0.365900 0.635910
H930 H -0.039300 0.427900 0.654900
C931 C -0.088010 0.373900 0.596520
C932 C -0.086740 0.564100 0.604240
H933 H -0.071500 0.563600 0.650800
H934 H -0.072400 0.572200 0.586400
C935 C -0.111660 0.653100 0.583400
H936 H -0.125100 0.645900 0.602700
H937 H -0.099200 0.720300 0.596200
H938 H -0.127100 0.651500 0.537400
C939 C -0.056100 -0.009700 0.613600
H940 H -0.073900 -0.014500 0.623800
H941 H -0.067600 -0.011400 0.567300
C942 C -0.032220 -0.100900 0.642000
H943 H -0.022200 -0.101900 0.687600
H944 H -0.044800 -0.166800 0.623400
H945 H -0.013900 -0.094000 0.633700
O946 O 0.015630 0.448900 0.644190
O947 O 0.041180 0.076800 0.561360
O948 O 0.080170 0.454300 0.534830
O949 O 0.161220 0.095600 0.602590
O950 O 0.206980 0.476200 0.707660
O951 O 0.229690 0.102200 0.838370
O952 O 0.220160 0.476100 0.924130
O953 O 0.166600 0.105610 0.953750
O954 O 0.105840 0.467700 0.917360
O955 O 0.037940 0.084500 0.862770
C956 C 0.003290 0.263100 0.687170
H957 H 0.010800 0.197800 0.712800
H958 H 0.012700 0.324300 0.716200
C959 C 0.016880 0.263700 0.644270
C960 C 0.023500 0.169100 0.624400
H961 H 0.021000 0.104100 0.640400
C962 C 0.033610 0.168000 0.581820
C963 C 0.036810 0.261700 0.556990
C964 C 0.031010 0.356300 0.577940
H965 H 0.033600 0.421300 0.562000
C966 C 0.021650 0.357900 0.621300
C967 C 0.022600 0.547600 0.626200
H968 H 0.046800 0.550300 0.638300
H969 H 0.007600 0.557200 0.580100
C970 C 0.015880 0.632900 0.659800
H971 H 0.031200 0.623600 0.705400
H972 H 0.020000 0.702200 0.647700
H973 H -0.008000 0.628600 0.648100
C974 C 0.036490 -0.022600 0.583600
H975 H 0.050000 -0.024200 0.630200
H976 H 0.012000 -0.033100 0.568400
C977 C 0.048440 -0.107600 0.558200
H978 H 0.072700 -0.096500 0.573800
H979 H 0.045500 -0.176800 0.572200
H980 H 0.034900 -0.104900 0.512100
C981 C 0.046510 0.261900 0.507920
H982 H 0.035300 0.322700 0.479200
H983 H 0.037900 0.196400 0.482600
C984 C 0.084770 0.269000 0.537840
C985 C 0.104470 0.177400 0.553700
H986 H 0.093600 0.110200 0.543400
C987 C 0.140350 0.183800 0.584870
C988 C 0.156870 0.281100 0.600650
C989 C 0.136780 0.372100 0.583540
H990 H 0.147500 0.439400 0.593100
C991 C 0.101140 0.365900 0.552520
C992 C 0.095640 0.555300 0.549100
H993 H 0.111500 0.562900 0.595300
H994 H 0.109000 0.563900 0.529300
C995 C 0.068240 0.637600 0.524800
H996 H 0.055700 0.630300 0.545900
H997 H 0.078700 0.707900 0.533300
H998 H 0.052400 0.628400 0.479300
C999 C 0.146550 -0.005900 0.592700
H1000 H 0.134100 -0.012100 0.614600
H1001 H 0.130100 -0.018100 0.547200
C1002 C 0.174630 -0.085300 0.618100
H1003 H 0.192200 -0.067400 0.661800
H1004 H 0.165400 -0.155600 0.616700
H1005 H 0.184800 -0.085000 0.592600
C1006 C 0.195380 0.288900 0.639120
H1007 H 0.205300 0.227700 0.629800
H1008 H 0.202600 0.354100 0.627700
C1009 C 0.208820 0.290500 0.709460
C1010 C 0.213600 0.195100 0.740800
H1011 H 0.209300 0.130300 0.718600
C1012 C 0.224760 0.193800 0.804690
C1013 C 0.231830 0.287500 0.837940
C1014 C 0.226580 0.382300 0.806280
H1015 H 0.231500 0.447000 0.828700
C1016 C 0.214100 0.384000 0.741790
C1017 C 0.209000 0.573500 0.737300
H1018 H 0.194900 0.570200 0.755800
H1019 H 0.233000 0.587500 0.771500
C1020 C 0.196470 0.659200 0.690000
H1021 H 0.171900 0.650100 0.659300
H1022 H 0.200500 0.727600 0.711100
H1023 H 0.208700 0.656700 0.668200
C1024 C 0.221900 0.003700 0.805700
H1025 H 0.197700 0.002500 0.770100
H1026 H 0.236700 -0.007000 0.789000
C1027 C 0.228260 -0.081400 0.852400
H1028 H 0.210900 -0.077000 0.863300
H1029 H 0.226900 -0.150700 0.833800
H1030 H 0.251100 -0.072100 0.890500
C1031 C 0.245390 0.287400 0.907500
H1032 H 0.259400 0.223100 0.926800
H1033 H 0.260600 0.349400 0.927300
C1034 C 0.217620 0.290600 0.921940
C1035 C 0.204180 0.196800 0.928160
H1036 H 0.211600 0.131500 0.920800
C1037 C 0.179980 0.196500 0.945020
C1038 C 0.169100 0.291600 0.956250
C1039 C 0.181920 0.385000 0.949060
H1040 H 0.174300 0.450200 0.956100
C1041 C 0.205910 0.385500 0.931520
C1042 C 0.209600 0.574800 0.934700
H1043 H 0.184500 0.582800 0.906500
H1044 H 0.215900 0.579900 0.978900
C1045 C 0.227670 0.659300 0.921200
H1046 H 0.220300 0.655900 0.876700
H1047 H 0.222000 0.728900 0.930200
H1048 H 0.252500 0.648200 0.947800
C1049 C 0.179160 0.006900 0.946100
H1050 H 0.173800 0.000300 0.902600
H1051 H 0.204300 0.002900 0.975500
C1052 C 0.162110 -0.080700 0.959900
H1053 H 0.137300 -0.077300 0.929800
H1054 H 0.170700 -0.149000 0.956000
H1055 H 0.167200 -0.072600 1.002800
C1056 C 0.145870 0.293200 0.981930
H1057 H 0.152600 0.234300 1.012200
H1058 H 0.150000 0.359900 1.005600
C1059 C 0.107320 0.284300 0.932670
C1060 C 0.091080 0.187500 0.919710
H1061 H 0.104300 0.125700 0.939000
C1062 C 0.055460 0.178500 0.878600
C1063 C 0.036140 0.268900 0.852120
C1064 C 0.052500 0.365900 0.864090
H1065 H 0.039300 0.427900 0.845100
C1066 C 0.088010 0.373900 0.903480
C1067 C 0.086740 0.564100 0.895760
H1068 H 0.071500 0.563600 0.849200
H1069 H 0.072400 0.572200 0.913600
C1070 C 0.111660 0.653100 0.916600
H1071 H 0.125100 0.645900 0.897300
H1072 H 0.099200 0.720300 0.903800
H1073 H 0.127100 0.651500 0.962600
C1074 C 0.056100 -0.009700 0.886400
H1075 H 0.073900 -0.014500 0.876200
H1076 H 0.067600 -0.011400 0.932700
C1077 C 0.032220 -0.100900 0.858000
H1078 H 0.022200 -0.101900 0.812400
H1079 H 0.044800 -0.166800 0.876600
H1080 H 0.013900 -0.094000 0.866300
O1081 O 0.984370 0.448900 0.855810
O1082 O 0.958820 0.076800 0.938640
O1083 O 0.919830 0.454300 0.965170
O1084 O 0.838780 0.095600 0.897410
O1085 O 0.793020 0.476200 0.792340
O1086 O 0.770310 0.102200 0.661630
O1087 O 0.779840 0.476100 0.575870
O1088 O 0.833400 0.105610 0.546250
O1089 O 0.894160 0.467700 0.582640
O1090 O 0.962060 0.084500 0.637230
C1091 C 0.996710 0.263100 0.812830
H1092 H 0.989200 0.197800 0.787200
H1093 H 0.987300 0.324300 0.783800
C1094 C 0.983120 0.263700 0.855730
C1095 C 0.976500 0.169100 0.875600
H1096 H 0.979000 0.104100 0.859600
C1097 C 0.966390 0.168000 0.918180
C1098 C 0.963190 0.261700 0.943010
C1099 C 0.968990 0.356300 0.922060
H1100 H 0.966400 0.421300 0.938000
C1101 C 0.978350 0.357900 0.878700
C1102 C 0.977400 0.547600 0.873800
H1103 H 0.953200 0.550300 0.861700
H1104 H 0.992400 0.557200 0.919900
C1105 C 0.984120 0.632900 0.840200
H1106 H 0.968800 0.623600 0.794600
H1107 H 0.980000 0.702200 0.852300
H1108 H 1.008000 0.628600 0.851900
C1109 C 0.963510 -0.022600 0.916400
H1110 H 0.950000 -0.024200 0.869800
H1111 H 0.988000 -0.033100 0.931600
C1112 C 0.951560 -0.107600 0.941800
H1113 H 0.927300 -0.096500 0.926200
H1114 H 0.954500 -0.176800 0.927800
H1115 H 0.965100 -0.104900 0.987900
C1116 C 0.953490 0.261900 0.992080
H1117 H 0.964700 0.322700 1.020800
H1118 H 0.962100 0.196400 1.017400
C1119 C 0.915230 0.269000 0.962160
C1120 C 0.895530 0.177400 0.946300
H1121 H 0.906400 0.110200 0.956600
C1122 C 0.859650 0.183800 0.915130
C1123 C 0.843130 0.281100 0.899350
C1124 C 0.863220 0.372100 0.916460
H1125 H 0.852500 0.439400 0.906900
C1126 C 0.898860 0.365900 0.947480
C1127 C 0.904360 0.555300 0.950900
H1128 H 0.888500 0.562900 0.904700
H1129 H 0.891000 0.563900 0.970700
C1130 C 0.931760 0.637600 0.975200
H1131 H 0.944300 0.630300 0.954100
H1132 H 0.921300 0.707900 0.966700
H1133 H 0.947600 0.628400 1.020700
C1134 C 0.853450 -0.005900 0.907300
H1135 H 0.865900 -0.012100 0.885400
H1136 H 0.869900 -0.018100 0.952800
C1137 C 0.825370 -0.085300 0.881900
H1138 H 0.807800 -0.067400 0.838200
H1139 H 0.834600 -0.155600 0.883300
H1140 H 0.815200 -0.085000 0.907400
C1141 C 0.804620 0.288900 0.860880
H1142 H 0.794700 0.227700 0.870200
H1143 H 0.797400 0.354100 0.872300
C1144 C 0.791180 0.290500 0.790540
C1145 C 0.786400 0.195100 0.759200
H1146 H 0.790700 0.130300 0.781400
C1147 C 0.775240 0.193800 0.695310
C1148 C 0.768170 0.287500 0.662060
C1149 C 0.773420 0.382300 0.693720
H1150 H 0.768500 0.447000 0.671300
C1151 C 0.785900 0.384000 0.758210
C1152 C 0.791000 0.573500 0.762700
H1153 H 0.805100 0.570200 0.744200
H1154 H 0.767000 0.587500 0.728500
C1155 C 0.803530 0.659200 0.810000
H1156 H 0.828100 0.650100 0.840700
H1157 H 0.799500 0.727600 0.788900
H1158 H 0.791300 0.656700 0.831800
C1159 C 0.778100 0.003700 0.694300
H1160 H 0.802300 0.002500 0.729900
H1161 H 0.763300 -0.007000 0.711000
C1162 C 0.771740 -0.081400 0.647600
H1163 H 0.789100 -0.077000 0.636700
H1164 H 0.773100 -0.150700 0.666200
H1165 H 0.748900 -0.072100 0.609500
C1166 C 0.754610 0.287400 0.592500
H1167 H 0.740600 0.223100 0.573200
H1168 H 0.739400 0.349400 0.572700
C1169 C 0.782380 0.290600 0.578060
C1170 C 0.795820 0.196800 0.571840
H1171 H 0.788400 0.131500 0.579200
C1172 C 0.820020 0.196500 0.554980
C1173 C 0.830900 0.291600 0.543750
C1174 C 0.818080 0.385000 0.550940
H1175 H 0.825700 0.450200 0.543900
C1176 C 0.794090 0.385500 0.568480
C1177 C 0.790400 0.574800 0.565300
H1178 H 0.815500 0.582800 0.593500
H1179 H 0.784100 0.579900 0.521100
C1180 C 0.772330 0.659300 0.578800
H1181 H 0.779700 0.655900 0.623300
H1182 H 0.778000 0.728900 0.569800
H1183 H 0.747500 0.648200 0.552200
C1184 C 0.820840 0.006900 0.553900
H1185 H 0.826200 0.000300 0.597400
H1186 H 0.795700 0.002900 0.524500
C1187 C 0.837890 -0.080700 0.540100
H1188 H 0.862700 -0.077300 0.570200
H1189 H 0.829300 -0.149000 0.544000
H1190 H 0.832800 -0.072600 0.497200
C1191 C 0.854130 0.293200 0.518070
H1192 H 0.847400 0.234300 0.487800
H1193 H 0.850000 0.359900 0.494400
C1194 C 0.892680 0.284300 0.567330
C1195 C 0.908920 0.187500 0.580290
H1196 H 0.895700 0.125700 0.561000
C1197 C 0.944540 0.178500 0.621400
C1198 C 0.963860 0.268900 0.647880
C1199 C 0.947500 0.365900 0.635910
H1200 H 0.960700 0.427900 0.654900
C1201 C 0.911990 0.373900 0.596520
C1202 C 0.913260 0.564100 0.604240
H1203 H 0.928500 0.563600 0.650800
H1204 H 0.927600 0.572200 0.586400
C1205 C 0.888340 0.653100 0.583400
H1206 H 0.874900 0.645900 0.602700
H1207 H 0.900800 0.720300 0.596200
H1208 H 0.872900 0.651500 0.537400
C1209 C 0.943900 -0.009700 0.613600
H1210 H 0.926100 -0.014500 0.623800
H1211 H 0.932400 -0.011400 0.567300
C1212 C 0.967780 -0.100900 0.642000
H1213 H 0.977800 -0.101900 0.687600
H1214 H 0.955200 -0.166800 0.623400
H1215 H 0.986100 -0.094000 0.633700
O1216 O 1.015630 0.448900 0.644190
O1217 O 1.041180 0.076800 0.561360
O1218 O 1.080170 0.454300 0.534830
O1219 O 1.161220 0.095600 0.602590
O1220 O 1.206980 0.476200 0.707660
O1221 O 1.229690 0.102200 0.838370
O1222 O 1.220160 0.476100 0.924130
O1223 O 1.166600 0.105610 0.953750
O1224 O 1.105840 0.467700 0.917360
O1225 O 1.037940 0.084500 0.862770
C1226 C 1.003290 0.263100 0.687170
H1227 H 1.010800 0.197800 0.712800
H1228 H 1.012700 0.324300 0.716200
C1229 C 1.016880 0.263700 0.644270
C1230 C 1.023500 0.169100 0.624400
H1231 H 1.021000 0.104100 0.640400
C1232 C 1.033610 0.168000 0.581820
C1233 C 1.036810 0.261700 0.556990
C1234 C 1.031010 0.356300 0.577940
H1235 H 1.033600 0.421300 0.562000
C1236 C 1.021650 0.357900 0.621300
C1237 C 1.022600 0.547600 0.626200
H1238 H 1.046800 0.550300 0.638300
H1239 H 1.007600 0.557200 0.580100
C1240 C 1.015880 0.632900 0.659800
H1241 H 1.031200 0.623600 0.705400
H1242 H 1.020000 0.702200 0.647700
H1243 H 0.992000 0.628600 0.648100
C1244 C 1.036490 -0.022600 0.583600
H1245 H 1.050000 -0.024200 0.630200
H1246 H 1.012000 -0.033100 0.568400
C1247 C 1.048440 -0.107600 0.558200
H1248 H 1.072700 -0.096500 0.573800
H1249 H 1.045500 -0.176800 0.572200
H1250 H 1.034900 -0.104900 0.512100
C1251 C 1.046510 0.261900 0.507920
H1252 H 1.035300 0.322700 0.479200
H1253 H 1.037900 0.196400 0.482600
C1254 C 1.084770 0.269000 0.537840
C1255 C 1.104470 0.177400 0.553700
H1256 H 1.093600 0.110200 0.543400
C1257 C 1.140350 0.183800 0.584870
C1258 C 1.156870 0.281100 0.600650
C1259 C 1.136780 0.372100 0.583540
H1260 H 1.147500 0.439400 0.593100
C1261 C 1.101140 0.365900 0.552520
C1262 C 1.095640 0.555300 0.549100
H1263 H 1.111500 0.562900 0.595300
H1264 H 1.109000 0.563900 0.529300
C1265 C 1.068240 0.637600 0.524800
H1266 H 1.055700 0.630300 0.545900
H1267 H 1.078700 0.707900 0.533300
H1268 H 1.052400 0.628400 0.479300
C1269 C 1.146550 -0.005900 0.592700
H1270 H 1.134100 -0.012100 0.614600
H1271 H 1.130100 -0.018100 0.547200
C1272 C 1.174630 -0.085300 0.618100
H1273 H 1.192200 -0.067400 0.661800
H1274 H 1.165400 -0.155600 0.616700
H1275 H 1.184800 -0.085000 0.592600
C1276 C 1.195380 0.288900 0.639120
H1277 H 1.205300 0.227700 0.629800
H1278 H 1.202600 0.354100 0.627700
C1279 C 1.208820 0.290500 0.709460
C1280 C 1.213600 0.195100 0.740800
H1281 H 1.209300 0.130300 0.718600
C1282 C 1.224760 0.193800 0.804690
C1283 C 1.231830 0.287500 0.837940
C1284 C 1.226580 0.382300 0.806280
H1285 H 1.231500 0.447000 0.828700
C1286 C 1.214100 0.384000 0.741790
C1287 C 1.209000 0.573500 0.737300
H1288 H 1.194900 0.570200 0.755800
H1289 H 1.233000 0.587500 0.771500
C1290 C 1.196470 0.659200 0.690000
H1291 H 1.171900 0.650100 0.659300
H1292 H 1.200500 0.727600 0.711100
H1293 H 1.208700 0.656700 0.668200
C1294 C 1.221900 0.003700 0.805700
H1295 H 1.197700 0.002500 0.770100
H1296 H 1.236700 -0.007000 0.789000
C1297 C 1.228260 -0.081400 0.852400
H1298 H 1.210900 -0.077000 0.863300
H1299 H 1.226900 -0.150700 0.833800
H1300 H 1.251100 -0.072100 0.890500
C1301 C 1.245390 0.287400 0.907500
H1302 H 1.259400 0.223100 0.926800
H1303 H 1.260600 0.349400 0.927300
C1304 C 1.217620 0.290600 0.921940
C1305 C 1.204180 0.196800 0.928160
H1306 H 1.211600 0.131500 0.920800
C1307 C 1.179980 0.196500 0.945020
C1308 C 1.169100 0.291600 0.956250
C1309 C 1.181920 0.385000 0.949060
H1310 H 1.174300 0.450200 0.956100
C1311 C 1.205910 0.385500 0.931520
C1312 C 1.209600 0.574800 0.934700
H1313 H 1.184500 0.582800 0.906500
H1314 H 1.215900 0.579900 0.978900
C1315 C 1.227670 0.659300 0.921200
H1316 H 1.220300 0.655900 0.876700
H1317 H 1.222000 0.728900 0.930200
H1318 H 1.252500 0.648200 0.947800
C1319 C 1.179160 0.006900 0.946100
H1320 H 1.173800 0.000300 0.902600
H1321 H 1.204300 0.002900 0.975500
C1322 C 1.162110 -0.080700 0.959900
H1323 H 1.137300 -0.077300 0.929800
H1324 H 1.170700 -0.149000 0.956000
H1325 H 1.167200 -0.072600 1.002800
C1326 C 1.145870 0.293200 0.981930
H1327 H 1.152600 0.234300 1.012200
H1328 H 1.150000 0.359900 1.005600
C1329 C 1.107320 0.284300 0.932670
C1330 C 1.091080 0.187500 0.919710
H1331 H 1.104300 0.125700 0.939000
C1332 C 1.055460 0.178500 0.878600
C1333 C 1.036140 0.268900 0.852120
C1334 C 1.052500 0.365900 0.864090
H1335 H 1.039300 0.427900 0.845100
C1336 C 1.088010 0.373900 0.903480
C1337 C 1.086740 0.564100 0.895760
H1338 H 1.071500 0.563600 0.849200
H1339 H 1.072400 0.572200 0.913600
C1340 C 1.111660 0.653100 0.916600
H1341 H 1.125100 0.645900 0.897300
H1342 H 1.099200 0.720300 0.903800
H1343 H 1.127100 0.651500 0.962600
C1344 C 1.056100 -0.009700 0.886400
H1345 H 1.073900 -0.014500 0.876200
H1346 H 1.067600 -0.011400 0.932700
C1347 C 1.032220 -0.100900 0.858000
H1348 H 1.022200 -0.101900 0.812400
H1349 H 1.044800 -0.166800 0.876600
H1350 H 1.013900 -0.094000 0.866300
O1351 O 0.484370 0.948900 0.855810
O1352 O 0.458820 0.576800 0.938640
O1353 O 0.419830 0.954300 0.965170
O1354 O 0.338780 0.595600 0.897410
O1355 O 0.293020 0.976200 0.792340
O1356 O 0.270310 0.602200 0.661630
O1357 O 0.279840 0.976100 0.575870
O1358 O 0.333400 0.605610 0.546250
O1359 O 0.394160 0.967700 0.582640
O1360 O 0.462060 0.584500 0.637230
C1361 C 0.496710 0.763100 0.812830
H1362 H 0.489200 0.697800 0.787200
H1363 H 0.487300 0.824300 0.783800
C1364 C 0.483120 0.763700 0.855730
C1365 C 0.476500 0.669100 0.875600
H1366 H 0.479000 0.604100 0.859600
C1367 C 0.466390 0.668000 0.918180
C1368 C 0.463190 0.761700 0.943010
C1369 C 0.468990 0.856300 0.922060
H1370 H 0.466400 0.921300 0.938000
C1371 C 0.478350 0.857900 0.878700
C1372 C 0.477400 1.047600 0.873800
H1373 H 0.453200 1.050300 0.861700
H1374 H 0.492400 1.057200 0.919900
C1375 C 0.484120 1.132900 0.840200
H1376 H 0.468800 1.123600 0.794600
H1377 H 0.480000 1.202200 0.852300
H1378 H 0.508000 1.128600 0.851900
C1379 C 0.463510 0.477400 0.916400
H1380 H 0.450000 0.475800 0.869800
H1381 H 0.488000 0.466900 0.931600
C1382 C 0.451560 0.392400 0.941800
H1383 H 0.427300 0.403500 0.926200
H1384 H 0.454500 0.323200 0.927800
H1385 H 0.465100 0.395100 0.987900
C1386 C 0.453490 0.761900 0.992080
H1387 H 0.464700 0.822700 1.020800
H1388 H 0.462100 0.696400 1.017400
C1389 C 0.415230 0.769000 0.962160
C1390 C 0.395530 0.677400 0.946300
H1391 H 0.406400 0.610200 0.956600
C1392 C 0.359650 0.683800 0.915130
C1393 C 0.343130 0.781100 0.899350
C1394 C 0.363220 0.872100 0.916460
H1395 H 0.352500 0.939400 0.906900
C1396 C 0.398860 0.865900 0.947480
C1397 C 0.404360 1.055300 0.950900
H1398 H 0.388500 1.062900 0.904700
H1399 H 0.391000 1.063900 0.970700
C1400 C 0.431760 1.137600 0.975200
H1401 H 0.444300 1.130300 0.954100
H1402 H 0.421300 1.207900 0.966700
H1403 H 0.447600 1.128400 1.020700
C1404 C 0.353450 0.494100 0.907300
H1405 H 0.365900 0.487900 0.885400
H1406 H 0.369900 0.481900 0.952800
C1407 C 0.325370 0.414700 0.881900
H1408 H 0.307800 0.432600 0.838200
H1409 H 0.334600 0.344400 0.883300
H1410 H 0.315200 0.415000 0.907400
C1411 C 0.304620 0.788900 0.860880
H1412 H 0.294700 0.727700 0.870200
H1413 H 0.297400 0.854100 0.872300
C1414 C 0.291180 0.790500 0.790540
C1415 C 0.286400 0.695100 0.759200
H1416 H 0.290700 0.630300 0.781400
C1417 C 0.275240 0.693800 0.695310
C1418 C 0.268170 0.787500 0.662060
C1419 C 0.273420 0.882300 0.693720
H1420 H 0.268500 0.947000 0.671300
C1421 C 0.285900 0.884000 0.758210
C1422 C 0.291000 1.073500 0.762700
H1423 H 0.305100 1.070200 0.744200
H1424 H 0.267000 1.087500 0.728500
C1425 C 0.303530 1.159200 0.810000
H1426 H 0.328100 1.150100 0.840700
H1427 H 0.299500 1.227600 0.788900
H1428 H 0.291300 1.156700 0.831800
C1429 C 0.278100 0.503700 0.694300
H1430 H 0.302300 0.502500 0.729900
H1431 H 0.263300 0.493000 0.711000
C1432 C 0.271740 0.418600 0.647600
H1433 H 0.289100 0.423000 0.636700
H1434 H 0.273100 0.349300 0.666200
H1435 H 0.248900 0.427900 0.609500
C1436 C 0.254610 0.787400 0.592500
H1437 H 0.240600 0.723100 0.573200
H1438 H 0.239400 0.849400 0.572700
C1439 C 0.282380 0.790600 0.578060
C1440 C 0.295820 0.696800 0.571840
H1441 H 0.288400 0.631500 0.579200
C1442 C 0.320020 0.696500 0.554980
C1443 C 0.330900 0.791600 0.543750
C1444 C 0.318080 0.885000 0.550940
H1445 H 0.325700 0.950200 0.543900
C1446 C 0.294090 0.885500 0.568480
C1447 C 0.290400 1.074800 0.565300
H1448 H 0.315500 1.082800 0.593500
H1449 H 0.284100 1.079900 0.521100
C1450 C 0.272330 1.159300 0.578800
H1451 H 0.279700 1.155900 0.623300
H1452 H 0.278000 1.228900 0.569800
H1453 H 0.247500 1.148200 0.552200
C1454 C 0.320840 0.506900 0.553900
H1455 H 0.326200 0.500300 0.597400
H1456 H 0.295700 0.502900 0.524500
C1457 C 0.337890 0.419300 0.540100
H1458 H 0.362700 0.422700 0.570200
H1459 H 0.329300 0.351000 0.544000
H1460 H 0.332800 0.427400 0.497200
C1461 C 0.354130 0.793200 0.518070
H1462 H 0.347400 0.734300 0.487800
H1463 H 0.350000 0.859900 0.494400
C1464 C 0.392680 0.784300 0.567330
C1465 C 0.408920 0.687500 0.580290
H1466 H 0.395700 0.625700 0.561000
C1467 C 0.444540 0.678500 0.621400
C1468 C 0.463860 0.768900 0.647880
C1469 C 0.447500 0.865900 0.635910
H1470 H 0.460700 0.927900 0.654900
C1471 C 0.411990 0.873900 0.596520
C1472 C 0.413260 1.064100 0.604240
H1473 H 0.428500 1.063600 0.650800
H1474 H 0.427600 1.072200 0.586400
C1475 C 0.388340 1.153100 0.583400
H1476 H 0.374900 1.145900 0.602700
H1477 H 0.400800 1.220300 0.596200
H1478 H 0.372900 1.151500 0.537400
C1479 C 0.443900 0.490300 0.613600
H1480 H 0.426100 0.485500 0.623800
H1481 H 0.432400 0.488600 0.567300
C1482 C 0.467780 0.399100 0.642000
H1483 H 0.477800 0.398100 0.687600
H1484 H 0.455200 0.333200 0.623400
H1485 H 0.486100 0.406000 0.633700
O1486 O 0.515630 0.948900 0.644190
O1487 O 0.541180 0.576800 0.561360
O1488 O 0.580170 0.954300 0.534830
O1489 O 0.661220 0.595600 0.602590
O1490 O 0.706980 0.976200 0.707660
O1491 O 0.729690 0.602200 0.838370
O1492 O 0.720160 0.976100 0.924130
O1493 O 0.666600 0.605610 0.953750
O1494 O 0.605840 0.967700 0.917360
O1495 O 0.537940 0.584500 0.862770
C1496 C 0.503290 0.763100 0.687170
H1497 H 0.510800 0.697800 0.712800
H1498 H 0.512700 0.824300 0.716200
C1499 C 0.516880 0.763700 0.644270
C1500 C 0.523500 0.669100 0.624400
H1501 H 0.521000 0.604100 0.640400
C1502 C 0.533610 0.668000 0.581820
C1503 C 0.536810 0.761700 0.556990
C1504 C 0.531010 0.856300 0.577940
H1505 H 0.533600 0.921300 0.562000
C1506 C 0.521650 0.857900 0.621300
C1507 C 0.522600 1.047600 0.626200
H1508 H 0.546800 1.050300 0.638300
H1509 H 0.507600 1.057200 0.580100
C1510 C 0.515880 1.132900 0.659800
H1511 H 0.531200 1.123600 0.705400
H1512 H 0.520000 1.202200 0.647700
H1513 H 0.492000 1.128600 0.648100
C1514 C 0.536490 0.477400 0.583600
H1515 H 0.550000 0.475800 0.630200
H1516 H 0.512000 0.466900 0.568400
C1517 C 0.548440 0.392400 0.558200
H1518 H 0.572700 0.403500 0.573800
H1519 H 0.545500 0.323200 0.572200
H1520 H 0.534900 0.395100 0.512100
C1521 C 0.546510 0.761900 0.507920
H1522 H 0.535300 0.822700 0.479200
H1523 H 0.537900 0.696400 0.482600
C1524 C 0.584770 0.769000 0.537840
C1525 C 0.604470 0.677400 0.553700
H1526 H 0.593600 0.610200 0.543400
C1527 C 0.640350 0.683800 0.584870
C1528 C 0.656870 0.781100 0.600650
C1529 C 0.636780 0.872100 0.583540
H1530 H 0.647500 0.939400 0.593100
C1531 C 0.601140 0.865900 0.552520
C1532 C 0.595640 1.055300 0.549100
H1533 H 0.611500 1.062900 0.595300
H1534 H 0.609000 1.063900 0.529300
C1535 C 0.568240 1.137600 0.524800
H1536 H 0.555700 1.130300 0.545900
H1537 H 0.578700 1.207900 0.533300
H1538 H 0.552400 1.128400 0.479300
C1539 C 0.646550 0.494100 0.592700
H1540 H 0.634100 0.487900 0.614600
H1541 H 0.630100 0.481900 0.547200
C1542 C 0.674630 0.414700 0.618100
H1543 H 0.692200 0.432600 0.661800
H1544 H 0.665400 0.344400 0.616700
H1545 H 0.684800 0.415000 0.592600
C1546 C 0.695380 0.788900 0.639120
H1547 H 0.705300 0.727700 0.629800
H1548 H 0.702600 0.854100 0.627700
C1549 C 0.708820 0.790500 0.709460
C1550 C 0.713600 0.695100 0.740800
H1551 H 0.709300 0.630300 0.718600
C1552 C 0.724760 0.693800 0.804690
C1553 C 0.731830 0.787500 0.837940
C1554 C 0.726580 0.882300 0.806280
H1555 H 0.731500 0.947000 0.828700
C1556 C 0.714100 0.884000 0.741790
C1557 C 0.709000 1.073500 0.737300
H1558 H 0.694900 1.070200 0.755800
H1559 H 0.733000 1.087500 0.771500
C1560 C 0.696470 1.159200 0.690000
H1561 H 0.671900 1.150100 0.659300
H1562 H 0.700500 1.227600 0.711100
H1563 H 0.708700 1.156700 0.668200
C1564 C 0.721900 0.503700 0.805700
H1565 H 0.697700 0.502500 0.770100
H1566 H 0.736700 0.493000 0.789000
C1567 C 0.728260 0.418600 0.852400
H1568 H 0.710900 0.423000 0.863300
H1569 H 0.726900 0.349300 0.833800
H1570 H 0.751100 0.427900 0.890500
C1571 C 0.745390 0.787400 0.907500
H1572 H 0.759400 0.723100 0.926800
H1573 H 0.760600 0.849400 0.927300
C1574 C 0.717620 0.790600 0.921940
C1575 C 0.704180 0.696800 0.928160
H1576 H 0.711600 0.631500 0.920800
C1577 C 0.679980 0.696500 0.945020
C1578 C 0.669100 0.791600 0.956250
C1579 C 0.681920 0.885000 0.949060
H1580 H 0.674300 0.950200 0.956100
C1581 C 0.705910 0.885500 0.931520
C1582 C 0.709600 1.074800 0.934700
H1583 H 0.684500 1.082800 0.906500
H1584 H 0.715900 1.079900 0.978900
C1585 C 0.727670 1.159300 0.921200
H1586 H 0.720300 1.155900 0.876700
H1587 H 0.722000 1.228900 0.930200
H1588 H 0.752500 1.148200 0.947800
C1589 C 0.679160 0.506900 0.946100
H1590 H 0.673800 0.500300 0.902600
H1591 H 0.704300 0.502900 0.975500
C1592 C 0.662110 0.419300 0.959900
H1593 H 0.637300 0.422700 0.929800
H1594 H 0.670700 0.351000 0.956000
H1595 H 0.667200 0.427400 1.002800
C1596 C 0.645870 0.793200 0.981930
H1597 H 0.652600 0.734300 1.012200
H1598 H 0.650000 0.859900 1.005600
C1599 C 0.607320 0.784300 0.932670
C1600 C 0.591080 0.687500 0.919710
H1601 H 0.604300 0.625700 0.939000
C1602 C 0.555460 0.678500 0.878600
C1603 C 0.536140 0.768900 0.852120
C1604 C 0.552500 0.865900 0.864090
H1605 H 0.539300 0.927900 0.845100
C1606 C 0.588010 0.873900 0.903480
C1607 C 0.586740 1.064100 0.895760
H1608 H 0.571500 1.063600 0.849200
H1609 H 0.572400 1.072200 0.913600
C1610 C 0.611660 1.153100 0.916600
H1611 H 0.625100 1.145900 0.897300
H1612 H 0.599200 1.220300 0.903800
H1613 H 0.627100 1.151500 0.962600
C1614 C 0.556100 0.490300 0.886400
H1615 H 0.573900 0.485500 0.876200
H1616 H 0.567600 0.488600 0.932700
C1617 C 0.532220 0.399100 0.858000
H1618 H 0.522200 0.398100 0.812400
H1619 H 0.544800 0.333200 0.876600
H1620 H 0.513900 0.406000 0.866300

#END
