./ACOMEK_from_xyz.cif_generated_by_CrystalShift
_symmetry_cell_setting triclinic
_symmetry_space_group_name_H-M 'P 1'
loop_
_symmetry_equiv_pos_site_id
_symmetry_equiv_pos_as_xyz
1 x,y,z
_cell_length_a 16.107000
_cell_length_b 15.244600
_cell_length_c 16.255700
_cell_angle_alpha 90.000000
_cell_angle_beta 118.082000
_cell_angle_gamma 90.000000
_cell_volume 3521.601650
loop_
_atom_site_label
_atom_site_type_symbol
_atom_site_fract_x
_atom_site_fract_y
_atom_site_fract_z
Fe1 Fe 0.500000 0.500000 0.500000
Mg2 Mg 0.368130 0.570150 0.221180
Mg3 Mg 0.746810 0.424660 0.493010
Na4 Na 0.566070 0.496510 0.337140
Na5 Na 0.210590 0.540020 0.290260
N6 N 0.225210 0.563250 0.144950
N7 N 0.481580 0.607830 0.208510
N8 N 0.706790 0.384180 0.362900
N9 N 0.869470 0.430810 0.615300
C10 C 0.181780 0.646550 0.099430
H11 H 0.178500 0.647800 0.036400
C12 C 0.244620 0.721240 0.157080
H13 H 0.255600 0.716200 0.221500
H14 H 0.213900 0.777400 0.130900
H15 H 0.304900 0.718400 0.156000
C16 C 0.082500 0.660420 0.087260
H17 H 0.041600 0.612500 0.049800
H18 H 0.057600 0.716400 0.055600
H19 H 0.084800 0.661200 0.148600
C20 C 0.171640 0.486330 0.091790
H21 H 0.107600 0.489900 0.087200
C22 C 0.217530 0.403120 0.144250
H23 H 0.279400 0.396300 0.147300
H24 H 0.177900 0.352700 0.111800
H25 H 0.225000 0.406500 0.207600
C26 C 0.158580 0.480790 -0.007790
H27 H 0.125900 0.533400 -0.042600
H28 H 0.121200 0.428700 -0.038800
H29 H 0.220300 0.476700 -0.005700
C30 C 0.482510 0.585030 0.121600
H31 H 0.548700 0.589500 0.132000
C32 C 0.420100 0.645100 0.039560
H33 H 0.354800 0.641500 0.028400
H34 H 0.423400 0.626400 -0.016500
H35 H 0.442200 0.705800 0.054600
C36 C 0.450440 0.491420 0.097270
H37 H 0.493900 0.452500 0.146900
H38 H 0.449500 0.475800 0.038400
H39 H 0.387100 0.485000 0.090800
C40 C 0.531160 0.690860 0.249490
H41 H 0.513500 0.735000 0.198400
C42 C 0.505150 0.726770 0.320770
H43 H 0.439200 0.745700 0.289500
H44 H 0.545600 0.776900 0.352700
H45 H 0.513600 0.681000 0.366400
C46 C 0.639920 0.679470 0.299530
H47 H 0.658900 0.642100 0.354500
H48 H 0.670000 0.737000 0.318900
H49 H 0.659300 0.652100 0.256700
C50 C 0.653600 0.302430 0.327680
H51 H 0.606300 0.312000 0.261000
C52 C 0.600370 0.280800 0.381070
H53 H 0.645200 0.267900 0.446200
H54 H 0.561200 0.331000 0.378600
H55 H 0.560200 0.229500 0.352900
C56 C 0.712090 0.222060 0.332100
H57 H 0.740100 0.230700 0.290700
H58 H 0.762100 0.213800 0.396200
H59 H 0.671600 0.170000 0.312300
C60 C 0.766470 0.406010 0.319960
H61 H 0.811800 0.356700 0.332500
C62 C 0.711450 0.419330 0.214440
H63 H 0.676900 0.365600 0.185000
H64 H 0.666900 0.467900 0.200600
H65 H 0.755300 0.433100 0.190200
C66 C 0.822540 0.488080 0.365640
H67 H 0.779400 0.535800 0.360000
H68 H 0.864800 0.476400 0.431700
H69 H 0.859600 0.505100 0.334700
C70 C 0.925200 0.349400 0.639580
H71 H 0.976900 0.355300 0.705100
C72 C 0.863820 0.272790 0.636570
H73 H 0.835200 0.285200 0.676900
H74 H 0.814200 0.263900 0.572400
H75 H 0.902400 0.219600 0.658500
C76 C 0.970240 0.328870 0.577110
H77 H 0.920800 0.321300 0.512600
H78 H 1.011500 0.377400 0.580200
H79 H 1.007200 0.274800 0.598600
C80 C 0.928390 0.509380 0.633730
H81 H 0.965400 0.503100 0.599000
C82 C 0.998070 0.523400 0.736970
H83 H 0.963400 0.530500 0.772400
H84 H 1.039900 0.472500 0.760600
H85 H 1.035500 0.576200 0.743800
C86 C 0.866980 0.590580 0.597010
H87 H 0.823500 0.583100 0.530500
H88 H 0.831000 0.599000 0.631000
H89 H 0.906800 0.642000 0.605900
C90 C 0.402170 0.429860 0.387550
C91 C 0.376550 0.431230 0.460690
C92 C 0.406360 0.517100 0.356700
C93 C 0.383060 0.570610 0.417440
C94 C 0.362020 0.519930 0.481130
H95 H 0.384100 0.637500 0.419000
H96 H 0.413400 0.376100 0.360900
H97 H 0.373300 0.374300 0.496500
N98 N 0.130530 0.569190 0.384700
Mg99 Mg 0.253190 0.575340 0.506990
Na100 Na 0.433930 0.503490 0.662860
C101 C 0.597830 0.570140 0.612450
C102 C 0.623450 0.568770 0.539310
C103 C 0.593640 0.482900 0.643300
Mg104 Mg 0.631870 0.429850 0.778820
N105 N 0.518420 0.392170 0.791490
N106 N 0.774790 0.436750 0.855050
Na107 Na 0.789410 0.459980 0.709740
C108 C 0.637980 0.480070 0.518870
C109 C 0.616940 0.429390 0.582560
N110 N 0.293210 0.615820 0.637100
C111 C 0.346400 0.697570 0.672320
H112 H 0.393700 0.688000 0.739000
C113 C 0.399630 0.719200 0.618930
H114 H 0.354800 0.732100 0.553800
H115 H 0.438800 0.669000 0.621400
H116 H 0.439800 0.770500 0.647100
C117 C 0.287910 0.777940 0.667900
H118 H 0.259900 0.769300 0.709300
H119 H 0.237900 0.786200 0.603800
H120 H 0.328400 0.830000 0.687700
C121 C 0.233530 0.593990 0.680040
H122 H 0.188200 0.643300 0.667500
C123 C 0.288550 0.580670 0.785560
H124 H 0.323100 0.634400 0.815000
H125 H 0.333100 0.532100 0.799400
H126 H 0.244700 0.566900 0.809800
C127 C 0.177460 0.511920 0.634360
H128 H 0.220600 0.464200 0.640000
H129 H 0.135200 0.523600 0.568300
H130 H 0.140400 0.494900 0.665300
H131 H 0.586600 0.623900 0.639100
H132 H 0.626700 0.625700 0.503500
H133 H 0.615900 0.362500 0.581000
C134 C 0.818220 0.353450 0.900570
H135 H 0.821500 0.352200 0.963600
C136 C 0.755380 0.278760 0.842920
H137 H 0.744400 0.283800 0.778500
H138 H 0.786100 0.222600 0.869100
H139 H 0.695100 0.281600 0.844000
C140 C 0.917500 0.339580 0.912740
H141 H 0.958400 0.387500 0.950200
H142 H 0.942400 0.283600 0.944400
H143 H 0.915200 0.338800 0.851400
C144 C 0.828360 0.513670 0.908210
H145 H 0.892400 0.510100 0.912800
C146 C 0.782470 0.596880 0.855750
H147 H 0.720600 0.603700 0.852700
H148 H 0.822100 0.647300 0.888200
H149 H 0.775000 0.593500 0.792400
C150 C 0.841420 0.519210 1.007790
H151 H 0.874100 0.466600 1.042600
H152 H 0.878800 0.571300 1.038800
H153 H 0.779700 0.523300 1.005700
C154 C 0.517490 0.414970 0.878400
H155 H 0.451300 0.410500 0.868000
C156 C 0.579900 0.354900 0.960440
H157 H 0.645200 0.358500 0.971600
H158 H 0.576600 0.373600 1.016500
H159 H 0.557800 0.294200 0.945400
C160 C 0.549560 0.508580 0.902730
H161 H 0.506100 0.547500 0.853100
H162 H 0.550500 0.524200 0.961600
H163 H 0.612900 0.515000 0.909200
C164 C 0.468840 0.309140 0.750510
H165 H 0.486500 0.265000 0.801600
C166 C 0.494850 0.273230 0.679230
H167 H 0.560800 0.254300 0.710500
H168 H 0.454400 0.223100 0.647300
H169 H 0.486400 0.319000 0.633600
C170 C 0.360080 0.320530 0.700470
H171 H 0.341100 0.357900 0.645500
H172 H 0.330000 0.263000 0.681100
H173 H 0.340700 0.347900 0.743300
C174 C 0.074800 0.650600 0.360420
H175 H 0.023100 0.644700 0.294900
C176 C 0.136180 0.727210 0.363430
H177 H 0.164800 0.714800 0.323100
H178 H 0.185800 0.736100 0.427600
H179 H 0.097600 0.780400 0.341500
C180 C 0.029760 0.671130 0.422890
H181 H 0.079200 0.678700 0.487400
H182 H -0.011500 0.622600 0.419800
H183 H -0.007200 0.725200 0.401400
C184 C 0.071610 0.490620 0.366270
H185 H 0.034600 0.496900 0.401000
C186 C 0.001930 0.476600 0.263030
H187 H 0.036600 0.469500 0.227600
H188 H -0.039900 0.527500 0.239400
H189 H -0.035500 0.423800 0.256200
C190 C 0.133020 0.409420 0.402990
H191 H 0.176500 0.416900 0.469500
H192 H 0.169000 0.401000 0.369000
H193 H 0.093200 0.358000 0.394100
Fe194 Fe 0.000000 0.000000 0.000000
Mg195 Mg -0.131870 -0.070150 -0.278820
Mg196 Mg 0.246810 0.075340 -0.006990
Na197 Na 0.066070 0.003490 -0.162860
Na198 Na -0.289410 -0.040020 -0.209740
N199 N -0.274790 -0.063250 -0.355050
N200 N -0.018420 -0.107830 -0.291490
N201 N 0.206790 0.115820 -0.137100
N202 N 0.369470 0.069190 0.115300
C203 C -0.318220 -0.146550 -0.400570
H204 H -0.321500 -0.147800 -0.463600
C205 C -0.255380 -0.221240 -0.342920
H206 H -0.244400 -0.216200 -0.278500
H207 H -0.286100 -0.277400 -0.369100
H208 H -0.195100 -0.218400 -0.344000
C209 C -0.417500 -0.160420 -0.412740
H210 H -0.458400 -0.112500 -0.450200
H211 H -0.442400 -0.216400 -0.444400
H212 H -0.415200 -0.161200 -0.351400
C213 C -0.328360 0.013670 -0.408210
H214 H -0.392400 0.010100 -0.412800
C215 C -0.282470 0.096880 -0.355750
H216 H -0.220600 0.103700 -0.352700
H217 H -0.322100 0.147300 -0.388200
H218 H -0.275000 0.093500 -0.292400
C219 C -0.341420 0.019210 -0.507790
H220 H -0.374100 -0.033400 -0.542600
H221 H -0.378800 0.071300 -0.538800
H222 H -0.279700 0.023300 -0.505700
C223 C -0.017490 -0.085030 -0.378400
H224 H 0.048700 -0.089500 -0.368000
C225 C -0.079900 -0.145100 -0.460440
H226 H -0.145200 -0.141500 -0.471600
H227 H -0.076600 -0.126400 -0.516500
H228 H -0.057800 -0.205800 -0.445400
C229 C -0.049560 0.008580 -0.402730
H230 H -0.006100 0.047500 -0.353100
H231 H -0.050500 0.024200 -0.461600
H232 H -0.112900 0.015000 -0.409200
C233 C 0.031160 -0.190860 -0.250510
H234 H 0.013500 -0.235000 -0.301600
C235 C 0.005150 -0.226770 -0.179230
H236 H -0.060800 -0.245700 -0.210500
H237 H 0.045600 -0.276900 -0.147300
H238 H 0.013600 -0.181000 -0.133600
C239 C 0.139920 -0.179470 -0.200470
H240 H 0.158900 -0.142100 -0.145500
H241 H 0.170000 -0.237000 -0.181100
H242 H 0.159300 -0.152100 -0.243300
C243 C 0.153600 0.197570 -0.172320
H244 H 0.106300 0.188000 -0.239000
C245 C 0.100370 0.219200 -0.118930
H246 H 0.145200 0.232100 -0.053800
H247 H 0.061200 0.169000 -0.121400
H248 H 0.060200 0.270500 -0.147100
C249 C 0.212090 0.277940 -0.167900
H250 H 0.240100 0.269300 -0.209300
H251 H 0.262100 0.286200 -0.103800
H252 H 0.171600 0.330000 -0.187700
C253 C 0.266470 0.093990 -0.180040
H254 H 0.311800 0.143300 -0.167500
C255 C 0.211450 0.080670 -0.285560
H256 H 0.176900 0.134400 -0.315000
H257 H 0.166900 0.032100 -0.299400
H258 H 0.255300 0.066900 -0.309800
C259 C 0.322540 0.011920 -0.134360
H260 H 0.279400 -0.035800 -0.140000
H261 H 0.364800 0.023600 -0.068300
H262 H 0.359600 -0.005100 -0.165300
C263 C 0.425200 0.150600 0.139580
H264 H 0.476900 0.144700 0.205100
C265 C 0.363820 0.227210 0.136570
H266 H 0.335200 0.214800 0.176900
H267 H 0.314200 0.236100 0.072400
H268 H 0.402400 0.280400 0.158500
C269 C 0.470240 0.171130 0.077110
H270 H 0.420800 0.178700 0.012600
H271 H 0.511500 0.122600 0.080200
H272 H 0.507200 0.225200 0.098600
C273 C 0.428390 -0.009380 0.133730
H274 H 0.465400 -0.003100 0.099000
C275 C 0.498070 -0.023400 0.236970
H276 H 0.463400 -0.030500 0.272400
H277 H 0.539900 0.027500 0.260600
H278 H 0.535500 -0.076200 0.243800
C279 C 0.366980 -0.090580 0.097010
H280 H 0.323500 -0.083100 0.030500
H281 H 0.331000 -0.099000 0.131000
H282 H 0.406800 -0.142000 0.105900
C283 C -0.097830 0.070140 -0.112450
C284 C -0.123450 0.068770 -0.039310
C285 C -0.093640 -0.017100 -0.143300
C286 C -0.116940 -0.070610 -0.082560
C287 C -0.137980 -0.019930 -0.018870
H288 H -0.115900 -0.137500 -0.081000
H289 H -0.086600 0.123900 -0.139100
H290 H -0.126700 0.125700 -0.003500
N291 N -0.369470 -0.069190 -0.115300
Mg292 Mg -0.246810 -0.075340 0.006990
Na293 Na -0.066070 -0.003490 0.162860
C294 C 0.097830 -0.070140 0.112450
C295 C 0.123450 -0.068770 0.039310
C296 C 0.093640 0.017100 0.143300
Mg297 Mg 0.131870 0.070150 0.278820
N298 N 0.018420 0.107830 0.291490
N299 N 0.274790 0.063250 0.355050
Na300 Na 0.289410 0.040020 0.209740
C301 C 0.137980 0.019930 0.018870
C302 C 0.116940 0.070610 0.082560
N303 N -0.206790 -0.115820 0.137100
C304 C -0.153600 -0.197570 0.172320
H305 H -0.106300 -0.188000 0.239000
C306 C -0.100370 -0.219200 0.118930
H307 H -0.145200 -0.232100 0.053800
H308 H -0.061200 -0.169000 0.121400
H309 H -0.060200 -0.270500 0.147100
C310 C -0.212090 -0.277940 0.167900
H311 H -0.240100 -0.269300 0.209300
H312 H -0.262100 -0.286200 0.103800
H313 H -0.171600 -0.330000 0.187700
C314 C -0.266470 -0.093990 0.180040
H315 H -0.311800 -0.143300 0.167500
C316 C -0.211450 -0.080670 0.285560
H317 H -0.176900 -0.134400 0.315000
H318 H -0.166900 -0.032100 0.299400
H319 H -0.255300 -0.066900 0.309800
C320 C -0.322540 -0.011920 0.134360
H321 H -0.279400 0.035800 0.140000
H322 H -0.364800 -0.023600 0.068300
H323 H -0.359600 0.005100 0.165300
H324 H 0.086600 -0.123900 0.139100
H325 H 0.126700 -0.125700 0.003500
H326 H 0.115900 0.137500 0.081000
C327 C 0.318220 0.146550 0.400570
H328 H 0.321500 0.147800 0.463600
C329 C 0.255380 0.221240 0.342920
H330 H 0.244400 0.216200 0.278500
H331 H 0.286100 0.277400 0.369100
H332 H 0.195100 0.218400 0.344000
C333 C 0.417500 0.160420 0.412740
H334 H 0.458400 0.112500 0.450200
H335 H 0.442400 0.216400 0.444400
H336 H 0.415200 0.161200 0.351400
C337 C 0.328360 -0.013670 0.408210
H338 H 0.392400 -0.010100 0.412800
C339 C 0.282470 -0.096880 0.355750
H340 H 0.220600 -0.103700 0.352700
H341 H 0.322100 -0.147300 0.388200
H342 H 0.275000 -0.093500 0.292400
C343 C 0.341420 -0.019210 0.507790
H344 H 0.374100 0.033400 0.542600
H345 H 0.378800 -0.071300 0.538800
H346 H 0.279700 -0.023300 0.505700
C347 C 0.017490 0.085030 0.378400
H348 H -0.048700 0.089500 0.368000
C349 C 0.079900 0.145100 0.460440
H350 H 0.145200 0.141500 0.471600
H351 H 0.076600 0.126400 0.516500
H352 H 0.057800 0.205800 0.445400
C353 C 0.049560 -0.008580 0.402730
H354 H 0.006100 -0.047500 0.353100
H355 H 0.050500 -0.024200 0.461600
H356 H 0.112900 -0.015000 0.409200
C357 C -0.031160 0.190860 0.250510
H358 H -0.013500 0.235000 0.301600
C359 C -0.005150 0.226770 0.179230
H360 H 0.060800 0.245700 0.210500
H361 H -0.045600 0.276900 0.147300
H362 H -0.013600 0.181000 0.133600
C363 C -0.139920 0.179470 0.200470
H364 H -0.158900 0.142100 0.145500
H365 H -0.170000 0.237000 0.181100
H366 H -0.159300 0.152100 0.243300
C367 C -0.425200 -0.150600 -0.139580
H368 H -0.476900 -0.144700 -0.205100
C369 C -0.363820 -0.227210 -0.136570
H370 H -0.335200 -0.214800 -0.176900
H371 H -0.314200 -0.236100 -0.072400
H372 H -0.402400 -0.280400 -0.158500
C373 C -0.470240 -0.171130 -0.077110
H374 H -0.420800 -0.178700 -0.012600
H375 H -0.511500 -0.122600 -0.080200
H376 H -0.507200 -0.225200 -0.098600
C377 C -0.428390 0.009380 -0.133730
H378 H -0.465400 0.003100 -0.099000
C379 C -0.498070 0.023400 -0.236970
H380 H -0.463400 0.030500 -0.272400
H381 H -0.539900 -0.027500 -0.260600
H382 H -0.535500 0.076200 -0.243800
C383 C -0.366980 0.090580 -0.097010
H384 H -0.323500 0.083100 -0.030500
H385 H -0.331000 0.099000 -0.131000
H386 H -0.406800 0.142000 -0.105900
Fe387 Fe 0.000000 0.000000 1.000000
Mg388 Mg -0.131870 -0.070150 0.721180
Mg389 Mg 0.246810 0.075340 0.993010
Na390 Na 0.066070 0.003490 0.837140
Na391 Na -0.289410 -0.040020 0.790260
N392 N -0.274790 -0.063250 0.644950
N393 N -0.018420 -0.107830 0.708510
N394 N 0.206790 0.115820 0.862900
N395 N 0.369470 0.069190 1.115300
C396 C -0.318220 -0.146550 0.599430
H397 H -0.321500 -0.147800 0.536400
C398 C -0.255380 -0.221240 0.657080
H399 H -0.244400 -0.216200 0.721500
H400 H -0.286100 -0.277400 0.630900
H401 H -0.195100 -0.218400 0.656000
C402 C -0.417500 -0.160420 0.587260
H403 H -0.458400 -0.112500 0.549800
H404 H -0.442400 -0.216400 0.555600
H405 H -0.415200 -0.161200 0.648600
C406 C -0.328360 0.013670 0.591790
H407 H -0.392400 0.010100 0.587200
C408 C -0.282470 0.096880 0.644250
H409 H -0.220600 0.103700 0.647300
H410 H -0.322100 0.147300 0.611800
H411 H -0.275000 0.093500 0.707600
C412 C -0.341420 0.019210 0.492210
H413 H -0.374100 -0.033400 0.457400
H414 H -0.378800 0.071300 0.461200
H415 H -0.279700 0.023300 0.494300
C416 C -0.017490 -0.085030 0.621600
H417 H 0.048700 -0.089500 0.632000
C418 C -0.079900 -0.145100 0.539560
H419 H -0.145200 -0.141500 0.528400
H420 H -0.076600 -0.126400 0.483500
H421 H -0.057800 -0.205800 0.554600
C422 C -0.049560 0.008580 0.597270
H423 H -0.006100 0.047500 0.646900
H424 H -0.050500 0.024200 0.538400
H425 H -0.112900 0.015000 0.590800
C426 C 0.031160 -0.190860 0.749490
H427 H 0.013500 -0.235000 0.698400
C428 C 0.005150 -0.226770 0.820770
H429 H -0.060800 -0.245700 0.789500
H430 H 0.045600 -0.276900 0.852700
H431 H 0.013600 -0.181000 0.866400
C432 C 0.139920 -0.179470 0.799530
H433 H 0.158900 -0.142100 0.854500
H434 H 0.170000 -0.237000 0.818900
H435 H 0.159300 -0.152100 0.756700
C436 C 0.153600 0.197570 0.827680
H437 H 0.106300 0.188000 0.761000
C438 C 0.100370 0.219200 0.881070
H439 H 0.145200 0.232100 0.946200
H440 H 0.061200 0.169000 0.878600
H441 H 0.060200 0.270500 0.852900
C442 C 0.212090 0.277940 0.832100
H443 H 0.240100 0.269300 0.790700
H444 H 0.262100 0.286200 0.896200
H445 H 0.171600 0.330000 0.812300
C446 C 0.266470 0.093990 0.819960
H447 H 0.311800 0.143300 0.832500
C448 C 0.211450 0.080670 0.714440
H449 H 0.176900 0.134400 0.685000
H450 H 0.166900 0.032100 0.700600
H451 H 0.255300 0.066900 0.690200
C452 C 0.322540 0.011920 0.865640
H453 H 0.279400 -0.035800 0.860000
H454 H 0.364800 0.023600 0.931700
H455 H 0.359600 -0.005100 0.834700
C456 C 0.425200 0.150600 1.139580
H457 H 0.476900 0.144700 1.205100
C458 C 0.363820 0.227210 1.136570
H459 H 0.335200 0.214800 1.176900
H460 H 0.314200 0.236100 1.072400
H461 H 0.402400 0.280400 1.158500
C462 C 0.470240 0.171130 1.077110
H463 H 0.420800 0.178700 1.012600
H464 H 0.511500 0.122600 1.080200
H465 H 0.507200 0.225200 1.098600
C466 C 0.428390 -0.009380 1.133730
H467 H 0.465400 -0.003100 1.099000
C468 C 0.498070 -0.023400 1.236970
H469 H 0.463400 -0.030500 1.272400
H470 H 0.539900 0.027500 1.260600
H471 H 0.535500 -0.076200 1.243800
C472 C 0.366980 -0.090580 1.097010
H473 H 0.323500 -0.083100 1.030500
H474 H 0.331000 -0.099000 1.131000
H475 H 0.406800 -0.142000 1.105900
C476 C -0.097830 0.070140 0.887550
C477 C -0.123450 0.068770 0.960690
C478 C -0.093640 -0.017100 0.856700
C479 C -0.116940 -0.070610 0.917440
C480 C -0.137980 -0.019930 0.981130
H481 H -0.115900 -0.137500 0.919000
H482 H -0.086600 0.123900 0.860900
H483 H -0.126700 0.125700 0.996500
N484 N -0.369470 -0.069190 0.884700
Mg485 Mg -0.246810 -0.075340 1.006990
Na486 Na -0.066070 -0.003490 1.162860
C487 C 0.097830 -0.070140 1.112450
C488 C 0.123450 -0.068770 1.039310
C489 C 0.093640 0.017100 1.143300
Mg490 Mg 0.131870 0.070150 1.278820
N491 N 0.018420 0.107830 1.291490
N492 N 0.274790 0.063250 1.355050
Na493 Na 0.289410 0.040020 1.209740
C494 C 0.137980 0.019930 1.018870
C495 C 0.116940 0.070610 1.082560
N496 N -0.206790 -0.115820 1.137100
C497 C -0.153600 -0.197570 1.172320
H498 H -0.106300 -0.188000 1.239000
C499 C -0.100370 -0.219200 1.118930
H500 H -0.145200 -0.232100 1.053800
H501 H -0.061200 -0.169000 1.121400
H502 H -0.060200 -0.270500 1.147100
C503 C -0.212090 -0.277940 1.167900
H504 H -0.240100 -0.269300 1.209300
H505 H -0.262100 -0.286200 1.103800
H506 H -0.171600 -0.330000 1.187700
C507 C -0.266470 -0.093990 1.180040
H508 H -0.311800 -0.143300 1.167500
C509 C -0.211450 -0.080670 1.285560
H510 H -0.176900 -0.134400 1.315000
H511 H -0.166900 -0.032100 1.299400
H512 H -0.255300 -0.066900 1.309800
C513 C -0.322540 -0.011920 1.134360
H514 H -0.279400 0.035800 1.140000
H515 H -0.364800 -0.023600 1.068300
H516 H -0.359600 0.005100 1.165300
H517 H 0.086600 -0.123900 1.139100
H518 H 0.126700 -0.125700 1.003500
H519 H 0.115900 0.137500 1.081000
C520 C 0.318220 0.146550 1.400570
H521 H 0.321500 0.147800 1.463600
C522 C 0.255380 0.221240 1.342920
H523 H 0.244400 0.216200 1.278500
H524 H 0.286100 0.277400 1.369100
H525 H 0.195100 0.218400 1.344000
C526 C 0.417500 0.160420 1.412740
H527 H 0.458400 0.112500 1.450200
H528 H 0.442400 0.216400 1.444400
H529 H 0.415200 0.161200 1.351400
C530 C 0.328360 -0.013670 1.408210
H531 H 0.392400 -0.010100 1.412800
C532 C 0.282470 -0.096880 1.355750
H533 H 0.220600 -0.103700 1.352700
H534 H 0.322100 -0.147300 1.388200
H535 H 0.275000 -0.093500 1.292400
C536 C 0.341420 -0.019210 1.507790
H537 H 0.374100 0.033400 1.542600
H538 H 0.378800 -0.071300 1.538800
H539 H 0.279700 -0.023300 1.505700
C540 C 0.017490 0.085030 1.378400
H541 H -0.048700 0.089500 1.368000
C542 C 0.079900 0.145100 1.460440
H543 H 0.145200 0.141500 1.471600
H544 H 0.076600 0.126400 1.516500
H545 H 0.057800 0.205800 1.445400
C546 C 0.049560 -0.008580 1.402730
H547 H 0.006100 -0.047500 1.353100
H548 H 0.050500 -0.024200 1.461600
H549 H 0.112900 -0.015000 1.409200
C550 C -0.031160 0.190860 1.250510
H551 H -0.013500 0.235000 1.301600
C552 C -0.005150 0.226770 1.179230
H553 H 0.060800 0.245700 1.210500
H554 H -0.045600 0.276900 1.147300
H555 H -0.013600 0.181000 1.133600
C556 C -0.139920 0.179470 1.200470
H557 H -0.158900 0.142100 1.145500
H558 H -0.170000 0.237000 1.181100
H559 H -0.159300 0.152100 1.243300
C560 C -0.425200 -0.150600 0.860420
H561 H -0.476900 -0.144700 0.794900
C562 C -0.363820 -0.227210 0.863430
H563 H -0.335200 -0.214800 0.823100
H564 H -0.314200 -0.236100 0.927600
H565 H -0.402400 -0.280400 0.841500
C566 C -0.470240 -0.171130 0.922890
H567 H -0.420800 -0.178700 0.987400
H568 H -0.511500 -0.122600 0.919800
H569 H -0.507200 -0.225200 0.901400
C570 C -0.428390 0.009380 0.866270
H571 H -0.465400 0.003100 0.901000
C572 C -0.498070 0.023400 0.763030
H573 H -0.463400 0.030500 0.727600
H574 H -0.539900 -0.027500 0.739400
H575 H -0.535500 0.076200 0.756200
C576 C -0.366980 0.090580 0.902990
H577 H -0.323500 0.083100 0.969500
H578 H -0.331000 0.099000 0.869000
H579 H -0.406800 0.142000 0.894100
Fe580 Fe 0.000000 1.000000 0.000000
Mg581 Mg -0.131870 0.929850 -0.278820
Mg582 Mg 0.246810 1.075340 -0.006990
Na583 Na 0.066070 1.003490 -0.162860
Na584 Na -0.289410 0.959980 -0.209740
N585 N -0.274790 0.936750 -0.355050
N586 N -0.018420 0.892170 -0.291490
N587 N 0.206790 1.115820 -0.137100
N588 N 0.369470 1.069190 0.115300
C589 C -0.318220 0.853450 -0.400570
H590 H -0.321500 0.852200 -0.463600
C591 C -0.255380 0.778760 -0.342920
H592 H -0.244400 0.783800 -0.278500
H593 H -0.286100 0.722600 -0.369100
H594 H -0.195100 0.781600 -0.344000
C595 C -0.417500 0.839580 -0.412740
H596 H -0.458400 0.887500 -0.450200
H597 H -0.442400 0.783600 -0.444400
H598 H -0.415200 0.838800 -0.351400
C599 C -0.328360 1.013670 -0.408210
H600 H -0.392400 1.010100 -0.412800
C601 C -0.282470 1.096880 -0.355750
H602 H -0.220600 1.103700 -0.352700
H603 H -0.322100 1.147300 -0.388200
H604 H -0.275000 1.093500 -0.292400
C605 C -0.341420 1.019210 -0.507790
H606 H -0.374100 0.966600 -0.542600
H607 H -0.378800 1.071300 -0.538800
H608 H -0.279700 1.023300 -0.505700
C609 C -0.017490 0.914970 -0.378400
H610 H 0.048700 0.910500 -0.368000
C611 C -0.079900 0.854900 -0.460440
H612 H -0.145200 0.858500 -0.471600
H613 H -0.076600 0.873600 -0.516500
H614 H -0.057800 0.794200 -0.445400
C615 C -0.049560 1.008580 -0.402730
H616 H -0.006100 1.047500 -0.353100
H617 H -0.050500 1.024200 -0.461600
H618 H -0.112900 1.015000 -0.409200
C619 C 0.031160 0.809140 -0.250510
H620 H 0.013500 0.765000 -0.301600
C621 C 0.005150 0.773230 -0.179230
H622 H -0.060800 0.754300 -0.210500
H623 H 0.045600 0.723100 -0.147300
H624 H 0.013600 0.819000 -0.133600
C625 C 0.139920 0.820530 -0.200470
H626 H 0.158900 0.857900 -0.145500
H627 H 0.170000 0.763000 -0.181100
H628 H 0.159300 0.847900 -0.243300
C629 C 0.153600 1.197570 -0.172320
H630 H 0.106300 1.188000 -0.239000
C631 C 0.100370 1.219200 -0.118930
H632 H 0.145200 1.232100 -0.053800
H633 H 0.061200 1.169000 -0.121400
H634 H 0.060200 1.270500 -0.147100
C635 C 0.212090 1.277940 -0.167900
H636 H 0.240100 1.269300 -0.209300
H637 H 0.262100 1.286200 -0.103800
H638 H 0.171600 1.330000 -0.187700
C639 C 0.266470 1.093990 -0.180040
H640 H 0.311800 1.143300 -0.167500
C641 C 0.211450 1.080670 -0.285560
H642 H 0.176900 1.134400 -0.315000
H643 H 0.166900 1.032100 -0.299400
H644 H 0.255300 1.066900 -0.309800
C645 C 0.322540 1.011920 -0.134360
H646 H 0.279400 0.964200 -0.140000
H647 H 0.364800 1.023600 -0.068300
H648 H 0.359600 0.994900 -0.165300
C649 C 0.425200 1.150600 0.139580
H650 H 0.476900 1.144700 0.205100
C651 C 0.363820 1.227210 0.136570
H652 H 0.335200 1.214800 0.176900
H653 H 0.314200 1.236100 0.072400
H654 H 0.402400 1.280400 0.158500
C655 C 0.470240 1.171130 0.077110
H656 H 0.420800 1.178700 0.012600
H657 H 0.511500 1.122600 0.080200
H658 H 0.507200 1.225200 0.098600
C659 C 0.428390 0.990620 0.133730
H660 H 0.465400 0.996900 0.099000
C661 C 0.498070 0.976600 0.236970
H662 H 0.463400 0.969500 0.272400
H663 H 0.539900 1.027500 0.260600
H664 H 0.535500 0.923800 0.243800
C665 C 0.366980 0.909420 0.097010
H666 H 0.323500 0.916900 0.030500
H667 H 0.331000 0.901000 0.131000
H668 H 0.406800 0.858000 0.105900
C669 C -0.097830 1.070140 -0.112450
C670 C -0.123450 1.068770 -0.039310
C671 C -0.093640 0.982900 -0.143300
C672 C -0.116940 0.929390 -0.082560
C673 C -0.137980 0.980070 -0.018870
H674 H -0.115900 0.862500 -0.081000
H675 H -0.086600 1.123900 -0.139100
H676 H -0.126700 1.125700 -0.003500
N677 N -0.369470 0.930810 -0.115300
Mg678 Mg -0.246810 0.924660 0.006990
Na679 Na -0.066070 0.996510 0.162860
C680 C 0.097830 0.929860 0.112450
C681 C 0.123450 0.931230 0.039310
C682 C 0.093640 1.017100 0.143300
Mg683 Mg 0.131870 1.070150 0.278820
N684 N 0.018420 1.107830 0.291490
N685 N 0.274790 1.063250 0.355050
Na686 Na 0.289410 1.040020 0.209740
C687 C 0.137980 1.019930 0.018870
C688 C 0.116940 1.070610 0.082560
N689 N -0.206790 0.884180 0.137100
C690 C -0.153600 0.802430 0.172320
H691 H -0.106300 0.812000 0.239000
C692 C -0.100370 0.780800 0.118930
H693 H -0.145200 0.767900 0.053800
H694 H -0.061200 0.831000 0.121400
H695 H -0.060200 0.729500 0.147100
C696 C -0.212090 0.722060 0.167900
H697 H -0.240100 0.730700 0.209300
H698 H -0.262100 0.713800 0.103800
H699 H -0.171600 0.670000 0.187700
C700 C -0.266470 0.906010 0.180040
H701 H -0.311800 0.856700 0.167500
C702 C -0.211450 0.919330 0.285560
H703 H -0.176900 0.865600 0.315000
H704 H -0.166900 0.967900 0.299400
H705 H -0.255300 0.933100 0.309800
C706 C -0.322540 0.988080 0.134360
H707 H -0.279400 1.035800 0.140000
H708 H -0.364800 0.976400 0.068300
H709 H -0.359600 1.005100 0.165300
H710 H 0.086600 0.876100 0.139100
H711 H 0.126700 0.874300 0.003500
H712 H 0.115900 1.137500 0.081000
C713 C 0.318220 1.146550 0.400570
H714 H 0.321500 1.147800 0.463600
C715 C 0.255380 1.221240 0.342920
H716 H 0.244400 1.216200 0.278500
H717 H 0.286100 1.277400 0.369100
H718 H 0.195100 1.218400 0.344000
C719 C 0.417500 1.160420 0.412740
H720 H 0.458400 1.112500 0.450200
H721 H 0.442400 1.216400 0.444400
H722 H 0.415200 1.161200 0.351400
C723 C 0.328360 0.986330 0.408210
H724 H 0.392400 0.989900 0.412800
C725 C 0.282470 0.903120 0.355750
H726 H 0.220600 0.896300 0.352700
H727 H 0.322100 0.852700 0.388200
H728 H 0.275000 0.906500 0.292400
C729 C 0.341420 0.980790 0.507790
H730 H 0.374100 1.033400 0.542600
H731 H 0.378800 0.928700 0.538800
H732 H 0.279700 0.976700 0.505700
C733 C 0.017490 1.085030 0.378400
H734 H -0.048700 1.089500 0.368000
C735 C 0.079900 1.145100 0.460440
H736 H 0.145200 1.141500 0.471600
H737 H 0.076600 1.126400 0.516500
H738 H 0.057800 1.205800 0.445400
C739 C 0.049560 0.991420 0.402730
H740 H 0.006100 0.952500 0.353100
H741 H 0.050500 0.975800 0.461600
H742 H 0.112900 0.985000 0.409200
C743 C -0.031160 1.190860 0.250510
H744 H -0.013500 1.235000 0.301600
C745 C -0.005150 1.226770 0.179230
H746 H 0.060800 1.245700 0.210500
H747 H -0.045600 1.276900 0.147300
H748 H -0.013600 1.181000 0.133600
C749 C -0.139920 1.179470 0.200470
H750 H -0.158900 1.142100 0.145500
H751 H -0.170000 1.237000 0.181100
H752 H -0.159300 1.152100 0.243300
C753 C -0.425200 0.849400 -0.139580
H754 H -0.476900 0.855300 -0.205100
C755 C -0.363820 0.772790 -0.136570
H756 H -0.335200 0.785200 -0.176900
H757 H -0.314200 0.763900 -0.072400
H758 H -0.402400 0.719600 -0.158500
C759 C -0.470240 0.828870 -0.077110
H760 H -0.420800 0.821300 -0.012600
H761 H -0.511500 0.877400 -0.080200
H762 H -0.507200 0.774800 -0.098600
C763 C -0.428390 1.009380 -0.133730
H764 H -0.465400 1.003100 -0.099000
C765 C -0.498070 1.023400 -0.236970
H766 H -0.463400 1.030500 -0.272400
H767 H -0.539900 0.972500 -0.260600
H768 H -0.535500 1.076200 -0.243800
C769 C -0.366980 1.090580 -0.097010
H770 H -0.323500 1.083100 -0.030500
H771 H -0.331000 1.099000 -0.131000
H772 H -0.406800 1.142000 -0.105900
Fe773 Fe 0.000000 1.000000 1.000000
Mg774 Mg -0.131870 0.929850 0.721180
Mg775 Mg 0.246810 1.075340 0.993010
Na776 Na 0.066070 1.003490 0.837140
Na777 Na -0.289410 0.959980 0.790260
N778 N -0.274790 0.936750 0.644950
N779 N -0.018420 0.892170 0.708510
N780 N 0.206790 1.115820 0.862900
N781 N 0.369470 1.069190 1.115300
C782 C -0.318220 0.853450 0.599430
H783 H -0.321500 0.852200 0.536400
C784 C -0.255380 0.778760 0.657080
H785 H -0.244400 0.783800 0.721500
H786 H -0.286100 0.722600 0.630900
H787 H -0.195100 0.781600 0.656000
C788 C -0.417500 0.839580 0.587260
H789 H -0.458400 0.887500 0.549800
H790 H -0.442400 0.783600 0.555600
H791 H -0.415200 0.838800 0.648600
C792 C -0.328360 1.013670 0.591790
H793 H -0.392400 1.010100 0.587200
C794 C -0.282470 1.096880 0.644250
H795 H -0.220600 1.103700 0.647300
H796 H -0.322100 1.147300 0.611800
H797 H -0.275000 1.093500 0.707600
C798 C -0.341420 1.019210 0.492210
H799 H -0.374100 0.966600 0.457400
H800 H -0.378800 1.071300 0.461200
H801 H -0.279700 1.023300 0.494300
C802 C -0.017490 0.914970 0.621600
H803 H 0.048700 0.910500 0.632000
C804 C -0.079900 0.854900 0.539560
H805 H -0.145200 0.858500 0.528400
H806 H -0.076600 0.873600 0.483500
H807 H -0.057800 0.794200 0.554600
C808 C -0.049560 1.008580 0.597270
H809 H -0.006100 1.047500 0.646900
H810 H -0.050500 1.024200 0.538400
H811 H -0.112900 1.015000 0.590800
C812 C 0.031160 0.809140 0.749490
H813 H 0.013500 0.765000 0.698400
C814 C 0.005150 0.773230 0.820770
H815 H -0.060800 0.754300 0.789500
H816 H 0.045600 0.723100 0.852700
H817 H 0.013600 0.819000 0.866400
C818 C 0.139920 0.820530 0.799530
H819 H 0.158900 0.857900 0.854500
H820 H 0.170000 0.763000 0.818900
H821 H 0.159300 0.847900 0.756700
C822 C 0.153600 1.197570 0.827680
H823 H 0.106300 1.188000 0.761000
C824 C 0.100370 1.219200 0.881070
H825 H 0.145200 1.232100 0.946200
H826 H 0.061200 1.169000 0.878600
H827 H 0.060200 1.270500 0.852900
C828 C 0.212090 1.277940 0.832100
H829 H 0.240100 1.269300 0.790700
H830 H 0.262100 1.286200 0.896200
H831 H 0.171600 1.330000 0.812300
C832 C 0.266470 1.093990 0.819960
H833 H 0.311800 1.143300 0.832500
C834 C 0.211450 1.080670 0.714440
H835 H 0.176900 1.134400 0.685000
H836 H 0.166900 1.032100 0.700600
H837 H 0.255300 1.066900 0.690200
C838 C 0.322540 1.011920 0.865640
H839 H 0.279400 0.964200 0.860000
H840 H 0.364800 1.023600 0.931700
H841 H 0.359600 0.994900 0.834700
C842 C 0.425200 1.150600 1.139580
H843 H 0.476900 1.144700 1.205100
C844 C 0.363820 1.227210 1.136570
H845 H 0.335200 1.214800 1.176900
H846 H 0.314200 1.236100 1.072400
H847 H 0.402400 1.280400 1.158500
C848 C 0.470240 1.171130 1.077110
H849 H 0.420800 1.178700 1.012600
H850 H 0.511500 1.122600 1.080200
H851 H 0.507200 1.225200 1.098600
C852 C 0.428390 0.990620 1.133730
H853 H 0.465400 0.996900 1.099000
C854 C 0.498070 0.976600 1.236970
H855 H 0.463400 0.969500 1.272400
H856 H 0.539900 1.027500 1.260600
H857 H 0.535500 0.923800 1.243800
C858 C 0.366980 0.909420 1.097010
H859 H 0.323500 0.916900 1.030500
H860 H 0.331000 0.901000 1.131000
H861 H 0.406800 0.858000 1.105900
C862 C -0.097830 1.070140 0.887550
C863 C -0.123450 1.068770 0.960690
C864 C -0.093640 0.982900 0.856700
C865 C -0.116940 0.929390 0.917440
C866 C -0.137980 0.980070 0.981130
H867 H -0.115900 0.862500 0.919000
H868 H -0.086600 1.123900 0.860900
H869 H -0.126700 1.125700 0.996500
N870 N -0.369470 0.930810 0.884700
Mg871 Mg -0.246810 0.924660 1.006990
Na872 Na -0.066070 0.996510 1.162860
C873 C 0.097830 0.929860 1.112450
C874 C 0.123450 0.931230 1.039310
C875 C 0.093640 1.017100 1.143300
Mg876 Mg 0.131870 1.070150 1.278820
N877 N 0.018420 1.107830 1.291490
N878 N 0.274790 1.063250 1.355050
Na879 Na 0.289410 1.040020 1.209740
C880 C 0.137980 1.019930 1.018870
C881 C 0.116940 1.070610 1.082560
N882 N -0.206790 0.884180 1.137100
C883 C -0.153600 0.802430 1.172320
H884 H -0.106300 0.812000 1.239000
C885 C -0.100370 0.780800 1.118930
H886 H -0.145200 0.767900 1.053800
H887 H -0.061200 0.831000 1.121400
H888 H -0.060200 0.729500 1.147100
C889 C -0.212090 0.722060 1.167900
H890 H -0.240100 0.730700 1.209300
H891 H -0.262100 0.713800 1.103800
H892 H -0.171600 0.670000 1.187700
C893 C -0.266470 0.906010 1.180040
H894 H -0.311800 0.856700 1.167500
C895 C -0.211450 0.919330 1.285560
H896 H -0.176900 0.865600 1.315000
H897 H -0.166900 0.967900 1.299400
H898 H -0.255300 0.933100 1.309800
C899 C -0.322540 0.988080 1.134360
H900 H -0.279400 1.035800 1.140000
H901 H -0.364800 0.976400 1.068300
H902 H -0.359600 1.005100 1.165300
H903 H 0.086600 0.876100 1.139100
H904 H 0.126700 0.874300 1.003500
H905 H 0.115900 1.137500 1.081000
C906 C 0.318220 1.146550 1.400570
H907 H 0.321500 1.147800 1.463600
C908 C 0.255380 1.221240 1.342920
H909 H 0.244400 1.216200 1.278500
H910 H 0.286100 1.277400 1.369100
H911 H 0.195100 1.218400 1.344000
C912 C 0.417500 1.160420 1.412740
H913 H 0.458400 1.112500 1.450200
H914 H 0.442400 1.216400 1.444400
H915 H 0.415200 1.161200 1.351400
C916 C 0.328360 0.986330 1.408210
H917 H 0.392400 0.989900 1.412800
C918 C 0.282470 0.903120 1.355750
H919 H 0.220600 0.896300 1.352700
H920 H 0.322100 0.852700 1.388200
H921 H 0.275000 0.906500 1.292400
C922 C 0.341420 0.980790 1.507790
H923 H 0.374100 1.033400 1.542600
H924 H 0.378800 0.928700 1.538800
H925 H 0.279700 0.976700 1.505700
C926 C 0.017490 1.085030 1.378400
H927 H -0.048700 1.089500 1.368000
C928 C 0.079900 1.145100 1.460440
H929 H 0.145200 1.141500 1.471600
H930 H 0.076600 1.126400 1.516500
H931 H 0.057800 1.205800 1.445400
C932 C 0.049560 0.991420 1.402730
H933 H 0.006100 0.952500 1.353100
H934 H 0.050500 0.975800 1.461600
H935 H 0.112900 0.985000 1.409200
C936 C -0.031160 1.190860 1.250510
H937 H -0.013500 1.235000 1.301600
C938 C -0.005150 1.226770 1.179230
H939 H 0.060800 1.245700 1.210500
H940 H -0.045600 1.276900 1.147300
H941 H -0.013600 1.181000 1.133600
C942 C -0.139920 1.179470 1.200470
H943 H -0.158900 1.142100 1.145500
H944 H -0.170000 1.237000 1.181100
H945 H -0.159300 1.152100 1.243300
C946 C -0.425200 0.849400 0.860420
H947 H -0.476900 0.855300 0.794900
C948 C -0.363820 0.772790 0.863430
H949 H -0.335200 0.785200 0.823100
H950 H -0.314200 0.763900 0.927600
H951 H -0.402400 0.719600 0.841500
C952 C -0.470240 0.828870 0.922890
H953 H -0.420800 0.821300 0.987400
H954 H -0.511500 0.877400 0.919800
H955 H -0.507200 0.774800 0.901400
C956 C -0.428390 1.009380 0.866270
H957 H -0.465400 1.003100 0.901000
C958 C -0.498070 1.023400 0.763030
H959 H -0.463400 1.030500 0.727600
H960 H -0.539900 0.972500 0.739400
H961 H -0.535500 1.076200 0.756200
C962 C -0.366980 1.090580 0.902990
H963 H -0.323500 1.083100 0.969500
H964 H -0.331000 1.099000 0.869000
H965 H -0.406800 1.142000 0.894100
Fe966 Fe 1.000000 0.000000 0.000000
Mg967 Mg 0.868130 -0.070150 -0.278820
Mg968 Mg 1.246810 0.075340 -0.006990
Na969 Na 1.066070 0.003490 -0.162860
Na970 Na 0.710590 -0.040020 -0.209740
N971 N 0.725210 -0.063250 -0.355050
N972 N 0.981580 -0.107830 -0.291490
N973 N 1.206790 0.115820 -0.137100
N974 N 1.369470 0.069190 0.115300
C975 C 0.681780 -0.146550 -0.400570
H976 H 0.678500 -0.147800 -0.463600
C977 C 0.744620 -0.221240 -0.342920
H978 H 0.755600 -0.216200 -0.278500
H979 H 0.713900 -0.277400 -0.369100
H980 H 0.804900 -0.218400 -0.344000
C981 C 0.582500 -0.160420 -0.412740
H982 H 0.541600 -0.112500 -0.450200
H983 H 0.557600 -0.216400 -0.444400
H984 H 0.584800 -0.161200 -0.351400
C985 C 0.671640 0.013670 -0.408210
H986 H 0.607600 0.010100 -0.412800
C987 C 0.717530 0.096880 -0.355750
H988 H 0.779400 0.103700 -0.352700
H989 H 0.677900 0.147300 -0.388200
H990 H 0.725000 0.093500 -0.292400
C991 C 0.658580 0.019210 -0.507790
H992 H 0.625900 -0.033400 -0.542600
H993 H 0.621200 0.071300 -0.538800
H994 H 0.720300 0.023300 -0.505700
C995 C 0.982510 -0.085030 -0.378400
H996 H 1.048700 -0.089500 -0.368000
C997 C 0.920100 -0.145100 -0.460440
H998 H 0.854800 -0.141500 -0.471600
H999 H 0.923400 -0.126400 -0.516500
H1000 H 0.942200 -0.205800 -0.445400
C1001 C 0.950440 0.008580 -0.402730
H1002 H 0.993900 0.047500 -0.353100
H1003 H 0.949500 0.024200 -0.461600
H1004 H 0.887100 0.015000 -0.409200
C1005 C 1.031160 -0.190860 -0.250510
H1006 H 1.013500 -0.235000 -0.301600
C1007 C 1.005150 -0.226770 -0.179230
H1008 H 0.939200 -0.245700 -0.210500
H1009 H 1.045600 -0.276900 -0.147300
H1010 H 1.013600 -0.181000 -0.133600
C1011 C 1.139920 -0.179470 -0.200470
H1012 H 1.158900 -0.142100 -0.145500
H1013 H 1.170000 -0.237000 -0.181100
H1014 H 1.159300 -0.152100 -0.243300
C1015 C 1.153600 0.197570 -0.172320
H1016 H 1.106300 0.188000 -0.239000
C1017 C 1.100370 0.219200 -0.118930
H1018 H 1.145200 0.232100 -0.053800
H1019 H 1.061200 0.169000 -0.121400
H1020 H 1.060200 0.270500 -0.147100
C1021 C 1.212090 0.277940 -0.167900
H1022 H 1.240100 0.269300 -0.209300
H1023 H 1.262100 0.286200 -0.103800
H1024 H 1.171600 0.330000 -0.187700
C1025 C 1.266470 0.093990 -0.180040
H1026 H 1.311800 0.143300 -0.167500
C1027 C 1.211450 0.080670 -0.285560
H1028 H 1.176900 0.134400 -0.315000
H1029 H 1.166900 0.032100 -0.299400
H1030 H 1.255300 0.066900 -0.309800
C1031 C 1.322540 0.011920 -0.134360
H1032 H 1.279400 -0.035800 -0.140000
H1033 H 1.364800 0.023600 -0.068300
H1034 H 1.359600 -0.005100 -0.165300
C1035 C 1.425200 0.150600 0.139580
H1036 H 1.476900 0.144700 0.205100
C1037 C 1.363820 0.227210 0.136570
H1038 H 1.335200 0.214800 0.176900
H1039 H 1.314200 0.236100 0.072400
H1040 H 1.402400 0.280400 0.158500
C1041 C 1.470240 0.171130 0.077110
H1042 H 1.420800 0.178700 0.012600
H1043 H 1.511500 0.122600 0.080200
H1044 H 1.507200 0.225200 0.098600
C1045 C 1.428390 -0.009380 0.133730
H1046 H 1.465400 -0.003100 0.099000
C1047 C 1.498070 -0.023400 0.236970
H1048 H 1.463400 -0.030500 0.272400
H1049 H 1.539900 0.027500 0.260600
H1050 H 1.535500 -0.076200 0.243800
C1051 C 1.366980 -0.090580 0.097010
H1052 H 1.323500 -0.083100 0.030500
H1053 H 1.331000 -0.099000 0.131000
H1054 H 1.406800 -0.142000 0.105900
C1055 C 0.902170 0.070140 -0.112450
C1056 C 0.876550 0.068770 -0.039310
C1057 C 0.906360 -0.017100 -0.143300
C1058 C 0.883060 -0.070610 -0.082560
C1059 C 0.862020 -0.019930 -0.018870
H1060 H 0.884100 -0.137500 -0.081000
H1061 H 0.913400 0.123900 -0.139100
H1062 H 0.873300 0.125700 -0.003500
N1063 N 0.630530 -0.069190 -0.115300
Mg1064 Mg 0.753190 -0.075340 0.006990
Na1065 Na 0.933930 -0.003490 0.162860
C1066 C 1.097830 -0.070140 0.112450
C1067 C 1.123450 -0.068770 0.039310
C1068 C 1.093640 0.017100 0.143300
Mg1069 Mg 1.131870 0.070150 0.278820
N1070 N 1.018420 0.107830 0.291490
N1071 N 1.274790 0.063250 0.355050
Na1072 Na 1.289410 0.040020 0.209740
C1073 C 1.137980 0.019930 0.018870
C1074 C 1.116940 0.070610 0.082560
N1075 N 0.793210 -0.115820 0.137100
C1076 C 0.846400 -0.197570 0.172320
H1077 H 0.893700 -0.188000 0.239000
C1078 C 0.899630 -0.219200 0.118930
H1079 H 0.854800 -0.232100 0.053800
H1080 H 0.938800 -0.169000 0.121400
H1081 H 0.939800 -0.270500 0.147100
C1082 C 0.787910 -0.277940 0.167900
H1083 H 0.759900 -0.269300 0.209300
H1084 H 0.737900 -0.286200 0.103800
H1085 H 0.828400 -0.330000 0.187700
C1086 C 0.733530 -0.093990 0.180040
H1087 H 0.688200 -0.143300 0.167500
C1088 C 0.788550 -0.080670 0.285560
H1089 H 0.823100 -0.134400 0.315000
H1090 H 0.833100 -0.032100 0.299400
H1091 H 0.744700 -0.066900 0.309800
C1092 C 0.677460 -0.011920 0.134360
H1093 H 0.720600 0.035800 0.140000
H1094 H 0.635200 -0.023600 0.068300
H1095 H 0.640400 0.005100 0.165300
H1096 H 1.086600 -0.123900 0.139100
H1097 H 1.126700 -0.125700 0.003500
H1098 H 1.115900 0.137500 0.081000
C1099 C 1.318220 0.146550 0.400570
H1100 H 1.321500 0.147800 0.463600
C1101 C 1.255380 0.221240 0.342920
H1102 H 1.244400 0.216200 0.278500
H1103 H 1.286100 0.277400 0.369100
H1104 H 1.195100 0.218400 0.344000
C1105 C 1.417500 0.160420 0.412740
H1106 H 1.458400 0.112500 0.450200
H1107 H 1.442400 0.216400 0.444400
H1108 H 1.415200 0.161200 0.351400
C1109 C 1.328360 -0.013670 0.408210
H1110 H 1.392400 -0.010100 0.412800
C1111 C 1.282470 -0.096880 0.355750
H1112 H 1.220600 -0.103700 0.352700
H1113 H 1.322100 -0.147300 0.388200
H1114 H 1.275000 -0.093500 0.292400
C1115 C 1.341420 -0.019210 0.507790
H1116 H 1.374100 0.033400 0.542600
H1117 H 1.378800 -0.071300 0.538800
H1118 H 1.279700 -0.023300 0.505700
C1119 C 1.017490 0.085030 0.378400
H1120 H 0.951300 0.089500 0.368000
C1121 C 1.079900 0.145100 0.460440
H1122 H 1.145200 0.141500 0.471600
H1123 H 1.076600 0.126400 0.516500
H1124 H 1.057800 0.205800 0.445400
C1125 C 1.049560 -0.008580 0.402730
H1126 H 1.006100 -0.047500 0.353100
H1127 H 1.050500 -0.024200 0.461600
H1128 H 1.112900 -0.015000 0.409200
C1129 C 0.968840 0.190860 0.250510
H1130 H 0.986500 0.235000 0.301600
C1131 C 0.994850 0.226770 0.179230
H1132 H 1.060800 0.245700 0.210500
H1133 H 0.954400 0.276900 0.147300
H1134 H 0.986400 0.181000 0.133600
C1135 C 0.860080 0.179470 0.200470
H1136 H 0.841100 0.142100 0.145500
H1137 H 0.830000 0.237000 0.181100
H1138 H 0.840700 0.152100 0.243300
C1139 C 0.574800 -0.150600 -0.139580
H1140 H 0.523100 -0.144700 -0.205100
C1141 C 0.636180 -0.227210 -0.136570
H1142 H 0.664800 -0.214800 -0.176900
H1143 H 0.685800 -0.236100 -0.072400
H1144 H 0.597600 -0.280400 -0.158500
C1145 C 0.529760 -0.171130 -0.077110
H1146 H 0.579200 -0.178700 -0.012600
H1147 H 0.488500 -0.122600 -0.080200
H1148 H 0.492800 -0.225200 -0.098600
C1149 C 0.571610 0.009380 -0.133730
H1150 H 0.534600 0.003100 -0.099000
C1151 C 0.501930 0.023400 -0.236970
H1152 H 0.536600 0.030500 -0.272400
H1153 H 0.460100 -0.027500 -0.260600
H1154 H 0.464500 0.076200 -0.243800
C1155 C 0.633020 0.090580 -0.097010
H1156 H 0.676500 0.083100 -0.030500
H1157 H 0.669000 0.099000 -0.131000
H1158 H 0.593200 0.142000 -0.105900
Fe1159 Fe 1.000000 0.000000 1.000000
Mg1160 Mg 0.868130 -0.070150 0.721180
Mg1161 Mg 1.246810 0.075340 0.993010
Na1162 Na 1.066070 0.003490 0.837140
Na1163 Na 0.710590 -0.040020 0.790260
N1164 N 0.725210 -0.063250 0.644950
N1165 N 0.981580 -0.107830 0.708510
N1166 N 1.206790 0.115820 0.862900
N1167 N 1.369470 0.069190 1.115300
C1168 C 0.681780 -0.146550 0.599430
H1169 H 0.678500 -0.147800 0.536400
C1170 C 0.744620 -0.221240 0.657080
H1171 H 0.755600 -0.216200 0.721500
H1172 H 0.713900 -0.277400 0.630900
H1173 H 0.804900 -0.218400 0.656000
C1174 C 0.582500 -0.160420 0.587260
H1175 H 0.541600 -0.112500 0.549800
H1176 H 0.557600 -0.216400 0.555600
H1177 H 0.584800 -0.161200 0.648600
C1178 C 0.671640 0.013670 0.591790
H1179 H 0.607600 0.010100 0.587200
C1180 C 0.717530 0.096880 0.644250
H1181 H 0.779400 0.103700 0.647300
H1182 H 0.677900 0.147300 0.611800
H1183 H 0.725000 0.093500 0.707600
C1184 C 0.658580 0.019210 0.492210
H1185 H 0.625900 -0.033400 0.457400
H1186 H 0.621200 0.071300 0.461200
H1187 H 0.720300 0.023300 0.494300
C1188 C 0.982510 -0.085030 0.621600
H1189 H 1.048700 -0.089500 0.632000
C1190 C 0.920100 -0.145100 0.539560
H1191 H 0.854800 -0.141500 0.528400
H1192 H 0.923400 -0.126400 0.483500
H1193 H 0.942200 -0.205800 0.554600
C1194 C 0.950440 0.008580 0.597270
H1195 H 0.993900 0.047500 0.646900
H1196 H 0.949500 0.024200 0.538400
H1197 H 0.887100 0.015000 0.590800
C1198 C 1.031160 -0.190860 0.749490
H1199 H 1.013500 -0.235000 0.698400
C1200 C 1.005150 -0.226770 0.820770
H1201 H 0.939200 -0.245700 0.789500
H1202 H 1.045600 -0.276900 0.852700
H1203 H 1.013600 -0.181000 0.866400
C1204 C 1.139920 -0.179470 0.799530
H1205 H 1.158900 -0.142100 0.854500
H1206 H 1.170000 -0.237000 0.818900
H1207 H 1.159300 -0.152100 0.756700
C1208 C 1.153600 0.197570 0.827680
H1209 H 1.106300 0.188000 0.761000
C1210 C 1.100370 0.219200 0.881070
H1211 H 1.145200 0.232100 0.946200
H1212 H 1.061200 0.169000 0.878600
H1213 H 1.060200 0.270500 0.852900
C1214 C 1.212090 0.277940 0.832100
H1215 H 1.240100 0.269300 0.790700
H1216 H 1.262100 0.286200 0.896200
H1217 H 1.171600 0.330000 0.812300
C1218 C 1.266470 0.093990 0.819960
H1219 H 1.311800 0.143300 0.832500
C1220 C 1.211450 0.080670 0.714440
H1221 H 1.176900 0.134400 0.685000
H1222 H 1.166900 0.032100 0.700600
H1223 H 1.255300 0.066900 0.690200
C1224 C 1.322540 0.011920 0.865640
H1225 H 1.279400 -0.035800 0.860000
H1226 H 1.364800 0.023600 0.931700
H1227 H 1.359600 -0.005100 0.834700
C1228 C 1.425200 0.150600 1.139580
H1229 H 1.476900 0.144700 1.205100
C1230 C 1.363820 0.227210 1.136570
H1231 H 1.335200 0.214800 1.176900
H1232 H 1.314200 0.236100 1.072400
H1233 H 1.402400 0.280400 1.158500
C1234 C 1.470240 0.171130 1.077110
H1235 H 1.420800 0.178700 1.012600
H1236 H 1.511500 0.122600 1.080200
H1237 H 1.507200 0.225200 1.098600
C1238 C 1.428390 -0.009380 1.133730
H1239 H 1.465400 -0.003100 1.099000
C1240 C 1.498070 -0.023400 1.236970
H1241 H 1.463400 -0.030500 1.272400
H1242 H 1.539900 0.027500 1.260600
H1243 H 1.535500 -0.076200 1.243800
C1244 C 1.366980 -0.090580 1.097010
H1245 H 1.323500 -0.083100 1.030500
H1246 H 1.331000 -0.099000 1.131000
H1247 H 1.406800 -0.142000 1.105900
C1248 C 0.902170 0.070140 0.887550
C1249 C 0.876550 0.068770 0.960690
C1250 C 0.906360 -0.017100 0.856700
C1251 C 0.883060 -0.070610 0.917440
C1252 C 0.862020 -0.019930 0.981130
H1253 H 0.884100 -0.137500 0.919000
H1254 H 0.913400 0.123900 0.860900
H1255 H 0.873300 0.125700 0.996500
N1256 N 0.630530 -0.069190 0.884700
Mg1257 Mg 0.753190 -0.075340 1.006990
Na1258 Na 0.933930 -0.003490 1.162860
C1259 C 1.097830 -0.070140 1.112450
C1260 C 1.123450 -0.068770 1.039310
C1261 C 1.093640 0.017100 1.143300
Mg1262 Mg 1.131870 0.070150 1.278820
N1263 N 1.018420 0.107830 1.291490
N1264 N 1.274790 0.063250 1.355050
Na1265 Na 1.289410 0.040020 1.209740
C1266 C 1.137980 0.019930 1.018870
C1267 C 1.116940 0.070610 1.082560
N1268 N 0.793210 -0.115820 1.137100
C1269 C 0.846400 -0.197570 1.172320
H1270 H 0.893700 -0.188000 1.239000
C1271 C 0.899630 -0.219200 1.118930
H1272 H 0.854800 -0.232100 1.053800
H1273 H 0.938800 -0.169000 1.121400
H1274 H 0.939800 -0.270500 1.147100
C1275 C 0.787910 -0.277940 1.167900
H1276 H 0.759900 -0.269300 1.209300
H1277 H 0.737900 -0.286200 1.103800
H1278 H 0.828400 -0.330000 1.187700
C1279 C 0.733530 -0.093990 1.180040
H1280 H 0.688200 -0.143300 1.167500
C1281 C 0.788550 -0.080670 1.285560
H1282 H 0.823100 -0.134400 1.315000
H1283 H 0.833100 -0.032100 1.299400
H1284 H 0.744700 -0.066900 1.309800
C1285 C 0.677460 -0.011920 1.134360
H1286 H 0.720600 0.035800 1.140000
H1287 H 0.635200 -0.023600 1.068300
H1288 H 0.640400 0.005100 1.165300
H1289 H 1.086600 -0.123900 1.139100
H1290 H 1.126700 -0.125700 1.003500
H1291 H 1.115900 0.137500 1.081000
C1292 C 1.318220 0.146550 1.400570
H1293 H 1.321500 0.147800 1.463600
C1294 C 1.255380 0.221240 1.342920
H1295 H 1.244400 0.216200 1.278500
H1296 H 1.286100 0.277400 1.369100
H1297 H 1.195100 0.218400 1.344000
C1298 C 1.417500 0.160420 1.412740
H1299 H 1.458400 0.112500 1.450200
H1300 H 1.442400 0.216400 1.444400
H1301 H 1.415200 0.161200 1.351400
C1302 C 1.328360 -0.013670 1.408210
H1303 H 1.392400 -0.010100 1.412800
C1304 C 1.282470 -0.096880 1.355750
H1305 H 1.220600 -0.103700 1.352700
H1306 H 1.322100 -0.147300 1.388200
H1307 H 1.275000 -0.093500 1.292400
C1308 C 1.341420 -0.019210 1.507790
H1309 H 1.374100 0.033400 1.542600
H1310 H 1.378800 -0.071300 1.538800
H1311 H 1.279700 -0.023300 1.505700
C1312 C 1.017490 0.085030 1.378400
H1313 H 0.951300 0.089500 1.368000
C1314 C 1.079900 0.145100 1.460440
H1315 H 1.145200 0.141500 1.471600
H1316 H 1.076600 0.126400 1.516500
H1317 H 1.057800 0.205800 1.445400
C1318 C 1.049560 -0.008580 1.402730
H1319 H 1.006100 -0.047500 1.353100
H1320 H 1.050500 -0.024200 1.461600
H1321 H 1.112900 -0.015000 1.409200
C1322 C 0.968840 0.190860 1.250510
H1323 H 0.986500 0.235000 1.301600
C1324 C 0.994850 0.226770 1.179230
H1325 H 1.060800 0.245700 1.210500
H1326 H 0.954400 0.276900 1.147300
H1327 H 0.986400 0.181000 1.133600
C1328 C 0.860080 0.179470 1.200470
H1329 H 0.841100 0.142100 1.145500
H1330 H 0.830000 0.237000 1.181100
H1331 H 0.840700 0.152100 1.243300
C1332 C 0.574800 -0.150600 0.860420
H1333 H 0.523100 -0.144700 0.794900
C1334 C 0.636180 -0.227210 0.863430
H1335 H 0.664800 -0.214800 0.823100
H1336 H 0.685800 -0.236100 0.927600
H1337 H 0.597600 -0.280400 0.841500
C1338 C 0.529760 -0.171130 0.922890
H1339 H 0.579200 -0.178700 0.987400
H1340 H 0.488500 -0.122600 0.919800
H1341 H 0.492800 -0.225200 0.901400
C1342 C 0.571610 0.009380 0.866270
H1343 H 0.534600 0.003100 0.901000
C1344 C 0.501930 0.023400 0.763030
H1345 H 0.536600 0.030500 0.727600
H1346 H 0.460100 -0.027500 0.739400
H1347 H 0.464500 0.076200 0.756200
C1348 C 0.633020 0.090580 0.902990
H1349 H 0.676500 0.083100 0.969500
H1350 H 0.669000 0.099000 0.869000
H1351 H 0.593200 0.142000 0.894100
Fe1352 Fe 1.000000 1.000000 0.000000
Mg1353 Mg 0.868130 0.929850 -0.278820
Mg1354 Mg 1.246810 1.075340 -0.006990
Na1355 Na 1.066070 1.003490 -0.162860
Na1356 Na 0.710590 0.959980 -0.209740
N1357 N 0.725210 0.936750 -0.355050
N1358 N 0.981580 0.892170 -0.291490
N1359 N 1.206790 1.115820 -0.137100
N1360 N 1.369470 1.069190 0.115300
C1361 C 0.681780 0.853450 -0.400570
H1362 H 0.678500 0.852200 -0.463600
C1363 C 0.744620 0.778760 -0.342920
H1364 H 0.755600 0.783800 -0.278500
H1365 H 0.713900 0.722600 -0.369100
H1366 H 0.804900 0.781600 -0.344000
C1367 C 0.582500 0.839580 -0.412740
H1368 H 0.541600 0.887500 -0.450200
H1369 H 0.557600 0.783600 -0.444400
H1370 H 0.584800 0.838800 -0.351400
C1371 C 0.671640 1.013670 -0.408210
H1372 H 0.607600 1.010100 -0.412800
C1373 C 0.717530 1.096880 -0.355750
H1374 H 0.779400 1.103700 -0.352700
H1375 H 0.677900 1.147300 -0.388200
H1376 H 0.725000 1.093500 -0.292400
C1377 C 0.658580 1.019210 -0.507790
H1378 H 0.625900 0.966600 -0.542600
H1379 H 0.621200 1.071300 -0.538800
H1380 H 0.720300 1.023300 -0.505700
C1381 C 0.982510 0.914970 -0.378400
H1382 H 1.048700 0.910500 -0.368000
C1383 C 0.920100 0.854900 -0.460440
H1384 H 0.854800 0.858500 -0.471600
H1385 H 0.923400 0.873600 -0.516500
H1386 H 0.942200 0.794200 -0.445400
C1387 C 0.950440 1.008580 -0.402730
H1388 H 0.993900 1.047500 -0.353100
H1389 H 0.949500 1.024200 -0.461600
H1390 H 0.887100 1.015000 -0.409200
C1391 C 1.031160 0.809140 -0.250510
H1392 H 1.013500 0.765000 -0.301600
C1393 C 1.005150 0.773230 -0.179230
H1394 H 0.939200 0.754300 -0.210500
H1395 H 1.045600 0.723100 -0.147300
H1396 H 1.013600 0.819000 -0.133600
C1397 C 1.139920 0.820530 -0.200470
H1398 H 1.158900 0.857900 -0.145500
H1399 H 1.170000 0.763000 -0.181100
H1400 H 1.159300 0.847900 -0.243300
C1401 C 1.153600 1.197570 -0.172320
H1402 H 1.106300 1.188000 -0.239000
C1403 C 1.100370 1.219200 -0.118930
H1404 H 1.145200 1.232100 -0.053800
H1405 H 1.061200 1.169000 -0.121400
H1406 H 1.060200 1.270500 -0.147100
C1407 C 1.212090 1.277940 -0.167900
H1408 H 1.240100 1.269300 -0.209300
H1409 H 1.262100 1.286200 -0.103800
H1410 H 1.171600 1.330000 -0.187700
C1411 C 1.266470 1.093990 -0.180040
H1412 H 1.311800 1.143300 -0.167500
C1413 C 1.211450 1.080670 -0.285560
H1414 H 1.176900 1.134400 -0.315000
H1415 H 1.166900 1.032100 -0.299400
H1416 H 1.255300 1.066900 -0.309800
C1417 C 1.322540 1.011920 -0.134360
H1418 H 1.279400 0.964200 -0.140000
H1419 H 1.364800 1.023600 -0.068300
H1420 H 1.359600 0.994900 -0.165300
C1421 C 1.425200 1.150600 0.139580
H1422 H 1.476900 1.144700 0.205100
C1423 C 1.363820 1.227210 0.136570
H1424 H 1.335200 1.214800 0.176900
H1425 H 1.314200 1.236100 0.072400
H1426 H 1.402400 1.280400 0.158500
C1427 C 1.470240 1.171130 0.077110
H1428 H 1.420800 1.178700 0.012600
H1429 H 1.511500 1.122600 0.080200
H1430 H 1.507200 1.225200 0.098600
C1431 C 1.428390 0.990620 0.133730
H1432 H 1.465400 0.996900 0.099000
C1433 C 1.498070 0.976600 0.236970
H1434 H 1.463400 0.969500 0.272400
H1435 H 1.539900 1.027500 0.260600
H1436 H 1.535500 0.923800 0.243800
C1437 C 1.366980 0.909420 0.097010
H1438 H 1.323500 0.916900 0.030500
H1439 H 1.331000 0.901000 0.131000
H1440 H 1.406800 0.858000 0.105900
C1441 C 0.902170 1.070140 -0.112450
C1442 C 0.876550 1.068770 -0.039310
C1443 C 0.906360 0.982900 -0.143300
C1444 C 0.883060 0.929390 -0.082560
C1445 C 0.862020 0.980070 -0.018870
H1446 H 0.884100 0.862500 -0.081000
H1447 H 0.913400 1.123900 -0.139100
H1448 H 0.873300 1.125700 -0.003500
N1449 N 0.630530 0.930810 -0.115300
Mg1450 Mg 0.753190 0.924660 0.006990
Na1451 Na 0.933930 0.996510 0.162860
C1452 C 1.097830 0.929860 0.112450
C1453 C 1.123450 0.931230 0.039310
C1454 C 1.093640 1.017100 0.143300
Mg1455 Mg 1.131870 1.070150 0.278820
N1456 N 1.018420 1.107830 0.291490
N1457 N 1.274790 1.063250 0.355050
Na1458 Na 1.289410 1.040020 0.209740
C1459 C 1.137980 1.019930 0.018870
C1460 C 1.116940 1.070610 0.082560
N1461 N 0.793210 0.884180 0.137100
C1462 C 0.846400 0.802430 0.172320
H1463 H 0.893700 0.812000 0.239000
C1464 C 0.899630 0.780800 0.118930
H1465 H 0.854800 0.767900 0.053800
H1466 H 0.938800 0.831000 0.121400
H1467 H 0.939800 0.729500 0.147100
C1468 C 0.787910 0.722060 0.167900
H1469 H 0.759900 0.730700 0.209300
H1470 H 0.737900 0.713800 0.103800
H1471 H 0.828400 0.670000 0.187700
C1472 C 0.733530 0.906010 0.180040
H1473 H 0.688200 0.856700 0.167500
C1474 C 0.788550 0.919330 0.285560
H1475 H 0.823100 0.865600 0.315000
H1476 H 0.833100 0.967900 0.299400
H1477 H 0.744700 0.933100 0.309800
C1478 C 0.677460 0.988080 0.134360
H1479 H 0.720600 1.035800 0.140000
H1480 H 0.635200 0.976400 0.068300
H1481 H 0.640400 1.005100 0.165300
H1482 H 1.086600 0.876100 0.139100
H1483 H 1.126700 0.874300 0.003500
H1484 H 1.115900 1.137500 0.081000
C1485 C 1.318220 1.146550 0.400570
H1486 H 1.321500 1.147800 0.463600
C1487 C 1.255380 1.221240 0.342920
H1488 H 1.244400 1.216200 0.278500
H1489 H 1.286100 1.277400 0.369100
H1490 H 1.195100 1.218400 0.344000
C1491 C 1.417500 1.160420 0.412740
H1492 H 1.458400 1.112500 0.450200
H1493 H 1.442400 1.216400 0.444400
H1494 H 1.415200 1.161200 0.351400
C1495 C 1.328360 0.986330 0.408210
H1496 H 1.392400 0.989900 0.412800
C1497 C 1.282470 0.903120 0.355750
H1498 H 1.220600 0.896300 0.352700
H1499 H 1.322100 0.852700 0.388200
H1500 H 1.275000 0.906500 0.292400
C1501 C 1.341420 0.980790 0.507790
H1502 H 1.374100 1.033400 0.542600
H1503 H 1.378800 0.928700 0.538800
H1504 H 1.279700 0.976700 0.505700
C1505 C 1.017490 1.085030 0.378400
H1506 H 0.951300 1.089500 0.368000
C1507 C 1.079900 1.145100 0.460440
H1508 H 1.145200 1.141500 0.471600
H1509 H 1.076600 1.126400 0.516500
H1510 H 1.057800 1.205800 0.445400
C1511 C 1.049560 0.991420 0.402730
H1512 H 1.006100 0.952500 0.353100
H1513 H 1.050500 0.975800 0.461600
H1514 H 1.112900 0.985000 0.409200
C1515 C 0.968840 1.190860 0.250510
H1516 H 0.986500 1.235000 0.301600
C1517 C 0.994850 1.226770 0.179230
H1518 H 1.060800 1.245700 0.210500
H1519 H 0.954400 1.276900 0.147300
H1520 H 0.986400 1.181000 0.133600
C1521 C 0.860080 1.179470 0.200470
H1522 H 0.841100 1.142100 0.145500
H1523 H 0.830000 1.237000 0.181100
H1524 H 0.840700 1.152100 0.243300
C1525 C 0.574800 0.849400 -0.139580
H1526 H 0.523100 0.855300 -0.205100
C1527 C 0.636180 0.772790 -0.136570
H1528 H 0.664800 0.785200 -0.176900
H1529 H 0.685800 0.763900 -0.072400
H1530 H 0.597600 0.719600 -0.158500
C1531 C 0.529760 0.828870 -0.077110
H1532 H 0.579200 0.821300 -0.012600
H1533 H 0.488500 0.877400 -0.080200
H1534 H 0.492800 0.774800 -0.098600
C1535 C 0.571610 1.009380 -0.133730
H1536 H 0.534600 1.003100 -0.099000
C1537 C 0.501930 1.023400 -0.236970
H1538 H 0.536600 1.030500 -0.272400
H1539 H 0.460100 0.972500 -0.260600
H1540 H 0.464500 1.076200 -0.243800
C1541 C 0.633020 1.090580 -0.097010
H1542 H 0.676500 1.083100 -0.030500
H1543 H 0.669000 1.099000 -0.131000
H1544 H 0.593200 1.142000 -0.105900
Fe1545 Fe 1.000000 1.000000 1.000000
Mg1546 Mg 0.868130 0.929850 0.721180
Mg1547 Mg 1.246810 1.075340 0.993010
Na1548 Na 1.066070 1.003490 0.837140
Na1549 Na 0.710590 0.959980 0.790260
N1550 N 0.725210 0.936750 0.644950
N1551 N 0.981580 0.892170 0.708510
N1552 N 1.206790 1.115820 0.862900
N1553 N 1.369470 1.069190 1.115300
C1554 C 0.681780 0.853450 0.599430
H1555 H 0.678500 0.852200 0.536400
C1556 C 0.744620 0.778760 0.657080
H1557 H 0.755600 0.783800 0.721500
H1558 H 0.713900 0.722600 0.630900
H1559 H 0.804900 0.781600 0.656000
C1560 C 0.582500 0.839580 0.587260
H1561 H 0.541600 0.887500 0.549800
H1562 H 0.557600 0.783600 0.555600
H1563 H 0.584800 0.838800 0.648600
C1564 C 0.671640 1.013670 0.591790
H1565 H 0.607600 1.010100 0.587200
C1566 C 0.717530 1.096880 0.644250
H1567 H 0.779400 1.103700 0.647300
H1568 H 0.677900 1.147300 0.611800
H1569 H 0.725000 1.093500 0.707600
C1570 C 0.658580 1.019210 0.492210
H1571 H 0.625900 0.966600 0.457400
H1572 H 0.621200 1.071300 0.461200
H1573 H 0.720300 1.023300 0.494300
C1574 C 0.982510 0.914970 0.621600
H1575 H 1.048700 0.910500 0.632000
C1576 C 0.920100 0.854900 0.539560
H1577 H 0.854800 0.858500 0.528400
H1578 H 0.923400 0.873600 0.483500
H1579 H 0.942200 0.794200 0.554600
C1580 C 0.950440 1.008580 0.597270
H1581 H 0.993900 1.047500 0.646900
H1582 H 0.949500 1.024200 0.538400
H1583 H 0.887100 1.015000 0.590800
C1584 C 1.031160 0.809140 0.749490
H1585 H 1.013500 0.765000 0.698400
C1586 C 1.005150 0.773230 0.820770
H1587 H 0.939200 0.754300 0.789500
H1588 H 1.045600 0.723100 0.852700
H1589 H 1.013600 0.819000 0.866400
C1590 C 1.139920 0.820530 0.799530
H1591 H 1.158900 0.857900 0.854500
H1592 H 1.170000 0.763000 0.818900
H1593 H 1.159300 0.847900 0.756700
C1594 C 1.153600 1.197570 0.827680
H1595 H 1.106300 1.188000 0.761000
C1596 C 1.100370 1.219200 0.881070
H1597 H 1.145200 1.232100 0.946200
H1598 H 1.061200 1.169000 0.878600
H1599 H 1.060200 1.270500 0.852900
C1600 C 1.212090 1.277940 0.832100
H1601 H 1.240100 1.269300 0.790700
H1602 H 1.262100 1.286200 0.896200
H1603 H 1.171600 1.330000 0.812300
C1604 C 1.266470 1.093990 0.819960
H1605 H 1.311800 1.143300 0.832500
C1606 C 1.211450 1.080670 0.714440
H1607 H 1.176900 1.134400 0.685000
H1608 H 1.166900 1.032100 0.700600
H1609 H 1.255300 1.066900 0.690200
C1610 C 1.322540 1.011920 0.865640
H1611 H 1.279400 0.964200 0.860000
H1612 H 1.364800 1.023600 0.931700
H1613 H 1.359600 0.994900 0.834700
C1614 C 1.425200 1.150600 1.139580
H1615 H 1.476900 1.144700 1.205100
C1616 C 1.363820 1.227210 1.136570
H1617 H 1.335200 1.214800 1.176900
H1618 H 1.314200 1.236100 1.072400
H1619 H 1.402400 1.280400 1.158500
C1620 C 1.470240 1.171130 1.077110
H1621 H 1.420800 1.178700 1.012600
H1622 H 1.511500 1.122600 1.080200
H1623 H 1.507200 1.225200 1.098600
C1624 C 1.428390 0.990620 1.133730
H1625 H 1.465400 0.996900 1.099000
C1626 C 1.498070 0.976600 1.236970
H1627 H 1.463400 0.969500 1.272400
H1628 H 1.539900 1.027500 1.260600
H1629 H 1.535500 0.923800 1.243800
C1630 C 1.366980 0.909420 1.097010
H1631 H 1.323500 0.916900 1.030500
H1632 H 1.331000 0.901000 1.131000
H1633 H 1.406800 0.858000 1.105900
C1634 C 0.902170 1.070140 0.887550
C1635 C 0.876550 1.068770 0.960690
C1636 C 0.906360 0.982900 0.856700
C1637 C 0.883060 0.929390 0.917440
C1638 C 0.862020 0.980070 0.981130
H1639 H 0.884100 0.862500 0.919000
H1640 H 0.913400 1.123900 0.860900
H1641 H 0.873300 1.125700 0.996500
N1642 N 0.630530 0.930810 0.884700
Mg1643 Mg 0.753190 0.924660 1.006990
Na1644 Na 0.933930 0.996510 1.162860
C1645 C 1.097830 0.929860 1.112450
C1646 C 1.123450 0.931230 1.039310
C1647 C 1.093640 1.017100 1.143300
Mg1648 Mg 1.131870 1.070150 1.278820
N1649 N 1.018420 1.107830 1.291490
N1650 N 1.274790 1.063250 1.355050
Na1651 Na 1.289410 1.040020 1.209740
C1652 C 1.137980 1.019930 1.018870
C1653 C 1.116940 1.070610 1.082560
N1654 N 0.793210 0.884180 1.137100
C1655 C 0.846400 0.802430 1.172320
H1656 H 0.893700 0.812000 1.239000
C1657 C 0.899630 0.780800 1.118930
H1658 H 0.854800 0.767900 1.053800
H1659 H 0.938800 0.831000 1.121400
H1660 H 0.939800 0.729500 1.147100
C1661 C 0.787910 0.722060 1.167900
H1662 H 0.759900 0.730700 1.209300
H1663 H 0.737900 0.713800 1.103800
H1664 H 0.828400 0.670000 1.187700
C1665 C 0.733530 0.906010 1.180040
H1666 H 0.688200 0.856700 1.167500
C1667 C 0.788550 0.919330 1.285560
H1668 H 0.823100 0.865600 1.315000
H1669 H 0.833100 0.967900 1.299400
H1670 H 0.744700 0.933100 1.309800
C1671 C 0.677460 0.988080 1.134360
H1672 H 0.720600 1.035800 1.140000
H1673 H 0.635200 0.976400 1.068300
H1674 H 0.640400 1.005100 1.165300
H1675 H 1.086600 0.876100 1.139100
H1676 H 1.126700 0.874300 1.003500
H1677 H 1.115900 1.137500 1.081000
C1678 C 1.318220 1.146550 1.400570
H1679 H 1.321500 1.147800 1.463600
C1680 C 1.255380 1.221240 1.342920
H1681 H 1.244400 1.216200 1.278500
H1682 H 1.286100 1.277400 1.369100
H1683 H 1.195100 1.218400 1.344000
C1684 C 1.417500 1.160420 1.412740
H1685 H 1.458400 1.112500 1.450200
H1686 H 1.442400 1.216400 1.444400
H1687 H 1.415200 1.161200 1.351400
C1688 C 1.328360 0.986330 1.408210
H1689 H 1.392400 0.989900 1.412800
C1690 C 1.282470 0.903120 1.355750
H1691 H 1.220600 0.896300 1.352700
H1692 H 1.322100 0.852700 1.388200
H1693 H 1.275000 0.906500 1.292400
C1694 C 1.341420 0.980790 1.507790
H1695 H 1.374100 1.033400 1.542600
H1696 H 1.378800 0.928700 1.538800
H1697 H 1.279700 0.976700 1.505700
C1698 C 1.017490 1.085030 1.378400
H1699 H 0.951300 1.089500 1.368000
C1700 C 1.079900 1.145100 1.460440
H1701 H 1.145200 1.141500 1.471600
H1702 H 1.076600 1.126400 1.516500
H1703 H 1.057800 1.205800 1.445400
C1704 C 1.049560 0.991420 1.402730
H1705 H 1.006100 0.952500 1.353100
H1706 H 1.050500 0.975800 1.461600
H1707 H 1.112900 0.985000 1.409200
C1708 C 0.968840 1.190860 1.250510
H1709 H 0.986500 1.235000 1.301600
C1710 C 0.994850 1.226770 1.179230
H1711 H 1.060800 1.245700 1.210500
H1712 H 0.954400 1.276900 1.147300
H1713 H 0.986400 1.181000 1.133600
C1714 C 0.860080 1.179470 1.200470
H1715 H 0.841100 1.142100 1.145500
H1716 H 0.830000 1.237000 1.181100
H1717 H 0.840700 1.152100 1.243300
C1718 C 0.574800 0.849400 0.860420
H1719 H 0.523100 0.855300 0.794900
C1720 C 0.636180 0.772790 0.863430
H1721 H 0.664800 0.785200 0.823100
H1722 H 0.685800 0.763900 0.927600
H1723 H 0.597600 0.719600 0.841500
C1724 C 0.529760 0.828870 0.922890
H1725 H 0.579200 0.821300 0.987400
H1726 H 0.488500 0.877400 0.919800
H1727 H 0.492800 0.774800 0.901400
C1728 C 0.571610 1.009380 0.866270
H1729 H 0.534600 1.003100 0.901000
C1730 C 0.501930 1.023400 0.763030
H1731 H 0.536600 1.030500 0.727600
H1732 H 0.460100 0.972500 0.739400
H1733 H 0.464500 1.076200 0.756200
C1734 C 0.633020 1.090580 0.902990
H1735 H 0.676500 1.083100 0.969500
H1736 H 0.669000 1.099000 0.869000
H1737 H 0.593200 1.142000 0.894100

#END
