./ACOQIS_from_xyz.cif_generated_by_CrystalShift
_symmetry_cell_setting triclinic
_symmetry_space_group_name_H-M 'P 1'
loop_
_symmetry_equiv_pos_site_id
_symmetry_equiv_pos_as_xyz
1 x,y,z
_cell_length_a 6.933000
_cell_length_b 8.123000
_cell_length_c 19.479000
_cell_angle_alpha 90.000000
_cell_angle_beta 91.860000
_cell_angle_gamma 90.000000
_cell_volume 1096.416170
loop_
_atom_site_label
_atom_site_type_symbol
_atom_site_fract_x
_atom_site_fract_y
_atom_site_fract_z
N1 N 0.106100 0.867800 0.575600
C2 C 0.295300 0.503500 0.784400
H3 H 0.430300 0.539500 0.785300
C4 C -0.352300 -0.167400 0.631400
C5 C 0.184700 0.607100 0.833000
H6 H 0.081100 0.669000 0.809300
C7 C -0.379900 -0.190300 0.563100
H8 H -0.398600 -0.102000 0.533200
C9 C 0.149900 0.901200 0.641000
H10 H 0.152900 1.013000 0.651200
N11 N 0.190300 0.803900 0.694700
C12 C 0.106000 0.485900 0.886100
H13 H -0.028500 0.508900 0.896900
C14 C -0.379200 -0.354900 0.539200
H15 H -0.397200 -0.376800 0.492500
C16 C 0.187500 0.645000 0.673500
C17 C 0.130700 0.317600 0.852500
H18 H 0.170600 0.239100 0.888500
C19 C -0.351900 -0.481100 0.584400
H20 H -0.353700 -0.588300 0.567500
C21 C 0.144200 0.590200 0.607400
C22 C -0.321800 -0.457400 0.654200
H23 H -0.302900 -0.545400 0.684200
C24 C -0.053800 0.258000 0.820300
H25 H -0.126500 0.333700 0.794600
C26 C -0.321200 -0.295400 0.677400
C27 C 0.103500 0.707200 0.556000
C28 C -0.123000 0.108400 0.824700
H29 H -0.044100 0.030100 0.846200
N30 N 0.150200 0.419500 0.605300
C31 C -0.293800 -0.231000 0.746200
C32 C -0.314500 0.052400 0.798700
H33 H -0.379000 -0.002500 0.835800
H34 H -0.390800 0.148300 0.785800
O35 O 0.286000 0.336100 0.807400
N36 N -0.310900 -0.057700 0.740600
C37 C 0.197600 0.379800 0.668800
H38 H 0.215700 0.271000 0.682400
N39 N 0.218700 0.507200 0.713800
C40 C -0.352900 -0.011200 0.673600
O41 O 0.309600 0.711500 0.872800
O42 O 0.233200 0.505900 0.943800
N43 N 0.061100 0.672800 0.491600
H44 H 0.035800 0.750900 0.462900
H45 H 0.058500 0.572100 0.478000
O46 O -0.379600 0.126200 0.654200
O47 O -0.262100 -0.299100 0.800800
C48 C 0.300000 0.675300 0.942400
C49 C 0.154200 0.783000 0.976700
H50 H 0.150700 0.755300 1.024600
H51 H 0.028900 0.765600 0.955500
H52 H 0.190100 0.896400 0.971900
C53 C 0.494100 0.680400 0.976000
H54 H 0.484400 0.655200 1.023900
H55 H 0.548100 0.788400 0.971000
H56 H 0.575800 0.600900 0.954900
N57 N 0.893900 1.367800 0.424400
C58 C 0.704700 1.003500 0.215600
H59 H 0.569700 1.039500 0.214700
C60 C 1.352300 0.332600 0.368600
C61 C 0.815300 1.107100 0.167000
H62 H 0.918900 1.169000 0.190700
C63 C 1.379900 0.309700 0.436900
H64 H 1.398600 0.398000 0.466800
C65 C 0.850100 1.401200 0.359000
H66 H 0.847100 1.513000 0.348800
N67 N 0.809700 1.303900 0.305300
C68 C 0.894000 0.985900 0.113900
H69 H 1.028500 1.008900 0.103100
C70 C 1.379200 0.145100 0.460800
H71 H 1.397200 0.123200 0.507500
C72 C 0.812500 1.145000 0.326500
C73 C 0.869300 0.817600 0.147500
H74 H 0.829400 0.739100 0.111500
C75 C 1.351900 0.018900 0.415600
H76 H 1.353700 -0.088300 0.432500
C77 C 0.855800 1.090200 0.392600
C78 C 1.321800 0.042600 0.345800
H79 H 1.302900 -0.045400 0.315800
C80 C 1.053800 0.758000 0.179700
H81 H 1.126500 0.833700 0.205400
C82 C 1.321200 0.204600 0.322600
C83 C 0.896500 1.207200 0.444000
C84 C 1.123000 0.608400 0.175300
H85 H 1.044100 0.530100 0.153800
N86 N 0.849800 0.919500 0.394700
C87 C 1.293800 0.269000 0.253800
C88 C 1.314500 0.552400 0.201300
H89 H 1.379000 0.497500 0.164200
H90 H 1.390800 0.648300 0.214200
O91 O 0.714000 0.836100 0.192600
N92 N 1.310900 0.442300 0.259400
C93 C 0.802400 0.879800 0.331200
H94 H 0.784300 0.771000 0.317600
N95 N 0.781300 1.007200 0.286200
C96 C 1.352900 0.488800 0.326400
O97 O 0.690400 1.211500 0.127200
O98 O 0.766800 1.005900 0.056200
N99 N 0.938900 1.172800 0.508400
H100 H 0.964200 1.250900 0.537100
H101 H 0.941500 1.072100 0.522000
O102 O 1.379600 0.626200 0.345800
O103 O 1.262100 0.200900 0.199200
C104 C 0.700000 1.175300 0.057600
C105 C 0.845800 1.283000 0.023300
H106 H 0.849300 1.255300 -0.024600
H107 H 0.971100 1.265600 0.044500
H108 H 0.809900 1.396400 0.028100
C109 C 0.505900 1.180400 0.024000
H110 H 0.515600 1.155200 -0.023900
H111 H 0.451900 1.288400 0.029000
H112 H 0.424200 1.100900 0.045100

#END
