
#######################################################################
#
#                 Cambridge Crystallographic Data Centre
#                                CCDC 
#
#######################################################################
#
# If this CIF has been generated from an entry in the Cambridge 
# Structural Database, then it will include bibliographic, chemical, 
# crystal, experimental, refinement or atomic coordinate data resulting 
# from the CCDC's data processing and validation procedures.
#
#######################################################################

data_ACOQOA
_symmetry_cell_setting           monoclinic
_symmetry_space_group_name_H-M   'P 21/c'
_symmetry_Int_Tables_number      14
_space_group_name_Hall           '-P 2ybc'
loop_
_symmetry_equiv_pos_site_id
_symmetry_equiv_pos_as_xyz
1 x,y,z
2 -x,1/2+y,1/2-z
3 -x,-y,-z
4 x,1/2-y,1/2+z
_cell_length_a                   17.022(3)
_cell_length_b                   27.254(6)
_cell_length_c                   26.995(5)
_cell_angle_alpha                90
_cell_angle_beta                 93.55(3)
_cell_angle_gamma                90
_cell_volume                     12499.4
loop_
_atom_site_label
_atom_site_type_symbol
_atom_site_fract_x
_atom_site_fract_y
_atom_site_fract_z
Y1 Y 0.18284(4) 0.60541(2) 0.19911(2)
Cl1 Cl 0.09935(16) 0.62490(10) 0.39106(9)
O1 O 0.0954(3) 0.54924(17) 0.22550(18)
O2 O 0.1008(3) 0.62518(18) 0.13251(18)
O3 O 0.2361(3) 0.67812(17) 0.17096(17)
N1 N 0.2535(4) 0.6106(2) -0.0005(2)
O4 O 0.1010(3) 0.65620(18) 0.23943(19)
O5 O 0.4018(3) 0.68926(19) 0.11367(18)
O6 O 0.2736(3) 0.59552(18) 0.12424(19)
N2 N 0.2283(4) 0.7258(2) 0.0151(2)
N3 N 0.1526(4) 0.8161(2) 0.0696(2)
O7 O 0.2057(3) 0.5944(2) 0.2913(2)
N4 N 0.2143(4) 0.4543(2) 0.0910(3)
N5 N -0.0534(4) 0.5625(2) 0.3469(2)
N6 N -0.1363(4) 0.5092(2) 0.2148(3)
N7 N 0.3961(4) 0.5240(3) 0.2961(3)
C1 C -0.0133(6) 0.5125(3) 0.4186(3)
H1 H 0.0378 0.5153 0.4039
H2 H -0.0248 0.4779 0.4246
H3 H -0.0117 0.5305 0.4501
C2 C 0.1393(5) 0.5613(3) 0.0181(3)
H4 H 0.1686 0.5546 0.0498
H5 H 0.1170 0.5307 0.0045
H6 H 0.0967 0.5846 0.0235
C3 C 0.0379(6) 0.8318(3) 0.0137(4)
H7 H 0.0325 0.7961 0.0150
H8 H 0.0324 0.8428 -0.0209
H9 H -0.0032 0.8471 0.0325
C4 C 0.3536(5) 0.7715(3) 0.0181(3)
H10 H 0.3575 0.7588 0.0521
H11 H 0.3590 0.8073 0.0188
H12 H 0.3956 0.7573 -0.0006
C5 C -0.2177(6) 0.5470(4) 0.1520(4)
H13 H -0.1661 0.5580 0.1422
H14 H -0.2484 0.5754 0.1619
H15 H -0.2457 0.5305 0.1239
C6 C 0.1910(6) 0.4349(4) 0.0033(4)
H16 H 0.2308 0.4591 -0.0049
H17 H 0.1386 0.4497 -0.0010
H18 H 0.1939 0.4065 -0.0188
C7 C 0.3912(7) 0.4558(4) 0.3538(5)
H19 H 0.4189 0.4545 0.3867
H20 H 0.3889 0.4228 0.3394
H21 H 0.3376 0.4681 0.3569
Y2 Y 0.08672(4) 0.56691(3) 0.31471(3)
Cl2 Cl 0.16089(14) 0.49068(8) 0.35434(8)
N8 N 0.2427(3) 0.7476(2) 0.1292(2)
N9 N 0.0151(4) 0.5047(2) 0.2664(2)
N10 N 0.3096(3) 0.5985(2) 0.2478(2)
N11 N 0.1266(4) 0.6672(2) 0.0643(2)
N12 N 0.2344(4) 0.5298(2) 0.1641(2)
N13 N -0.0030(4) 0.6224(2) 0.2733(2)
N14 N 0.3739(4) 0.6600(2) 0.0384(2)
C8 C 0.1936(5) 0.5829(3) -0.0175(3)
C9 C 0.2757(5) 0.7581(3) -0.0063(3)
C10 C -0.2073(5) 0.5132(3) 0.1931(3)
C11 C 0.4351(6) 0.4900(4) 0.3203(4)
C12 C 0.1175(5) 0.8464(3) 0.0362(3)
C13 C -0.0763(5) 0.5338(3) 0.3836(3)
C14 C 0.2061(5) 0.4185(4) 0.0569(4)
Y3 Y 0.26528(4) 0.66754(2) 0.08507(2)
C15 C 0.2537(6) 0.7797(3) -0.0535(3)
H22 H 0.2893 0.8009 -0.0688
C16 C 0.2070(6) 0.3674(3) 0.0701(5)
H23 H 0.2022 0.3429 0.0450
C17 C -0.1556(6) 0.5240(4) 0.3892(4)
H24 H -0.1705 0.5019 0.4142
C18 C 0.1855(5) 0.5701(3) -0.0681(3)
H25 H 0.1428 0.5497 -0.0794
C19 C 0.1505(6) 0.8936(4) 0.0239(3)
H26 H 0.1232 0.9146 0.0006
C20 C -0.2718(5) 0.4853(4) 0.2083(4)
H27 H -0.3228 0.4896 0.1925
C21 C 0.5171(6) 0.4826(4) 0.3177(4)
H28 H 0.5434 0.4581 0.3376
C22 C 0.2192(6) 0.9072(3) 0.0456(3)
H29 H 0.2407 0.9382 0.0379
C23 C 0.2372(6) 0.5861(4) -0.1016(3)
H30 H 0.2286 0.5788 -0.1359
C24 C 0.1809(6) 0.7700(3) -0.0768(3)
H31 H 0.1654 0.7851 -0.1076
C25 C -0.2107(6) 0.5458(4) 0.3594(4)
H32 H -0.2646 0.5394 0.3638
C26 C 0.5580(6) 0.5105(4) 0.2866(4)
H33 H 0.6127 0.5054 0.2838
C27 C -0.2600(6) 0.4530(3) 0.2450(4)
H34 H -0.3031 0.4339 0.2547
C28 C 0.2146(6) 0.3546(4) 0.1181(5)
H35 H 0.2152 0.3209 0.1271
C29 C 0.2619(5) 0.8752(3) 0.0809(3)
C30 C -0.1857(5) 0.4462(3) 0.2698(3)
C31 C -0.1906(5) 0.5777(3) 0.3218(3)
C32 C 0.2220(5) 0.3930(3) 0.1570(4)
C33 C 0.1293(5) 0.7369(3) -0.0539(3)
C34 C 0.5159(5) 0.5490(4) 0.2574(3)
C35 C 0.3025(5) 0.6132(3) -0.0842(3)
C36 C 0.3333(5) 0.8889(3) 0.1058(3)
H36 H 0.3548 0.9204 0.1003
C37 C -0.2477(6) 0.6041(4) 0.2901(4)
H37 H -0.3024 0.5992 0.2934
C38 C 0.5519(6) 0.5795(4) 0.2237(4)
H38 H 0.6062 0.5759 0.2182
C39 C 0.0550(5) 0.7265(3) -0.0757(3)
H39 H 0.0394 0.7403 -0.1071
C40 C -0.1665(6) 0.4121(3) 0.3097(3)
H40 H -0.2071 0.3920 0.3214
C41 C 0.2287(6) 0.3802(3) 0.2077(4)
H41 H 0.2288 0.3469 0.2182
C42 C 0.3632(6) 0.6295(4) -0.1147(3)
H42 H 0.3594 0.6225 -0.1492
C43 C 0.2349(5) 0.4172(3) 0.2406(3)
H43 H 0.2380 0.4095 0.2750
C44 C -0.0959(6) 0.4079(4) 0.3302(4)
H44 H -0.0859 0.3851 0.3565
C45 C 0.0047(5) 0.6970(3) -0.0530(3)
H45 H -0.0456 0.6899 -0.0685
C46 C 0.3717(5) 0.8574(3) 0.1375(3)
H46 H 0.4207 0.8667 0.1536
C47 C 0.4265(6) 0.6549(4) -0.0946(3)
H47 H 0.4659 0.6659 -0.1155
C48 C -0.2233(5) 0.6353(4) 0.2563(4)
H48 H -0.2610 0.6531 0.2361
C49 C 0.5082(5) 0.6139(3) 0.1993(3)
H49 H 0.5320 0.6344 0.1759
C50 C 0.2371(5) 0.4675(3) 0.2262(3)
H50 H 0.2406 0.4927 0.2506
C51 C 0.3399(5) 0.8109(3) 0.1469(3)
H51 H 0.3675 0.7892 0.1693
C52 C -0.1427(5) 0.6422(3) 0.2500(3)
H52 H -0.1275 0.6635 0.2244
C53 C -0.0334(5) 0.4369(3) 0.3139(3)
H53 H 0.0182 0.4327 0.3287
C54 C 0.4340(5) 0.6651(3) -0.0431(3)
H54 H 0.4783 0.6829 -0.0296
C55 C 0.4283(5) 0.6203(3) 0.2075(3)
H55 H 0.3994 0.6449 0.1893
C56 C 0.0274(5) 0.6764(3) -0.0053(3)
H56 H -0.0074 0.6548 0.0101
C57 C -0.0852(5) 0.6193(3) 0.2796(3)
C58 C 0.2341(5) 0.4790(3) 0.1774(3)
C59 C 0.0982(5) 0.6875(3) 0.0182(3)
C60 C 0.3907(4) 0.5928(3) 0.2403(3)
C61 C -0.0465(5) 0.4710(3) 0.2769(3)
C62 C 0.3772(5) 0.6493(3) -0.0126(3)
C63 C 0.2695(5) 0.7969(3) 0.1241(3)
C64 C 0.1534(4) 0.7170(3) -0.0073(3)
C65 C -0.1080(5) 0.5869(3) 0.3172(3)
C66 C -0.1215(5) 0.4750(3) 0.2536(3)
C67 C 0.4342(5) 0.5545(3) 0.2652(3)
C68 C 0.2263(5) 0.8294(3) 0.0907(3)
C69 C 0.2231(4) 0.4411(3) 0.1401(3)
C70 C 0.3119(4) 0.6244(3) -0.0326(3)
C71 C 0.4275(5) 0.6718(3) 0.0732(3)
C72 C 0.0438(4) 0.5134(2) 0.2245(2)
C73 C 0.2379(5) 0.7263(3) 0.1714(3)
C74 C 0.2831(5) 0.5481(3) 0.1353(3)
C75 C 0.2809(5) 0.5993(3) 0.2912(3)
C76 C 0.0790(4) 0.6569(2) 0.0992(2)
C77 C 0.0330(4) 0.6616(3) 0.2563(3)
C78 C 0.2328(5) 0.7512(3) 0.2212(3)
C79 C -0.0001(4) 0.7125(3) 0.2601(3)
C80 C 0.0318(4) 0.4846(3) 0.1782(2)
C81 C 0.3269(5) 0.6102(3) 0.3397(3)
C82 C 0.3505(4) 0.5219(3) 0.1135(3)
C83 C 0.5149(5) 0.6640(3) 0.0710(3)
C84 C 0.0022(4) 0.6808(3) 0.1035(3)
C85 C -0.0042(5) 0.7322(3) 0.0952(3)
H57 H 0.0402 0.7507 0.0864
C86 C 0.4031(5) 0.4939(3) 0.1451(3)
H58 H 0.3960 0.4921 0.1797
C87 C 0.0205(5) 0.4344(3) 0.1806(3)
H59 H 0.0190 0.4189 0.2120
C88 C 0.2689(5) 0.7288(3) 0.2619(3)
H60 H 0.2961 0.6987 0.2585
C89 C -0.0367(5) 0.7282(3) 0.3013(3)
H61 H -0.0421 0.7065 0.3284
C90 C 0.5444(6) 0.6227(3) 0.0490(4)
H62 H 0.5094 0.5982 0.0358
C91 C 0.3919(5) 0.6427(3) 0.3407(3)
H63 H 0.4061 0.6580 0.3109
C92 C -0.0751(5) 0.7547(3) 0.1000(3)
H64 H -0.0805 0.7889 0.0939
C93 C 0.2652(6) 0.7507(3) 0.3087(3)
H65 H 0.2929 0.7368 0.3370
C94 C -0.0660(5) 0.7759(3) 0.3032(3)
H66 H -0.0916 0.7864 0.3316
C95 C 0.0114(5) 0.4063(3) 0.1373(3)
H67 H 0.0040 0.3718 0.1392
C96 C 0.4347(5) 0.6522(4) 0.3849(4)
H68 H 0.4779 0.6743 0.3856
C97 C 0.6238(6) 0.6170(5) 0.0464(5)
H69 H 0.6441 0.5894 0.0299
C98 C 0.4645(6) 0.4695(4) 0.1252(4)
H70 H 0.5002 0.4512 0.1465
C99 C 0.0133(5) 0.4286(3) 0.0928(3)
H71 H 0.0083 0.4095 0.0634
C100 C 0.2206(6) 0.7930(3) 0.3133(3)
H72 H 0.2164 0.8072 0.3452
C101 C 0.4144(6) 0.6295(4) 0.4278(4)
H73 H 0.4450 0.6354 0.4579
C102 C -0.0585(6) 0.8072(4) 0.2657(4)
H74 H -0.0789 0.8395 0.2679
C103 C 0.4753(5) 0.4708(3) 0.0757(4)
H75 H 0.5174 0.4530 0.0629
C104 C 0.6738(7) 0.6510(5) 0.0677(5)
H76 H 0.7290 0.6466 0.0668
C105 C -0.1400(5) 0.7273(4) 0.1141(3)
H77 H -0.1892 0.7433 0.1166
C106 C 0.0223(5) 0.4795(3) 0.0893(3)
H78 H 0.0218 0.4947 0.0576
C107 C -0.0211(6) 0.7931(3) 0.2231(4)
H79 H -0.0172 0.8149 0.1958
C108 C -0.1341(5) 0.6774(3) 0.1243(3)
H80 H -0.1783 0.6594 0.1343
C109 C 0.3504(6) 0.5983(4) 0.4281(4)
H81 H 0.3357 0.5840 0.4582
C110 C 0.4245(6) 0.4982(4) 0.0436(3)
H82 H 0.4318 0.4991 0.0090
C111 C 0.6449(6) 0.6919(5) 0.0907(4)
H83 H 0.6800 0.7155 0.1055
C112 C 0.1824(6) 0.8146(3) 0.2726(3)
H84 H 0.1515 0.8433 0.2763
C113 C 0.0322(5) 0.5079(3) 0.1324(3)
H85 H 0.0390 0.5424 0.1304
C114 C 0.1897(5) 0.7937(3) 0.2250(3)
H86 H 0.1653 0.8087 0.1962
C115 C 0.0105(5) 0.7450(3) 0.2225(3)
H87 H 0.0399 0.7352 0.1954
C116 C -0.0621(5) 0.6546(3) 0.1197(3)
H88 H -0.0563 0.6208 0.1277
C117 C 0.3070(5) 0.5878(3) 0.3829(3)
H89 H 0.2643 0.5654 0.3824
C118 C 0.3619(5) 0.5248(3) 0.0636(3)
H90 H 0.3281 0.5446 0.0426
C119 C 0.5656(5) 0.6980(3) 0.0921(3)
H91 H 0.5454 0.7261 0.1079
Y1 Y 0.81716(4) 0.10541(2) 0.30089(2)
Cl1 Cl 0.90065(16) 0.12490(10) 0.10894(9)
O1 O 0.9046(3) 0.04924(17) 0.27450(18)
O2 O 0.8992(3) 0.12518(18) 0.36749(18)
O3 O 0.7639(3) 0.17812(17) 0.32904(17)
N1 N 0.7465(4) 0.1106(2) 0.5005(2)
O4 O 0.8990(3) 0.15620(18) 0.26057(19)
O5 O 0.5982(3) 0.18926(19) 0.38633(18)
O6 O 0.7264(3) 0.09552(18) 0.37576(19)
N2 N 0.7717(4) 0.2258(2) 0.4849(2)
N3 N 0.8474(4) 0.3161(2) 0.4304(2)
O7 O 0.7943(3) 0.0944(2) 0.2087(2)
N4 N 0.7857(4) -0.0457(2) 0.4090(3)
N5 N 1.0534(4) 0.0625(2) 0.1531(2)
N6 N 1.1363(4) 0.0092(2) 0.2852(3)
N7 N 0.6039(4) 0.0240(3) 0.2039(3)
C1 C 1.0133(6) 0.0125(3) 0.0814(3)
H1 H 0.9622 0.0153 0.0961
H2 H 1.0248 -0.0221 0.0754
H3 H 1.0117 0.0305 0.0499
C2 C 0.8607(5) 0.0613(3) 0.4819(3)
H4 H 0.8314 0.0546 0.4502
H5 H 0.8830 0.0307 0.4955
H6 H 0.9033 0.0846 0.4765
C3 C 0.9621(6) 0.3318(3) 0.4863(4)
H7 H 0.9675 0.2961 0.4850
H8 H 0.9676 0.3428 0.5209
H9 H 1.0032 0.3471 0.4675
C4 C 0.6464(5) 0.2715(3) 0.4819(3)
H10 H 0.6425 0.2588 0.4479
H11 H 0.6410 0.3073 0.4812
H12 H 0.6044 0.2573 0.5006
C5 C 1.2177(6) 0.0470(4) 0.3480(4)
H13 H 1.1661 0.0580 0.3578
H14 H 1.2484 0.0754 0.3381
H15 H 1.2457 0.0305 0.3761
C6 C 0.8090(6) -0.0651(4) 0.4967(4)
H16 H 0.7692 -0.0409 0.5049
H17 H 0.8614 -0.0503 0.5010
H18 H 0.8061 -0.0935 0.5188
C7 C 0.6088(7) -0.0442(4) 0.1462(5)
H19 H 0.5811 -0.0455 0.1133
H20 H 0.6111 -0.0772 0.1606
H21 H 0.6624 -0.0319 0.1431
Y2 Y 0.91328(4) 0.06691(3) 0.18529(3)
Cl2 Cl 0.83911(14) -0.00932(8) 0.14566(8)
N8 N 0.7573(3) 0.2476(2) 0.3708(2)
N9 N 0.9849(4) 0.0047(2) 0.2336(2)
N10 N 0.6904(3) 0.0985(2) 0.2522(2)
N11 N 0.8734(4) 0.1672(2) 0.4357(2)
N12 N 0.7656(4) 0.0298(2) 0.3359(2)
N13 N 1.0030(4) 0.1224(2) 0.2267(2)
N14 N 0.6261(4) 0.1600(2) 0.4616(2)
C8 C 0.8064(5) 0.0829(3) 0.5175(3)
C9 C 0.7243(5) 0.2581(3) 0.5063(3)
C10 C 1.2073(5) 0.0132(3) 0.3069(3)
C11 C 0.5649(6) -0.0100(4) 0.1797(4)
C12 C 0.8825(5) 0.3464(3) 0.4638(3)
C13 C 1.0763(5) 0.0338(3) 0.1164(3)
C14 C 0.7939(5) -0.0815(4) 0.4431(4)
Y3 Y 0.73472(4) 0.16754(2) 0.41493(2)
C15 C 0.7463(6) 0.2797(3) 0.5535(3)
H22 H 0.7107 0.3009 0.5688
C16 C 0.7930(6) -0.1326(3) 0.4299(5)
H23 H 0.7978 -0.1571 0.4550
C17 C 1.1556(6) 0.0240(4) 0.1108(4)
H24 H 1.1705 0.0019 0.0858
C18 C 0.8145(5) 0.0701(3) 0.5681(3)
H25 H 0.8572 0.0497 0.5794
C19 C 0.8495(6) 0.3936(4) 0.4761(3)
H26 H 0.8768 0.4146 0.4994
C20 C 1.2718(5) -0.0147(4) 0.2917(4)
H27 H 1.3228 -0.0104 0.3075
C21 C 0.4829(6) -0.0174(4) 0.1823(4)
H28 H 0.4566 -0.0419 0.1624
C22 C 0.7808(6) 0.4072(3) 0.4544(3)
H29 H 0.7593 0.4382 0.4621
C23 C 0.7628(6) 0.0861(4) 0.6016(3)
H30 H 0.7714 0.0788 0.6359
C24 C 0.8191(6) 0.2700(3) 0.5768(3)
H31 H 0.8346 0.2851 0.6076
C25 C 1.2107(6) 0.0458(4) 0.1406(4)
H32 H 1.2646 0.0394 0.1362
C26 C 0.4420(6) 0.0105(4) 0.2134(4)
H33 H 0.3873 0.0054 0.2162
C27 C 1.2600(6) -0.0470(3) 0.2550(4)
H34 H 1.3031 -0.0661 0.2453
C28 C 0.7854(6) -0.1454(4) 0.3819(5)
H35 H 0.7848 -0.1791 0.3729
C29 C 0.7381(5) 0.3752(3) 0.4191(3)
C30 C 1.1857(5) -0.0538(3) 0.2302(3)
C31 C 1.1906(5) 0.0777(3) 0.1782(3)
C32 C 0.7780(5) -0.1070(3) 0.3430(4)
C33 C 0.8707(5) 0.2369(3) 0.5539(3)
C34 C 0.4841(5) 0.0490(4) 0.2426(3)
C35 C 0.6975(5) 0.1132(3) 0.5842(3)
C36 C 0.6667(5) 0.3889(3) 0.3942(3)
H36 H 0.6452 0.4204 0.3997
C37 C 1.2477(6) 0.1041(4) 0.2099(4)
H37 H 1.3024 0.0992 0.2066
C38 C 0.4481(6) 0.0795(4) 0.2763(4)
H38 H 0.3938 0.0759 0.2818
C39 C 0.9450(5) 0.2265(3) 0.5757(3)
H39 H 0.9606 0.2403 0.6071
C40 C 1.1665(6) -0.0879(3) 0.1903(3)
H40 H 1.2071 -0.1080 0.1786
C41 C 0.7713(6) -0.1198(3) 0.2923(4)
H41 H 0.7712 -0.1531 0.2818
C42 C 0.6368(6) 0.1295(4) 0.6147(3)
H42 H 0.6406 0.1225 0.6492
C43 C 0.7651(5) -0.0828(3) 0.2594(3)
H43 H 0.7620 -0.0905 0.2250
C44 C 1.0959(6) -0.0921(4) 0.1698(4)
H44 H 1.0859 -0.1149 0.1435
C45 C 0.9953(5) 0.1970(3) 0.5530(3)
H45 H 1.0456 0.1899 0.5685
C46 C 0.6283(5) 0.3574(3) 0.3625(3)
H46 H 0.5793 0.3667 0.3464
C47 C 0.5735(6) 0.1549(4) 0.5946(3)
H47 H 0.5341 0.1659 0.6155
C48 C 1.2233(5) 0.1353(4) 0.2437(4)
H48 H 1.2610 0.1531 0.2639
C49 C 0.4918(5) 0.1139(3) 0.3007(3)
H49 H 0.4680 0.1344 0.3241
C50 C 0.7629(5) -0.0325(3) 0.2738(3)
H50 H 0.7594 -0.0073 0.2494
C51 C 0.6601(5) 0.3109(3) 0.3531(3)
H51 H 0.6325 0.2892 0.3307
C52 C 1.1427(5) 0.1422(3) 0.2500(3)
H52 H 1.1275 0.1635 0.2756
C53 C 1.0334(5) -0.0631(3) 0.1861(3)
H53 H 0.9818 -0.0673 0.1713
C54 C 0.5660(5) 0.1651(3) 0.5431(3)
H54 H 0.5217 0.1829 0.5296
C55 C 0.5717(5) 0.1203(3) 0.2925(3)
H55 H 0.6006 0.1449 0.3107
C56 C 0.9726(5) 0.1764(3) 0.5053(3)
H56 H 1.0074 0.1548 0.4899
C57 C 1.0852(5) 0.1193(3) 0.2204(3)
C58 C 0.7659(5) -0.0210(3) 0.3226(3)
C59 C 0.9018(5) 0.1875(3) 0.4818(3)
C60 C 0.6093(4) 0.0928(3) 0.2597(3)
C61 C 1.0465(5) -0.0290(3) 0.2231(3)
C62 C 0.6228(5) 0.1493(3) 0.5126(3)
C63 C 0.7305(5) 0.2969(3) 0.3759(3)
C64 C 0.8466(4) 0.2170(3) 0.5073(3)
C65 C 1.1080(5) 0.0869(3) 0.1828(3)
C66 C 1.1215(5) -0.0250(3) 0.2464(3)
C67 C 0.5658(5) 0.0545(3) 0.2348(3)
C68 C 0.7737(5) 0.3294(3) 0.4093(3)
C69 C 0.7769(4) -0.0589(3) 0.3599(3)
C70 C 0.6881(4) 0.1244(3) 0.5326(3)
C71 C 0.5725(5) 0.1718(3) 0.4268(3)
C72 C 0.9562(4) 0.0134(2) 0.2755(2)
C73 C 0.7621(5) 0.2263(3) 0.3286(3)
C74 C 0.7169(5) 0.0481(3) 0.3647(3)
C75 C 0.7191(5) 0.0993(3) 0.2088(3)
C76 C 0.9210(4) 0.1569(2) 0.4008(2)
C77 C 0.9670(4) 0.1616(3) 0.2437(3)
C78 C 0.7672(5) 0.2512(3) 0.2788(3)
C79 C 1.0001(4) 0.2125(3) 0.2399(3)
C80 C 0.9682(4) -0.0154(3) 0.3218(2)
C81 C 0.6731(5) 0.1102(3) 0.1603(3)
C82 C 0.6495(4) 0.0219(3) 0.3865(3)
C83 C 0.4851(5) 0.1640(3) 0.4290(3)
C84 C 0.9978(4) 0.1808(3) 0.3965(3)
C85 C 1.0042(5) 0.2322(3) 0.4048(3)
H57 H 0.9598 0.2507 0.4136
C86 C 0.5969(5) -0.0061(3) 0.3549(3)
H58 H 0.6040 -0.0079 0.3203
C87 C 0.9795(5) -0.0656(3) 0.3194(3)
H59 H 0.9810 -0.0811 0.2880
C88 C 0.7311(5) 0.2288(3) 0.2381(3)
H60 H 0.7039 0.1987 0.2415
C89 C 1.0367(5) 0.2282(3) 0.1987(3)
H61 H 1.0421 0.2065 0.1716
C90 C 0.4556(6) 0.1227(3) 0.4510(4)
H62 H 0.4906 0.0982 0.4642
C91 C 0.6081(5) 0.1427(3) 0.1593(3)
H63 H 0.5939 0.1580 0.1891
C92 C 1.0751(5) 0.2547(3) 0.4000(3)
H64 H 1.0805 0.2889 0.4061
C93 C 0.7348(6) 0.2507(3) 0.1913(3)
H65 H 0.7071 0.2368 0.1630
C94 C 1.0660(5) 0.2759(3) 0.1968(3)
H66 H 1.0916 0.2864 0.1684
C95 C 0.9886(5) -0.0937(3) 0.3627(3)
H67 H 0.9960 -0.1282 0.3608
C96 C 0.5653(5) 0.1522(4) 0.1151(4)
H68 H 0.5221 0.1743 0.1144
C97 C 0.3762(6) 0.1170(5) 0.4536(5)
H69 H 0.3559 0.0894 0.4701
C98 C 0.5355(6) -0.0305(4) 0.3748(4)
H70 H 0.4998 -0.0488 0.3535
C99 C 0.9867(5) -0.0714(3) 0.4072(3)
H71 H 0.9917 -0.0905 0.4366
C100 C 0.7794(6) 0.2930(3) 0.1867(3)
H72 H 0.7836 0.3072 0.1548
C101 C 0.5856(6) 0.1295(4) 0.0722(4)
H73 H 0.5550 0.1354 0.0421
C102 C 1.0585(6) 0.3072(4) 0.2343(4)
H74 H 1.0789 0.3395 0.2321
C103 C 0.5247(5) -0.0292(3) 0.4243(4)
H75 H 0.4826 -0.0470 0.4371
C104 C 0.3262(7) 0.1510(5) 0.4323(5)
H76 H 0.2710 0.1466 0.4332
C105 C 1.1400(5) 0.2273(4) 0.3859(3)
H77 H 1.1892 0.2433 0.3834
C106 C 0.9777(5) -0.0205(3) 0.4107(3)
H78 H 0.9782 -0.0053 0.4424
C107 C 1.0211(6) 0.2931(3) 0.2769(4)
H79 H 1.0172 0.3149 0.3042
C108 C 1.1341(5) 0.1774(3) 0.3757(3)
H80 H 1.1783 0.1594 0.3657
C109 C 0.6496(6) 0.0983(4) 0.0719(4)
H81 H 0.6643 0.0840 0.0418
C110 C 0.5755(6) -0.0018(4) 0.4564(3)
H82 H 0.5682 -0.0009 0.4910
C111 C 0.3551(6) 0.1919(5) 0.4093(4)
H83 H 0.3200 0.2155 0.3945
C112 C 0.8176(6) 0.3146(3) 0.2274(3)
H84 H 0.8485 0.3433 0.2237
C113 C 0.9678(5) 0.0079(3) 0.3676(3)
H85 H 0.9610 0.0424 0.3696
C114 C 0.8103(5) 0.2937(3) 0.2750(3)
H86 H 0.8347 0.3087 0.3038
C115 C 0.9895(5) 0.2450(3) 0.2775(3)
H87 H 0.9601 0.2352 0.3046
C116 C 1.0621(5) 0.1546(3) 0.3803(3)
H88 H 1.0563 0.1208 0.3723
C117 C 0.6930(5) 0.0878(3) 0.1171(3)
H89 H 0.7357 0.0654 0.1176
C118 C 0.6381(5) 0.0248(3) 0.4364(3)
H90 H 0.6719 0.0446 0.4574
C119 C 0.4344(5) 0.1980(3) 0.4079(3)
H91 H 0.4546 0.2261 0.3921
Y1 Y 0.81716(4) 0.39459(2) 0.80089(2)
Cl1 Cl 0.90065(16) 0.37510(10) 0.60894(9)
O1 O 0.9046(3) 0.45076(17) 0.77450(18)
O2 O 0.8992(3) 0.37482(18) 0.86749(18)
O3 O 0.7639(3) 0.32188(17) 0.82904(17)
N1 N 0.7465(4) 0.3894(2) 1.0005(2)
O4 O 0.8990(3) 0.34380(18) 0.76057(19)
O5 O 0.5982(3) 0.31074(19) 0.88633(18)
O6 O 0.7264(3) 0.40448(18) 0.87576(19)
N2 N 0.7717(4) 0.2742(2) 0.9849(2)
N3 N 0.8474(4) 0.1839(2) 0.9304(2)
O7 O 0.7943(3) 0.4056(2) 0.7087(2)
N4 N 0.7857(4) 0.5457(2) 0.9090(3)
N5 N 1.0534(4) 0.4375(2) 0.6531(2)
N6 N 1.1363(4) 0.4908(2) 0.7852(3)
N7 N 0.6039(4) 0.4760(3) 0.7039(3)
C1 C 1.0133(6) 0.4875(3) 0.5814(3)
H1 H 0.9622 0.4847 0.5961
H2 H 1.0248 0.5221 0.5754
H3 H 1.0117 0.4695 0.5499
C2 C 0.8607(5) 0.4387(3) 0.9819(3)
H4 H 0.8314 0.4454 0.9502
H5 H 0.8830 0.4693 0.9955
H6 H 0.9033 0.4154 0.9765
C3 C 0.9621(6) 0.1682(3) 0.9863(4)
H7 H 0.9675 0.2039 0.9850
H8 H 0.9676 0.1572 1.0209
H9 H 1.0032 0.1529 0.9675
C4 C 0.6464(5) 0.2285(3) 0.9819(3)
H10 H 0.6425 0.2412 0.9479
H11 H 0.6410 0.1927 0.9812
H12 H 0.6044 0.2427 1.0006
C5 C 1.2177(6) 0.4530(4) 0.8480(4)
H13 H 1.1661 0.4420 0.8578
H14 H 1.2484 0.4246 0.8381
H15 H 1.2457 0.4695 0.8761
C6 C 0.8090(6) 0.5651(4) 0.9967(4)
H16 H 0.7692 0.5409 1.0049
H17 H 0.8614 0.5503 1.0010
H18 H 0.8061 0.5935 1.0188
C7 C 0.6088(7) 0.5442(4) 0.6462(5)
H19 H 0.5811 0.5455 0.6133
H20 H 0.6111 0.5772 0.6606
H21 H 0.6624 0.5319 0.6431
Y2 Y 0.91328(4) 0.43309(3) 0.68529(3)
Cl2 Cl 0.83911(14) 0.50932(8) 0.64566(8)
N8 N 0.7573(3) 0.2524(2) 0.8708(2)
N9 N 0.9849(4) 0.4953(2) 0.7336(2)
N10 N 0.6904(3) 0.4015(2) 0.7522(2)
N11 N 0.8734(4) 0.3328(2) 0.9357(2)
N12 N 0.7656(4) 0.4702(2) 0.8359(2)
N13 N 1.0030(4) 0.3776(2) 0.7267(2)
N14 N 0.6261(4) 0.3400(2) 0.9616(2)
C8 C 0.8064(5) 0.4171(3) 1.0175(3)
C9 C 0.7243(5) 0.2419(3) 1.0063(3)
C10 C 1.2073(5) 0.4868(3) 0.8069(3)
C11 C 0.5649(6) 0.5100(4) 0.6797(4)
C12 C 0.8825(5) 0.1536(3) 0.9638(3)
C13 C 1.0763(5) 0.4662(3) 0.6164(3)
C14 C 0.7939(5) 0.5815(4) 0.9431(4)
Y3 Y 0.73472(4) 0.33246(2) 0.91493(2)
C15 C 0.7463(6) 0.2203(3) 1.0535(3)
H22 H 0.7107 0.1991 1.0688
C16 C 0.7930(6) 0.6326(3) 0.9299(5)
H23 H 0.7978 0.6571 0.9550
C17 C 1.1556(6) 0.4760(4) 0.6108(4)
H24 H 1.1705 0.4981 0.5858
C18 C 0.8145(5) 0.4299(3) 1.0681(3)
H25 H 0.8572 0.4503 1.0794
C19 C 0.8495(6) 0.1064(4) 0.9761(3)
H26 H 0.8768 0.0854 0.9994
C20 C 1.2718(5) 0.5147(4) 0.7917(4)
H27 H 1.3228 0.5104 0.8075
C21 C 0.4829(6) 0.5174(4) 0.6823(4)
H28 H 0.4566 0.5419 0.6624
C22 C 0.7808(6) 0.0928(3) 0.9544(3)
H29 H 0.7593 0.0618 0.9621
C23 C 0.7628(6) 0.4139(4) 1.1016(3)
H30 H 0.7714 0.4212 1.1359
C24 C 0.8191(6) 0.2300(3) 1.0768(3)
H31 H 0.8346 0.2149 1.1076
C25 C 1.2107(6) 0.4542(4) 0.6406(4)
H32 H 1.2646 0.4606 0.6362
C26 C 0.4420(6) 0.4895(4) 0.7134(4)
H33 H 0.3873 0.4946 0.7162
C27 C 1.2600(6) 0.5470(3) 0.7550(4)
H34 H 1.3031 0.5661 0.7453
C28 C 0.7854(6) 0.6454(4) 0.8819(5)
H35 H 0.7848 0.6791 0.8729
C29 C 0.7381(5) 0.1248(3) 0.9191(3)
C30 C 1.1857(5) 0.5538(3) 0.7302(3)
C31 C 1.1906(5) 0.4223(3) 0.6782(3)
C32 C 0.7780(5) 0.6070(3) 0.8430(4)
C33 C 0.8707(5) 0.2631(3) 1.0539(3)
C34 C 0.4841(5) 0.4510(4) 0.7426(3)
C35 C 0.6975(5) 0.3868(3) 1.0842(3)
C36 C 0.6667(5) 0.1111(3) 0.8942(3)
H36 H 0.6452 0.0796 0.8997
C37 C 1.2477(6) 0.3959(4) 0.7099(4)
H37 H 1.3024 0.4008 0.7066
C38 C 0.4481(6) 0.4205(4) 0.7763(4)
H38 H 0.3938 0.4241 0.7818
C39 C 0.9450(5) 0.2735(3) 1.0757(3)
H39 H 0.9606 0.2597 1.1071
C40 C 1.1665(6) 0.5879(3) 0.6903(3)
H40 H 1.2071 0.6080 0.6786
C41 C 0.7713(6) 0.6198(3) 0.7923(4)
H41 H 0.7712 0.6531 0.7818
C42 C 0.6368(6) 0.3705(4) 1.1147(3)
H42 H 0.6406 0.3775 1.1492
C43 C 0.7651(5) 0.5828(3) 0.7594(3)
H43 H 0.7620 0.5905 0.7250
C44 C 1.0959(6) 0.5921(4) 0.6698(4)
H44 H 1.0859 0.6149 0.6435
C45 C 0.9953(5) 0.3030(3) 1.0530(3)
H45 H 1.0456 0.3101 1.0685
C46 C 0.6283(5) 0.1426(3) 0.8625(3)
H46 H 0.5793 0.1333 0.8464
C47 C 0.5735(6) 0.3451(4) 1.0946(3)
H47 H 0.5341 0.3341 1.1155
C48 C 1.2233(5) 0.3647(4) 0.7437(4)
H48 H 1.2610 0.3469 0.7639
C49 C 0.4918(5) 0.3861(3) 0.8007(3)
H49 H 0.4680 0.3656 0.8241
C50 C 0.7629(5) 0.5325(3) 0.7738(3)
H50 H 0.7594 0.5073 0.7494
C51 C 0.6601(5) 0.1891(3) 0.8531(3)
H51 H 0.6325 0.2108 0.8307
C52 C 1.1427(5) 0.3578(3) 0.7500(3)
H52 H 1.1275 0.3365 0.7756
C53 C 1.0334(5) 0.5631(3) 0.6861(3)
H53 H 0.9818 0.5673 0.6713
C54 C 0.5660(5) 0.3349(3) 1.0431(3)
H54 H 0.5217 0.3171 1.0296
C55 C 0.5717(5) 0.3797(3) 0.7925(3)
H55 H 0.6006 0.3551 0.8107
C56 C 0.9726(5) 0.3236(3) 1.0053(3)
H56 H 1.0074 0.3452 0.9899
C57 C 1.0852(5) 0.3807(3) 0.7204(3)
C58 C 0.7659(5) 0.5210(3) 0.8226(3)
C59 C 0.9018(5) 0.3125(3) 0.9818(3)
C60 C 0.6093(4) 0.4072(3) 0.7597(3)
C61 C 1.0465(5) 0.5290(3) 0.7231(3)
C62 C 0.6228(5) 0.3507(3) 1.0126(3)
C63 C 0.7305(5) 0.2031(3) 0.8759(3)
C64 C 0.8466(4) 0.2830(3) 1.0073(3)
C65 C 1.1080(5) 0.4131(3) 0.6828(3)
C66 C 1.1215(5) 0.5250(3) 0.7464(3)
C67 C 0.5658(5) 0.4455(3) 0.7348(3)
C68 C 0.7737(5) 0.1706(3) 0.9093(3)
C69 C 0.7769(4) 0.5589(3) 0.8599(3)
C70 C 0.6881(4) 0.3756(3) 1.0326(3)
C71 C 0.5725(5) 0.3282(3) 0.9268(3)
C72 C 0.9562(4) 0.4866(2) 0.7755(2)
C73 C 0.7621(5) 0.2737(3) 0.8286(3)
C74 C 0.7169(5) 0.4519(3) 0.8647(3)
C75 C 0.7191(5) 0.4007(3) 0.7088(3)
C76 C 0.9210(4) 0.3431(2) 0.9008(2)
C77 C 0.9670(4) 0.3384(3) 0.7437(3)
C78 C 0.7672(5) 0.2488(3) 0.7788(3)
C79 C 1.0001(4) 0.2875(3) 0.7399(3)
C80 C 0.9682(4) 0.5154(3) 0.8218(2)
C81 C 0.6731(5) 0.3898(3) 0.6603(3)
C82 C 0.6495(4) 0.4781(3) 0.8865(3)
C83 C 0.4851(5) 0.3360(3) 0.9290(3)
C84 C 0.9978(4) 0.3192(3) 0.8965(3)
C85 C 1.0042(5) 0.2678(3) 0.9048(3)
H57 H 0.9598 0.2493 0.9136
C86 C 0.5969(5) 0.5061(3) 0.8549(3)
H58 H 0.6040 0.5079 0.8203
C87 C 0.9795(5) 0.5656(3) 0.8194(3)
H59 H 0.9810 0.5811 0.7880
C88 C 0.7311(5) 0.2712(3) 0.7381(3)
H60 H 0.7039 0.3013 0.7415
C89 C 1.0367(5) 0.2718(3) 0.6987(3)
H61 H 1.0421 0.2935 0.6716
C90 C 0.4556(6) 0.3773(3) 0.9510(4)
H62 H 0.4906 0.4018 0.9642
C91 C 0.6081(5) 0.3573(3) 0.6593(3)
H63 H 0.5939 0.3420 0.6891
C92 C 1.0751(5) 0.2453(3) 0.9000(3)
H64 H 1.0805 0.2111 0.9061
C93 C 0.7348(6) 0.2493(3) 0.6913(3)
H65 H 0.7071 0.2632 0.6630
C94 C 1.0660(5) 0.2241(3) 0.6968(3)
H66 H 1.0916 0.2136 0.6684
C95 C 0.9886(5) 0.5937(3) 0.8627(3)
H67 H 0.9960 0.6282 0.8608
C96 C 0.5653(5) 0.3478(4) 0.6151(4)
H68 H 0.5221 0.3257 0.6144
C97 C 0.3762(6) 0.3830(5) 0.9536(5)
H69 H 0.3559 0.4106 0.9701
C98 C 0.5355(6) 0.5305(4) 0.8748(4)
H70 H 0.4998 0.5488 0.8535
C99 C 0.9867(5) 0.5714(3) 0.9072(3)
H71 H 0.9917 0.5905 0.9366
C100 C 0.7794(6) 0.2070(3) 0.6867(3)
H72 H 0.7836 0.1928 0.6548
C101 C 0.5856(6) 0.3705(4) 0.5722(4)
H73 H 0.5550 0.3646 0.5421
C102 C 1.0585(6) 0.1928(4) 0.7343(4)
H74 H 1.0789 0.1605 0.7321
C103 C 0.5247(5) 0.5292(3) 0.9243(4)
H75 H 0.4826 0.5470 0.9371
C104 C 0.3262(7) 0.3490(5) 0.9323(5)
H76 H 0.2710 0.3534 0.9332
C105 C 1.1400(5) 0.2727(4) 0.8859(3)
H77 H 1.1892 0.2567 0.8834
C106 C 0.9777(5) 0.5205(3) 0.9107(3)
H78 H 0.9782 0.5053 0.9424
C107 C 1.0211(6) 0.2069(3) 0.7769(4)
H79 H 1.0172 0.1851 0.8042
C108 C 1.1341(5) 0.3226(3) 0.8757(3)
H80 H 1.1783 0.3406 0.8657
C109 C 0.6496(6) 0.4017(4) 0.5719(4)
H81 H 0.6643 0.4160 0.5418
C110 C 0.5755(6) 0.5018(4) 0.9564(3)
H82 H 0.5682 0.5009 0.9910
C111 C 0.3551(6) 0.3081(5) 0.9093(4)
H83 H 0.3200 0.2845 0.8945
C112 C 0.8176(6) 0.1854(3) 0.7274(3)
H84 H 0.8485 0.1567 0.7237
C113 C 0.9678(5) 0.4921(3) 0.8676(3)
H85 H 0.9610 0.4576 0.8696
C114 C 0.8103(5) 0.2063(3) 0.7750(3)
H86 H 0.8347 0.1913 0.8038
C115 C 0.9895(5) 0.2550(3) 0.7775(3)
H87 H 0.9601 0.2648 0.8046
C116 C 1.0621(5) 0.3454(3) 0.8803(3)
H88 H 1.0563 0.3792 0.8723
C117 C 0.6930(5) 0.4122(3) 0.6171(3)
H89 H 0.7357 0.4346 0.6176
C118 C 0.6381(5) 0.4752(3) 0.9364(3)
H90 H 0.6719 0.4554 0.9574
C119 C 0.4344(5) 0.3020(3) 0.9079(3)
H91 H 0.4546 0.2739 0.8921
Y1 Y 0.18284(4) 0.89459(2) 0.69911(2)
Cl1 Cl 0.09935(16) 0.87510(10) 0.89106(9)
O1 O 0.0954(3) 0.95076(17) 0.72550(18)
O2 O 0.1008(3) 0.87482(18) 0.63251(18)
O3 O 0.2361(3) 0.82188(17) 0.67096(17)
N1 N 0.2535(4) 0.8894(2) 0.4995(2)
O4 O 0.1010(3) 0.84380(18) 0.73943(19)
O5 O 0.4018(3) 0.81074(19) 0.61367(18)
O6 O 0.2736(3) 0.90448(18) 0.62424(19)
N2 N 0.2283(4) 0.7742(2) 0.5151(2)
N3 N 0.1526(4) 0.6839(2) 0.5696(2)
O7 O 0.2057(3) 0.9056(2) 0.7913(2)
N4 N 0.2143(4) 1.0457(2) 0.5910(3)
N5 N -0.0534(4) 0.9375(2) 0.8469(2)
N6 N -0.1363(4) 0.9908(2) 0.7148(3)
N7 N 0.3961(4) 0.9760(3) 0.7961(3)
C1 C -0.0133(6) 0.9875(3) 0.9186(3)
H1 H 0.0378 0.9847 0.9039
H2 H -0.0248 1.0221 0.9246
H3 H -0.0117 0.9695 0.9501
C2 C 0.1393(5) 0.9387(3) 0.5181(3)
H4 H 0.1686 0.9454 0.5498
H5 H 0.1170 0.9693 0.5045
H6 H 0.0967 0.9154 0.5235
C3 C 0.0379(6) 0.6682(3) 0.5137(4)
H7 H 0.0325 0.7039 0.5150
H8 H 0.0324 0.6572 0.4791
H9 H -0.0032 0.6529 0.5325
C4 C 0.3536(5) 0.7285(3) 0.5181(3)
H10 H 0.3575 0.7412 0.5521
H11 H 0.3590 0.6927 0.5188
H12 H 0.3956 0.7427 0.4994
C5 C -0.2177(6) 0.9530(4) 0.6520(4)
H13 H -0.1661 0.9420 0.6422
H14 H -0.2484 0.9246 0.6619
H15 H -0.2457 0.9695 0.6239
C6 C 0.1910(6) 1.0651(4) 0.5033(4)
H16 H 0.2308 1.0409 0.4951
H17 H 0.1386 1.0503 0.4990
H18 H 0.1939 1.0935 0.4812
C7 C 0.3912(7) 1.0442(4) 0.8538(5)
H19 H 0.4189 1.0455 0.8867
H20 H 0.3889 1.0772 0.8394
H21 H 0.3376 1.0319 0.8569
Y2 Y 0.08672(4) 0.93309(3) 0.81471(3)
Cl2 Cl 0.16089(14) 1.00932(8) 0.85434(8)
N8 N 0.2427(3) 0.7524(2) 0.6292(2)
N9 N 0.0151(4) 0.9953(2) 0.7664(2)
N10 N 0.3096(3) 0.9015(2) 0.7478(2)
N11 N 0.1266(4) 0.8328(2) 0.5643(2)
N12 N 0.2344(4) 0.9702(2) 0.6641(2)
N13 N -0.0030(4) 0.8776(2) 0.7733(2)
N14 N 0.3739(4) 0.8400(2) 0.5384(2)
C8 C 0.1936(5) 0.9171(3) 0.4825(3)
C9 C 0.2757(5) 0.7419(3) 0.4937(3)
C10 C -0.2073(5) 0.9868(3) 0.6931(3)
C11 C 0.4351(6) 1.0100(4) 0.8203(4)
C12 C 0.1175(5) 0.6536(3) 0.5362(3)
C13 C -0.0763(5) 0.9662(3) 0.8836(3)
C14 C 0.2061(5) 1.0815(4) 0.5569(4)
Y3 Y 0.26528(4) 0.83246(2) 0.58507(2)
C15 C 0.2537(6) 0.7203(3) 0.4465(3)
H22 H 0.2893 0.6991 0.4312
C16 C 0.2070(6) 1.1326(3) 0.5701(5)
H23 H 0.2022 1.1571 0.5450
C17 C -0.1556(6) 0.9760(4) 0.8892(4)
H24 H -0.1705 0.9981 0.9142
C18 C 0.1855(5) 0.9299(3) 0.4319(3)
H25 H 0.1428 0.9503 0.4206
C19 C 0.1505(6) 0.6064(4) 0.5239(3)
H26 H 0.1232 0.5854 0.5006
C20 C -0.2718(5) 1.0147(4) 0.7083(4)
H27 H -0.3228 1.0104 0.6925
C21 C 0.5171(6) 1.0174(4) 0.8177(4)
H28 H 0.5434 1.0419 0.8376
C22 C 0.2192(6) 0.5928(3) 0.5456(3)
H29 H 0.2407 0.5618 0.5379
C23 C 0.2372(6) 0.9139(4) 0.3984(3)
H30 H 0.2286 0.9212 0.3641
C24 C 0.1809(6) 0.7300(3) 0.4232(3)
H31 H 0.1654 0.7149 0.3924
C25 C -0.2107(6) 0.9542(4) 0.8594(4)
H32 H -0.2646 0.9606 0.8638
C26 C 0.5580(6) 0.9895(4) 0.7866(4)
H33 H 0.6127 0.9946 0.7838
C27 C -0.2600(6) 1.0470(3) 0.7450(4)
H34 H -0.3031 1.0661 0.7547
C28 C 0.2146(6) 1.1454(4) 0.6181(5)
H35 H 0.2152 1.1791 0.6271
C29 C 0.2619(5) 0.6248(3) 0.5809(3)
C30 C -0.1857(5) 1.0538(3) 0.7698(3)
C31 C -0.1906(5) 0.9223(3) 0.8218(3)
C32 C 0.2220(5) 1.1070(3) 0.6570(4)
C33 C 0.1293(5) 0.7631(3) 0.4461(3)
C34 C 0.5159(5) 0.9510(4) 0.7574(3)
C35 C 0.3025(5) 0.8868(3) 0.4158(3)
C36 C 0.3333(5) 0.6111(3) 0.6058(3)
H36 H 0.3548 0.5796 0.6003
C37 C -0.2477(6) 0.8959(4) 0.7901(4)
H37 H -0.3024 0.9008 0.7934
C38 C 0.5519(6) 0.9205(4) 0.7237(4)
H38 H 0.6062 0.9241 0.7182
C39 C 0.0550(5) 0.7735(3) 0.4243(3)
H39 H 0.0394 0.7597 0.3929
C40 C -0.1665(6) 1.0879(3) 0.8097(3)
H40 H -0.2071 1.1080 0.8214
C41 C 0.2287(6) 1.1198(3) 0.7077(4)
H41 H 0.2288 1.1531 0.7182
C42 C 0.3632(6) 0.8705(4) 0.3853(3)
H42 H 0.3594 0.8775 0.3508
C43 C 0.2349(5) 1.0828(3) 0.7406(3)
H43 H 0.2380 1.0905 0.7750
C44 C -0.0959(6) 1.0921(4) 0.8302(4)
H44 H -0.0859 1.1149 0.8565
C45 C 0.0047(5) 0.8030(3) 0.4470(3)
H45 H -0.0456 0.8101 0.4315
C46 C 0.3717(5) 0.6426(3) 0.6375(3)
H46 H 0.4207 0.6333 0.6536
C47 C 0.4265(6) 0.8451(4) 0.4054(3)
H47 H 0.4659 0.8341 0.3845
C48 C -0.2233(5) 0.8647(4) 0.7563(4)
H48 H -0.2610 0.8469 0.7361
C49 C 0.5082(5) 0.8861(3) 0.6993(3)
H49 H 0.5320 0.8656 0.6759
C50 C 0.2371(5) 1.0325(3) 0.7262(3)
H50 H 0.2406 1.0073 0.7506
C51 C 0.3399(5) 0.6891(3) 0.6469(3)
H51 H 0.3675 0.7108 0.6693
C52 C -0.1427(5) 0.8578(3) 0.7500(3)
H52 H -0.1275 0.8365 0.7244
C53 C -0.0334(5) 1.0631(3) 0.8139(3)
H53 H 0.0182 1.0673 0.8287
C54 C 0.4340(5) 0.8349(3) 0.4569(3)
H54 H 0.4783 0.8171 0.4704
C55 C 0.4283(5) 0.8797(3) 0.7075(3)
H55 H 0.3994 0.8551 0.6893
C56 C 0.0274(5) 0.8236(3) 0.4947(3)
H56 H -0.0074 0.8452 0.5101
C57 C -0.0852(5) 0.8807(3) 0.7796(3)
C58 C 0.2341(5) 1.0210(3) 0.6774(3)
C59 C 0.0982(5) 0.8125(3) 0.5182(3)
C60 C 0.3907(4) 0.9072(3) 0.7403(3)
C61 C -0.0465(5) 1.0290(3) 0.7769(3)
C62 C 0.3772(5) 0.8507(3) 0.4874(3)
C63 C 0.2695(5) 0.7031(3) 0.6241(3)
C64 C 0.1534(4) 0.7830(3) 0.4927(3)
C65 C -0.1080(5) 0.9131(3) 0.8172(3)
C66 C -0.1215(5) 1.0250(3) 0.7536(3)
C67 C 0.4342(5) 0.9455(3) 0.7652(3)
C68 C 0.2263(5) 0.6706(3) 0.5907(3)
C69 C 0.2231(4) 1.0589(3) 0.6401(3)
C70 C 0.3119(4) 0.8756(3) 0.4674(3)
C71 C 0.4275(5) 0.8282(3) 0.5732(3)
C72 C 0.0438(4) 0.9866(2) 0.7245(2)
C73 C 0.2379(5) 0.7737(3) 0.6714(3)
C74 C 0.2831(5) 0.9519(3) 0.6353(3)
C75 C 0.2809(5) 0.9007(3) 0.7912(3)
C76 C 0.0790(4) 0.8431(2) 0.5992(2)
C77 C 0.0330(4) 0.8384(3) 0.7563(3)
C78 C 0.2328(5) 0.7488(3) 0.7212(3)
C79 C -0.0001(4) 0.7875(3) 0.7601(3)
C80 C 0.0318(4) 1.0154(3) 0.6782(2)
C81 C 0.3269(5) 0.8898(3) 0.8397(3)
C82 C 0.3505(4) 0.9781(3) 0.6135(3)
C83 C 0.5149(5) 0.8360(3) 0.5710(3)
C84 C 0.0022(4) 0.8192(3) 0.6035(3)
C85 C -0.0042(5) 0.7678(3) 0.5952(3)
H57 H 0.0402 0.7493 0.5864
C86 C 0.4031(5) 1.0061(3) 0.6451(3)
H58 H 0.3960 1.0079 0.6797
C87 C 0.0205(5) 1.0656(3) 0.6806(3)
H59 H 0.0190 1.0811 0.7120
C88 C 0.2689(5) 0.7712(3) 0.7619(3)
H60 H 0.2961 0.8013 0.7585
C89 C -0.0367(5) 0.7718(3) 0.8013(3)
H61 H -0.0421 0.7935 0.8284
C90 C 0.5444(6) 0.8773(3) 0.5490(4)
H62 H 0.5094 0.9018 0.5358
C91 C 0.3919(5) 0.8573(3) 0.8407(3)
H63 H 0.4061 0.8420 0.8109
C92 C -0.0751(5) 0.7453(3) 0.6000(3)
H64 H -0.0805 0.7111 0.5939
C93 C 0.2652(6) 0.7493(3) 0.8087(3)
H65 H 0.2929 0.7632 0.8370
C94 C -0.0660(5) 0.7241(3) 0.8032(3)
H66 H -0.0916 0.7136 0.8316
C95 C 0.0114(5) 1.0937(3) 0.6373(3)
H67 H 0.0040 1.1282 0.6392
C96 C 0.4347(5) 0.8478(4) 0.8849(4)
H68 H 0.4779 0.8257 0.8856
C97 C 0.6238(6) 0.8830(5) 0.5464(5)
H69 H 0.6441 0.9106 0.5299
C98 C 0.4645(6) 1.0305(4) 0.6252(4)
H70 H 0.5002 1.0488 0.6465
C99 C 0.0133(5) 1.0714(3) 0.5928(3)
H71 H 0.0083 1.0905 0.5634
C100 C 0.2206(6) 0.7070(3) 0.8133(3)
H72 H 0.2164 0.6928 0.8452
C101 C 0.4144(6) 0.8705(4) 0.9278(4)
H73 H 0.4450 0.8646 0.9579
C102 C -0.0585(6) 0.6928(4) 0.7657(4)
H74 H -0.0789 0.6605 0.7679
C103 C 0.4753(5) 1.0292(3) 0.5757(4)
H75 H 0.5174 1.0470 0.5629
C104 C 0.6738(7) 0.8490(5) 0.5677(5)
H76 H 0.7290 0.8534 0.5668
C105 C -0.1400(5) 0.7727(4) 0.6141(3)
H77 H -0.1892 0.7567 0.6166
C106 C 0.0223(5) 1.0205(3) 0.5893(3)
H78 H 0.0218 1.0053 0.5576
C107 C -0.0211(6) 0.7069(3) 0.7231(4)
H79 H -0.0172 0.6851 0.6958
C108 C -0.1341(5) 0.8226(3) 0.6243(3)
H80 H -0.1783 0.8406 0.6343
C109 C 0.3504(6) 0.9017(4) 0.9281(4)
H81 H 0.3357 0.9160 0.9582
C110 C 0.4245(6) 1.0018(4) 0.5436(3)
H82 H 0.4318 1.0009 0.5090
C111 C 0.6449(6) 0.8081(5) 0.5907(4)
H83 H 0.6800 0.7845 0.6055
C112 C 0.1824(6) 0.6854(3) 0.7726(3)
H84 H 0.1515 0.6567 0.7763
C113 C 0.0322(5) 0.9921(3) 0.6324(3)
H85 H 0.0390 0.9576 0.6304
C114 C 0.1897(5) 0.7063(3) 0.7250(3)
H86 H 0.1653 0.6913 0.6962
C115 C 0.0105(5) 0.7550(3) 0.7225(3)
H87 H 0.0399 0.7648 0.6954
C116 C -0.0621(5) 0.8454(3) 0.6197(3)
H88 H -0.0563 0.8792 0.6277
C117 C 0.3070(5) 0.9122(3) 0.8829(3)
H89 H 0.2643 0.9346 0.8824
C118 C 0.3619(5) 0.9752(3) 0.5636(3)
H90 H 0.3281 0.9554 0.5426
C119 C 0.5656(5) 0.8020(3) 0.5921(3)
H91 H 0.5454 0.7739 0.6079

#END
