./ACOQOA_from_xyz.cif_generated_by_CrystalShift
_symmetry_cell_setting triclinic
_symmetry_space_group_name_H-M 'P 1'
loop_
_symmetry_equiv_pos_site_id
_symmetry_equiv_pos_as_xyz
1 x,y,z
_cell_length_a 17.022000
_cell_length_b 27.254000
_cell_length_c 26.995000
_cell_angle_alpha 90.000000
_cell_angle_beta 93.550000
_cell_angle_gamma 90.000000
_cell_volume 12499.424357
loop_
_atom_site_label
_atom_site_type_symbol
_atom_site_fract_x
_atom_site_fract_y
_atom_site_fract_z
Y1 Y 0.182840 0.605410 0.199110
Cl2 Cl 0.099350 0.624900 0.391060
O3 O 0.095400 0.549240 0.225500
O4 O 0.100800 0.625180 0.132510
O5 O 0.236100 0.678120 0.170960
N6 N 0.253500 0.610600 -0.000500
O7 O 0.101000 0.656200 0.239430
O8 O 0.401800 0.689260 0.113670
O9 O 0.273600 0.595520 0.124240
N10 N 0.228300 0.725800 0.015100
N11 N 0.152600 0.816100 0.069600
O12 O 0.205700 0.594400 0.291300
N13 N 0.214300 0.454300 0.091000
N14 N -0.053400 0.562500 0.346900
N15 N -0.136300 0.509200 0.214800
N16 N 0.396100 0.524000 0.296100
C17 C -0.013300 0.512500 0.418600
H18 H 0.037800 0.515300 0.403900
H19 H -0.024800 0.477900 0.424600
H20 H -0.011700 0.530500 0.450100
C21 C 0.139300 0.561300 0.018100
H22 H 0.168600 0.554600 0.049800
H23 H 0.117000 0.530700 0.004500
H24 H 0.096700 0.584600 0.023500
C25 C 0.037900 0.831800 0.013700
H26 H 0.032500 0.796100 0.015000
H27 H 0.032400 0.842800 -0.020900
H28 H -0.003200 0.847100 0.032500
C29 C 0.353600 0.771500 0.018100
H30 H 0.357500 0.758800 0.052100
H31 H 0.359000 0.807300 0.018800
H32 H 0.395600 0.757300 -0.000600
C33 C -0.217700 0.547000 0.152000
H34 H -0.166100 0.558000 0.142200
H35 H -0.248400 0.575400 0.161900
H36 H -0.245700 0.530500 0.123900
C37 C 0.191000 0.434900 0.003300
H38 H 0.230800 0.459100 -0.004900
H39 H 0.138600 0.449700 -0.001000
H40 H 0.193900 0.406500 -0.018800
C41 C 0.391200 0.455800 0.353800
H42 H 0.418900 0.454500 0.386700
H43 H 0.388900 0.422800 0.339400
H44 H 0.337600 0.468100 0.356900
Y45 Y 0.086720 0.566910 0.314710
Cl46 Cl 0.160890 0.490680 0.354340
N47 N 0.242700 0.747600 0.129200
N48 N 0.015100 0.504700 0.266400
N49 N 0.309600 0.598500 0.247800
N50 N 0.126600 0.667200 0.064300
N51 N 0.234400 0.529800 0.164100
N52 N -0.003000 0.622400 0.273300
N53 N 0.373900 0.660000 0.038400
C54 C 0.193600 0.582900 -0.017500
C55 C 0.275700 0.758100 -0.006300
C56 C -0.207300 0.513200 0.193100
C57 C 0.435100 0.490000 0.320300
C58 C 0.117500 0.846400 0.036200
C59 C -0.076300 0.533800 0.383600
C60 C 0.206100 0.418500 0.056900
Y61 Y 0.265280 0.667540 0.085070
C62 C 0.253700 0.779700 -0.053500
H63 H 0.289300 0.800900 -0.068800
C64 C 0.207000 0.367400 0.070100
H65 H 0.202200 0.342900 0.045000
C66 C -0.155600 0.524000 0.389200
H67 H -0.170500 0.501900 0.414200
C68 C 0.185500 0.570100 -0.068100
H69 H 0.142800 0.549700 -0.079400
C70 C 0.150500 0.893600 0.023900
H71 H 0.123200 0.914600 0.000600
C72 C -0.271800 0.485300 0.208300
H73 H -0.322800 0.489600 0.192500
C74 C 0.517100 0.482600 0.317700
H75 H 0.543400 0.458100 0.337600
C76 C 0.219200 0.907200 0.045600
H77 H 0.240700 0.938200 0.037900
C78 C 0.237200 0.586100 -0.101600
H79 H 0.228600 0.578800 -0.135900
C80 C 0.180900 0.770000 -0.076800
H81 H 0.165400 0.785100 -0.107600
C82 C -0.210700 0.545800 0.359400
H83 H -0.264600 0.539400 0.363800
C84 C 0.558000 0.510500 0.286600
H85 H 0.612700 0.505400 0.283800
C86 C -0.260000 0.453000 0.245000
H87 H -0.303100 0.433900 0.254700
C88 C 0.214600 0.354600 0.118100
H89 H 0.215200 0.320900 0.127100
C90 C 0.261900 0.875200 0.080900
C91 C -0.185700 0.446200 0.269800
C92 C -0.190600 0.577700 0.321800
C93 C 0.222000 0.393000 0.157000
C94 C 0.129300 0.736900 -0.053900
C95 C 0.515900 0.549000 0.257400
C96 C 0.302500 0.613200 -0.084200
C97 C 0.333300 0.888900 0.105800
H98 H 0.354800 0.920400 0.100300
C99 C -0.247700 0.604100 0.290100
H100 H -0.302400 0.599200 0.293400
C101 C 0.551900 0.579500 0.223700
H102 H 0.606200 0.575900 0.218200
C103 C 0.055000 0.726500 -0.075700
H104 H 0.039400 0.740300 -0.107100
C105 C -0.166500 0.412100 0.309700
H106 H -0.207100 0.392000 0.321400
C107 C 0.228700 0.380200 0.207700
H108 H 0.228800 0.346900 0.218200
C109 C 0.363200 0.629500 -0.114700
H110 H 0.359400 0.622500 -0.149200
C111 C 0.234900 0.417200 0.240600
H112 H 0.238000 0.409500 0.275000
C113 C -0.095900 0.407900 0.330200
H114 H -0.085900 0.385100 0.356500
C115 C 0.004700 0.697000 -0.053000
H116 H -0.045600 0.689900 -0.068500
C117 C 0.371700 0.857400 0.137500
H118 H 0.420700 0.866700 0.153600
C119 C 0.426500 0.654900 -0.094600
H120 H 0.465900 0.665900 -0.115500
C121 C -0.223300 0.635300 0.256300
H122 H -0.261000 0.653100 0.236100
C123 C 0.508200 0.613900 0.199300
H124 H 0.532000 0.634400 0.175900
C125 C 0.237100 0.467500 0.226200
H126 H 0.240600 0.492700 0.250600
C127 C 0.339900 0.810900 0.146900
H128 H 0.367500 0.789200 0.169300
C129 C -0.142700 0.642200 0.250000
H130 H -0.127500 0.663500 0.224400
C131 C -0.033400 0.436900 0.313900
H132 H 0.018200 0.432700 0.328700
C133 C 0.434000 0.665100 -0.043100
H134 H 0.478300 0.682900 -0.029600
C135 C 0.428300 0.620300 0.207500
H136 H 0.399400 0.644900 0.189300
C137 C 0.027400 0.676400 -0.005300
H138 H -0.007400 0.654800 0.010100
C139 C -0.085200 0.619300 0.279600
C140 C 0.234100 0.479000 0.177400
C141 C 0.098200 0.687500 0.018200
C142 C 0.390700 0.592800 0.240300
C143 C -0.046500 0.471000 0.276900
C144 C 0.377200 0.649300 -0.012600
C145 C 0.269500 0.796900 0.124100
C146 C 0.153400 0.717000 -0.007300
C147 C -0.108000 0.586900 0.317200
C148 C -0.121500 0.475000 0.253600
C149 C 0.434200 0.554500 0.265200
C150 C 0.226300 0.829400 0.090700
C151 C 0.223100 0.441100 0.140100
C152 C 0.311900 0.624400 -0.032600
C153 C 0.427500 0.671800 0.073200
C154 C 0.043800 0.513400 0.224500
C155 C 0.237900 0.726300 0.171400
C156 C 0.283100 0.548100 0.135300
C157 C 0.280900 0.599300 0.291200
C158 C 0.079000 0.656900 0.099200
C159 C 0.033000 0.661600 0.256300
C160 C 0.232800 0.751200 0.221200
C161 C -0.000100 0.712500 0.260100
C162 C 0.031800 0.484600 0.178200
C163 C 0.326900 0.610200 0.339700
C164 C 0.350500 0.521900 0.113500
C165 C 0.514900 0.664000 0.071000
C166 C 0.002200 0.680800 0.103500
C167 C -0.004200 0.732200 0.095200
H168 H 0.040200 0.750700 0.086400
C169 C 0.403100 0.493900 0.145100
H170 H 0.396000 0.492100 0.179700
C171 C 0.020500 0.434400 0.180600
H172 H 0.019000 0.418900 0.212000
C173 C 0.268900 0.728800 0.261900
H174 H 0.296100 0.698700 0.258500
C175 C -0.036700 0.728200 0.301300
H176 H -0.042100 0.706500 0.328400
C177 C 0.544400 0.622700 0.049000
H178 H 0.509400 0.598200 0.035800
C179 C 0.391900 0.642700 0.340700
H180 H 0.406100 0.658000 0.310900
C181 C -0.075100 0.754700 0.100000
H182 H -0.080500 0.788900 0.093900
C183 C 0.265200 0.750700 0.308700
H184 H 0.292900 0.736800 0.337000
C185 C -0.066000 0.775900 0.303200
H186 H -0.091600 0.786400 0.331600
C187 C 0.011400 0.406300 0.137300
H188 H 0.004000 0.371800 0.139200
C189 C 0.434700 0.652200 0.384900
H190 H 0.477900 0.674300 0.385600
C191 C 0.623800 0.617000 0.046400
H192 H 0.644100 0.589400 0.029900
C193 C 0.464500 0.469500 0.125200
H194 H 0.500200 0.451200 0.146500
C195 C 0.013300 0.428600 0.092800
H196 H 0.008300 0.409500 0.063400
C197 C 0.220600 0.793000 0.313300
H198 H 0.216400 0.807200 0.345200
C199 C 0.414400 0.629500 0.427800
H200 H 0.445000 0.635400 0.457900
C201 C -0.058500 0.807200 0.265700
H202 H -0.078900 0.839500 0.267900
C203 C 0.475300 0.470800 0.075700
H204 H 0.517400 0.453000 0.062900
C205 C 0.673800 0.651000 0.067700
H206 H 0.729000 0.646600 0.066800
C207 C -0.140000 0.727300 0.114100
H208 H -0.189200 0.743300 0.116600
C209 C 0.022300 0.479500 0.089300
H210 H 0.021800 0.494700 0.057600
C211 C -0.021100 0.793100 0.223100
H212 H -0.017200 0.814900 0.195800
C213 C -0.134100 0.677400 0.124300
H214 H -0.178300 0.659400 0.134300
C215 C 0.350400 0.598300 0.428100
H216 H 0.335700 0.584000 0.458200
C217 C 0.424500 0.498200 0.043600
H218 H 0.431800 0.499100 0.009000
C219 C 0.644900 0.691900 0.090700
H220 H 0.680000 0.715500 0.105500
C221 C 0.182400 0.814600 0.272600
H222 H 0.151500 0.843300 0.276300
C223 C 0.032200 0.507900 0.132400
H224 H 0.039000 0.542400 0.130400
C225 C 0.189700 0.793700 0.225000
H226 H 0.165300 0.808700 0.196200
C227 C 0.010500 0.745000 0.222500
H228 H 0.039900 0.735200 0.195400
C229 C -0.062100 0.654600 0.119700
H230 H -0.056300 0.620800 0.127700
C231 C 0.307000 0.587800 0.382900
H232 H 0.264300 0.565400 0.382400
C233 C 0.361900 0.524800 0.063600
H234 H 0.328100 0.544600 0.042600
C235 C 0.565600 0.698000 0.092100
H236 H 0.545400 0.726100 0.107900
Y237 Y 0.817160 0.105410 0.300890
Cl238 Cl 0.900650 0.124900 0.108940
O239 O 0.904600 0.049240 0.274500
O240 O 0.899200 0.125180 0.367490
O241 O 0.763900 0.178120 0.329040
N242 N 0.746500 0.110600 0.500500
O243 O 0.899000 0.156200 0.260570
O244 O 0.598200 0.189260 0.386330
O245 O 0.726400 0.095520 0.375760
N246 N 0.771700 0.225800 0.484900
N247 N 0.847400 0.316100 0.430400
O248 O 0.794300 0.094400 0.208700
N249 N 0.785700 -0.045700 0.409000
N250 N 1.053400 0.062500 0.153100
N251 N 1.136300 0.009200 0.285200
N252 N 0.603900 0.024000 0.203900
C253 C 1.013300 0.012500 0.081400
H254 H 0.962200 0.015300 0.096100
H255 H 1.024800 -0.022100 0.075400
H256 H 1.011700 0.030500 0.049900
C257 C 0.860700 0.061300 0.481900
H258 H 0.831400 0.054600 0.450200
H259 H 0.883000 0.030700 0.495500
H260 H 0.903300 0.084600 0.476500
C261 C 0.962100 0.331800 0.486300
H262 H 0.967500 0.296100 0.485000
H263 H 0.967600 0.342800 0.520900
H264 H 1.003200 0.347100 0.467500
C265 C 0.646400 0.271500 0.481900
H266 H 0.642500 0.258800 0.447900
H267 H 0.641000 0.307300 0.481200
H268 H 0.604400 0.257300 0.500600
C269 C 1.217700 0.047000 0.348000
H270 H 1.166100 0.058000 0.357800
H271 H 1.248400 0.075400 0.338100
H272 H 1.245700 0.030500 0.376100
C273 C 0.809000 -0.065100 0.496700
H274 H 0.769200 -0.040900 0.504900
H275 H 0.861400 -0.050300 0.501000
H276 H 0.806100 -0.093500 0.518800
C277 C 0.608800 -0.044200 0.146200
H278 H 0.581100 -0.045500 0.113300
H279 H 0.611100 -0.077200 0.160600
H280 H 0.662400 -0.031900 0.143100
Y281 Y 0.913280 0.066910 0.185290
Cl282 Cl 0.839110 -0.009320 0.145660
N283 N 0.757300 0.247600 0.370800
N284 N 0.984900 0.004700 0.233600
N285 N 0.690400 0.098500 0.252200
N286 N 0.873400 0.167200 0.435700
N287 N 0.765600 0.029800 0.335900
N288 N 1.003000 0.122400 0.226700
N289 N 0.626100 0.160000 0.461600
C290 C 0.806400 0.082900 0.517500
C291 C 0.724300 0.258100 0.506300
C292 C 1.207300 0.013200 0.306900
C293 C 0.564900 -0.010000 0.179700
C294 C 0.882500 0.346400 0.463800
C295 C 1.076300 0.033800 0.116400
C296 C 0.793900 -0.081500 0.443100
Y297 Y 0.734720 0.167540 0.414930
C298 C 0.746300 0.279700 0.553500
H299 H 0.710700 0.300900 0.568800
C300 C 0.793000 -0.132600 0.429900
H301 H 0.797800 -0.157100 0.455000
C302 C 1.155600 0.024000 0.110800
H303 H 1.170500 0.001900 0.085800
C304 C 0.814500 0.070100 0.568100
H305 H 0.857200 0.049700 0.579400
C306 C 0.849500 0.393600 0.476100
H307 H 0.876800 0.414600 0.499400
C308 C 1.271800 -0.014700 0.291700
H309 H 1.322800 -0.010400 0.307500
C310 C 0.482900 -0.017400 0.182300
H311 H 0.456600 -0.041900 0.162400
C312 C 0.780800 0.407200 0.454400
H313 H 0.759300 0.438200 0.462100
C314 C 0.762800 0.086100 0.601600
H315 H 0.771400 0.078800 0.635900
C316 C 0.819100 0.270000 0.576800
H317 H 0.834600 0.285100 0.607600
C318 C 1.210700 0.045800 0.140600
H319 H 1.264600 0.039400 0.136200
C320 C 0.442000 0.010500 0.213400
H321 H 0.387300 0.005400 0.216200
C322 C 1.260000 -0.047000 0.255000
H323 H 1.303100 -0.066100 0.245300
C324 C 0.785400 -0.145400 0.381900
H325 H 0.784800 -0.179100 0.372900
C326 C 0.738100 0.375200 0.419100
C327 C 1.185700 -0.053800 0.230200
C328 C 1.190600 0.077700 0.178200
C329 C 0.778000 -0.107000 0.343000
C330 C 0.870700 0.236900 0.553900
C331 C 0.484100 0.049000 0.242600
C332 C 0.697500 0.113200 0.584200
C333 C 0.666700 0.388900 0.394200
H334 H 0.645200 0.420400 0.399700
C335 C 1.247700 0.104100 0.209900
H336 H 1.302400 0.099200 0.206600
C337 C 0.448100 0.079500 0.276300
H338 H 0.393800 0.075900 0.281800
C339 C 0.945000 0.226500 0.575700
H340 H 0.960600 0.240300 0.607100
C341 C 1.166500 -0.087900 0.190300
H342 H 1.207100 -0.108000 0.178600
C343 C 0.771300 -0.119800 0.292300
H344 H 0.771200 -0.153100 0.281800
C345 C 0.636800 0.129500 0.614700
H346 H 0.640600 0.122500 0.649200
C347 C 0.765100 -0.082800 0.259400
H348 H 0.762000 -0.090500 0.225000
C349 C 1.095900 -0.092100 0.169800
H350 H 1.085900 -0.114900 0.143500
C351 C 0.995300 0.197000 0.553000
H352 H 1.045600 0.189900 0.568500
C353 C 0.628300 0.357400 0.362500
H354 H 0.579300 0.366700 0.346400
C355 C 0.573500 0.154900 0.594600
H356 H 0.534100 0.165900 0.615500
C357 C 1.223300 0.135300 0.243700
H358 H 1.261000 0.153100 0.263900
C359 C 0.491800 0.113900 0.300700
H360 H 0.468000 0.134400 0.324100
C361 C 0.762900 -0.032500 0.273800
H362 H 0.759400 -0.007300 0.249400
C363 C 0.660100 0.310900 0.353100
H364 H 0.632500 0.289200 0.330700
C365 C 1.142700 0.142200 0.250000
H366 H 1.127500 0.163500 0.275600
C367 C 1.033400 -0.063100 0.186100
H368 H 0.981800 -0.067300 0.171300
C369 C 0.566000 0.165100 0.543100
H370 H 0.521700 0.182900 0.529600
C371 C 0.571700 0.120300 0.292500
H372 H 0.600600 0.144900 0.310700
C373 C 0.972600 0.176400 0.505300
H374 H 1.007400 0.154800 0.489900
C375 C 1.085200 0.119300 0.220400
C376 C 0.765900 -0.021000 0.322600
C377 C 0.901800 0.187500 0.481800
C378 C 0.609300 0.092800 0.259700
C379 C 1.046500 -0.029000 0.223100
C380 C 0.622800 0.149300 0.512600
C381 C 0.730500 0.296900 0.375900
C382 C 0.846600 0.217000 0.507300
C383 C 1.108000 0.086900 0.182800
C384 C 1.121500 -0.025000 0.246400
C385 C 0.565800 0.054500 0.234800
C386 C 0.773700 0.329400 0.409300
C387 C 0.776900 -0.058900 0.359900
C388 C 0.688100 0.124400 0.532600
C389 C 0.572500 0.171800 0.426800
C390 C 0.956200 0.013400 0.275500
C391 C 0.762100 0.226300 0.328600
C392 C 0.716900 0.048100 0.364700
C393 C 0.719100 0.099300 0.208800
C394 C 0.921000 0.156900 0.400800
C395 C 0.967000 0.161600 0.243700
C396 C 0.767200 0.251200 0.278800
C397 C 1.000100 0.212500 0.239900
C398 C 0.968200 -0.015400 0.321800
C399 C 0.673100 0.110200 0.160300
C400 C 0.649500 0.021900 0.386500
C401 C 0.485100 0.164000 0.429000
C402 C 0.997800 0.180800 0.396500
C403 C 1.004200 0.232200 0.404800
H404 H 0.959800 0.250700 0.413600
C405 C 0.596900 -0.006100 0.354900
H406 H 0.604000 -0.007900 0.320300
C407 C 0.979500 -0.065600 0.319400
H408 H 0.981000 -0.081100 0.288000
C409 C 0.731100 0.228800 0.238100
H410 H 0.703900 0.198700 0.241500
C411 C 1.036700 0.228200 0.198700
H412 H 1.042100 0.206500 0.171600
C413 C 0.455600 0.122700 0.451000
H414 H 0.490600 0.098200 0.464200
C415 C 0.608100 0.142700 0.159300
H416 H 0.593900 0.158000 0.189100
C417 C 1.075100 0.254700 0.400000
H418 H 1.080500 0.288900 0.406100
C419 C 0.734800 0.250700 0.191300
H420 H 0.707100 0.236800 0.163000
C421 C 1.066000 0.275900 0.196800
H422 H 1.091600 0.286400 0.168400
C423 C 0.988600 -0.093700 0.362700
H424 H 0.996000 -0.128200 0.360800
C425 C 0.565300 0.152200 0.115100
H426 H 0.522100 0.174300 0.114400
C427 C 0.376200 0.117000 0.453600
H428 H 0.355900 0.089400 0.470100
C429 C 0.535500 -0.030500 0.374800
H430 H 0.499800 -0.048800 0.353500
C431 C 0.986700 -0.071400 0.407200
H432 H 0.991700 -0.090500 0.436600
C433 C 0.779400 0.293000 0.186700
H434 H 0.783600 0.307200 0.154800
C435 C 0.585600 0.129500 0.072200
H436 H 0.555000 0.135400 0.042100
C437 C 1.058500 0.307200 0.234300
H438 H 1.078900 0.339500 0.232100
C439 C 0.524700 -0.029200 0.424300
H440 H 0.482600 -0.047000 0.437100
C441 C 0.326200 0.151000 0.432300
H442 H 0.271000 0.146600 0.433200
C443 C 1.140000 0.227300 0.385900
H444 H 1.189200 0.243300 0.383400
C445 C 0.977700 -0.020500 0.410700
H446 H 0.978200 -0.005300 0.442400
C447 C 1.021100 0.293100 0.276900
H448 H 1.017200 0.314900 0.304200
C449 C 1.134100 0.177400 0.375700
H450 H 1.178300 0.159400 0.365700
C451 C 0.649600 0.098300 0.071900
H452 H 0.664300 0.084000 0.041800
C453 C 0.575500 -0.001800 0.456400
H454 H 0.568200 -0.000900 0.491000
C455 C 0.355100 0.191900 0.409300
H456 H 0.320000 0.215500 0.394500
C457 C 0.817600 0.314600 0.227400
H458 H 0.848500 0.343300 0.223700
C459 C 0.967800 0.007900 0.367600
H460 H 0.961000 0.042400 0.369600
C461 C 0.810300 0.293700 0.275000
H462 H 0.834700 0.308700 0.303800
C463 C 0.989500 0.245000 0.277500
H464 H 0.960100 0.235200 0.304600
C465 C 1.062100 0.154600 0.380300
H466 H 1.056300 0.120800 0.372300
C467 C 0.693000 0.087800 0.117100
H468 H 0.735700 0.065400 0.117600
C469 C 0.638100 0.024800 0.436400
H470 H 0.671900 0.044600 0.457400
C471 C 0.434400 0.198000 0.407900
H472 H 0.454600 0.226100 0.392100
Y473 Y 0.817160 0.394590 0.800890
Cl474 Cl 0.900650 0.375100 0.608940
O475 O 0.904600 0.450760 0.774500
O476 O 0.899200 0.374820 0.867490
O477 O 0.763900 0.321880 0.829040
N478 N 0.746500 0.389400 1.000500
O479 O 0.899000 0.343800 0.760570
O480 O 0.598200 0.310740 0.886330
O481 O 0.726400 0.404480 0.875760
N482 N 0.771700 0.274200 0.984900
N483 N 0.847400 0.183900 0.930400
O484 O 0.794300 0.405600 0.708700
N485 N 0.785700 0.545700 0.909000
N486 N 1.053400 0.437500 0.653100
N487 N 1.136300 0.490800 0.785200
N488 N 0.603900 0.476000 0.703900
C489 C 1.013300 0.487500 0.581400
H490 H 0.962200 0.484700 0.596100
H491 H 1.024800 0.522100 0.575400
H492 H 1.011700 0.469500 0.549900
C493 C 0.860700 0.438700 0.981900
H494 H 0.831400 0.445400 0.950200
H495 H 0.883000 0.469300 0.995500
H496 H 0.903300 0.415400 0.976500
C497 C 0.962100 0.168200 0.986300
H498 H 0.967500 0.203900 0.985000
H499 H 0.967600 0.157200 1.020900
H500 H 1.003200 0.152900 0.967500
C501 C 0.646400 0.228500 0.981900
H502 H 0.642500 0.241200 0.947900
H503 H 0.641000 0.192700 0.981200
H504 H 0.604400 0.242700 1.000600
C505 C 1.217700 0.453000 0.848000
H506 H 1.166100 0.442000 0.857800
H507 H 1.248400 0.424600 0.838100
H508 H 1.245700 0.469500 0.876100
C509 C 0.809000 0.565100 0.996700
H510 H 0.769200 0.540900 1.004900
H511 H 0.861400 0.550300 1.001000
H512 H 0.806100 0.593500 1.018800
C513 C 0.608800 0.544200 0.646200
H514 H 0.581100 0.545500 0.613300
H515 H 0.611100 0.577200 0.660600
H516 H 0.662400 0.531900 0.643100
Y517 Y 0.913280 0.433090 0.685290
Cl518 Cl 0.839110 0.509320 0.645660
N519 N 0.757300 0.252400 0.870800
N520 N 0.984900 0.495300 0.733600
N521 N 0.690400 0.401500 0.752200
N522 N 0.873400 0.332800 0.935700
N523 N 0.765600 0.470200 0.835900
N524 N 1.003000 0.377600 0.726700
N525 N 0.626100 0.340000 0.961600
C526 C 0.806400 0.417100 1.017500
C527 C 0.724300 0.241900 1.006300
C528 C 1.207300 0.486800 0.806900
C529 C 0.564900 0.510000 0.679700
C530 C 0.882500 0.153600 0.963800
C531 C 1.076300 0.466200 0.616400
C532 C 0.793900 0.581500 0.943100
Y533 Y 0.734720 0.332460 0.914930
C534 C 0.746300 0.220300 1.053500
H535 H 0.710700 0.199100 1.068800
C536 C 0.793000 0.632600 0.929900
H537 H 0.797800 0.657100 0.955000
C538 C 1.155600 0.476000 0.610800
H539 H 1.170500 0.498100 0.585800
C540 C 0.814500 0.429900 1.068100
H541 H 0.857200 0.450300 1.079400
C542 C 0.849500 0.106400 0.976100
H543 H 0.876800 0.085400 0.999400
C544 C 1.271800 0.514700 0.791700
H545 H 1.322800 0.510400 0.807500
C546 C 0.482900 0.517400 0.682300
H547 H 0.456600 0.541900 0.662400
C548 C 0.780800 0.092800 0.954400
H549 H 0.759300 0.061800 0.962100
C550 C 0.762800 0.413900 1.101600
H551 H 0.771400 0.421200 1.135900
C552 C 0.819100 0.230000 1.076800
H553 H 0.834600 0.214900 1.107600
C554 C 1.210700 0.454200 0.640600
H555 H 1.264600 0.460600 0.636200
C556 C 0.442000 0.489500 0.713400
H557 H 0.387300 0.494600 0.716200
C558 C 1.260000 0.547000 0.755000
H559 H 1.303100 0.566100 0.745300
C560 C 0.785400 0.645400 0.881900
H561 H 0.784800 0.679100 0.872900
C562 C 0.738100 0.124800 0.919100
C563 C 1.185700 0.553800 0.730200
C564 C 1.190600 0.422300 0.678200
C565 C 0.778000 0.607000 0.843000
C566 C 0.870700 0.263100 1.053900
C567 C 0.484100 0.451000 0.742600
C568 C 0.697500 0.386800 1.084200
C569 C 0.666700 0.111100 0.894200
H570 H 0.645200 0.079600 0.899700
C571 C 1.247700 0.395900 0.709900
H572 H 1.302400 0.400800 0.706600
C573 C 0.448100 0.420500 0.776300
H574 H 0.393800 0.424100 0.781800
C575 C 0.945000 0.273500 1.075700
H576 H 0.960600 0.259700 1.107100
C577 C 1.166500 0.587900 0.690300
H578 H 1.207100 0.608000 0.678600
C579 C 0.771300 0.619800 0.792300
H580 H 0.771200 0.653100 0.781800
C581 C 0.636800 0.370500 1.114700
H582 H 0.640600 0.377500 1.149200
C583 C 0.765100 0.582800 0.759400
H584 H 0.762000 0.590500 0.725000
C585 C 1.095900 0.592100 0.669800
H586 H 1.085900 0.614900 0.643500
C587 C 0.995300 0.303000 1.053000
H588 H 1.045600 0.310100 1.068500
C589 C 0.628300 0.142600 0.862500
H590 H 0.579300 0.133300 0.846400
C591 C 0.573500 0.345100 1.094600
H592 H 0.534100 0.334100 1.115500
C593 C 1.223300 0.364700 0.743700
H594 H 1.261000 0.346900 0.763900
C595 C 0.491800 0.386100 0.800700
H596 H 0.468000 0.365600 0.824100
C597 C 0.762900 0.532500 0.773800
H598 H 0.759400 0.507300 0.749400
C599 C 0.660100 0.189100 0.853100
H600 H 0.632500 0.210800 0.830700
C601 C 1.142700 0.357800 0.750000
H602 H 1.127500 0.336500 0.775600
C603 C 1.033400 0.563100 0.686100
H604 H 0.981800 0.567300 0.671300
C605 C 0.566000 0.334900 1.043100
H606 H 0.521700 0.317100 1.029600
C607 C 0.571700 0.379700 0.792500
H608 H 0.600600 0.355100 0.810700
C609 C 0.972600 0.323600 1.005300
H610 H 1.007400 0.345200 0.989900
C611 C 1.085200 0.380700 0.720400
C612 C 0.765900 0.521000 0.822600
C613 C 0.901800 0.312500 0.981800
C614 C 0.609300 0.407200 0.759700
C615 C 1.046500 0.529000 0.723100
C616 C 0.622800 0.350700 1.012600
C617 C 0.730500 0.203100 0.875900
C618 C 0.846600 0.283000 1.007300
C619 C 1.108000 0.413100 0.682800
C620 C 1.121500 0.525000 0.746400
C621 C 0.565800 0.445500 0.734800
C622 C 0.773700 0.170600 0.909300
C623 C 0.776900 0.558900 0.859900
C624 C 0.688100 0.375600 1.032600
C625 C 0.572500 0.328200 0.926800
C626 C 0.956200 0.486600 0.775500
C627 C 0.762100 0.273700 0.828600
C628 C 0.716900 0.451900 0.864700
C629 C 0.719100 0.400700 0.708800
C630 C 0.921000 0.343100 0.900800
C631 C 0.967000 0.338400 0.743700
C632 C 0.767200 0.248800 0.778800
C633 C 1.000100 0.287500 0.739900
C634 C 0.968200 0.515400 0.821800
C635 C 0.673100 0.389800 0.660300
C636 C 0.649500 0.478100 0.886500
C637 C 0.485100 0.336000 0.929000
C638 C 0.997800 0.319200 0.896500
C639 C 1.004200 0.267800 0.904800
H640 H 0.959800 0.249300 0.913600
C641 C 0.596900 0.506100 0.854900
H642 H 0.604000 0.507900 0.820300
C643 C 0.979500 0.565600 0.819400
H644 H 0.981000 0.581100 0.788000
C645 C 0.731100 0.271200 0.738100
H646 H 0.703900 0.301300 0.741500
C647 C 1.036700 0.271800 0.698700
H648 H 1.042100 0.293500 0.671600
C649 C 0.455600 0.377300 0.951000
H650 H 0.490600 0.401800 0.964200
C651 C 0.608100 0.357300 0.659300
H652 H 0.593900 0.342000 0.689100
C653 C 1.075100 0.245300 0.900000
H654 H 1.080500 0.211100 0.906100
C655 C 0.734800 0.249300 0.691300
H656 H 0.707100 0.263200 0.663000
C657 C 1.066000 0.224100 0.696800
H658 H 1.091600 0.213600 0.668400
C659 C 0.988600 0.593700 0.862700
H660 H 0.996000 0.628200 0.860800
C661 C 0.565300 0.347800 0.615100
H662 H 0.522100 0.325700 0.614400
C663 C 0.376200 0.383000 0.953600
H664 H 0.355900 0.410600 0.970100
C665 C 0.535500 0.530500 0.874800
H666 H 0.499800 0.548800 0.853500
C667 C 0.986700 0.571400 0.907200
H668 H 0.991700 0.590500 0.936600
C669 C 0.779400 0.207000 0.686700
H670 H 0.783600 0.192800 0.654800
C671 C 0.585600 0.370500 0.572200
H672 H 0.555000 0.364600 0.542100
C673 C 1.058500 0.192800 0.734300
H674 H 1.078900 0.160500 0.732100
C675 C 0.524700 0.529200 0.924300
H676 H 0.482600 0.547000 0.937100
C677 C 0.326200 0.349000 0.932300
H678 H 0.271000 0.353400 0.933200
C679 C 1.140000 0.272700 0.885900
H680 H 1.189200 0.256700 0.883400
C681 C 0.977700 0.520500 0.910700
H682 H 0.978200 0.505300 0.942400
C683 C 1.021100 0.206900 0.776900
H684 H 1.017200 0.185100 0.804200
C685 C 1.134100 0.322600 0.875700
H686 H 1.178300 0.340600 0.865700
C687 C 0.649600 0.401700 0.571900
H688 H 0.664300 0.416000 0.541800
C689 C 0.575500 0.501800 0.956400
H690 H 0.568200 0.500900 0.991000
C691 C 0.355100 0.308100 0.909300
H692 H 0.320000 0.284500 0.894500
C693 C 0.817600 0.185400 0.727400
H694 H 0.848500 0.156700 0.723700
C695 C 0.967800 0.492100 0.867600
H696 H 0.961000 0.457600 0.869600
C697 C 0.810300 0.206300 0.775000
H698 H 0.834700 0.191300 0.803800
C699 C 0.989500 0.255000 0.777500
H700 H 0.960100 0.264800 0.804600
C701 C 1.062100 0.345400 0.880300
H702 H 1.056300 0.379200 0.872300
C703 C 0.693000 0.412200 0.617100
H704 H 0.735700 0.434600 0.617600
C705 C 0.638100 0.475200 0.936400
H706 H 0.671900 0.455400 0.957400
C707 C 0.434400 0.302000 0.907900
H708 H 0.454600 0.273900 0.892100
Y709 Y 0.182840 0.894590 0.699110
Cl710 Cl 0.099350 0.875100 0.891060
O711 O 0.095400 0.950760 0.725500
O712 O 0.100800 0.874820 0.632510
O713 O 0.236100 0.821880 0.670960
N714 N 0.253500 0.889400 0.499500
O715 O 0.101000 0.843800 0.739430
O716 O 0.401800 0.810740 0.613670
O717 O 0.273600 0.904480 0.624240
N718 N 0.228300 0.774200 0.515100
N719 N 0.152600 0.683900 0.569600
O720 O 0.205700 0.905600 0.791300
N721 N 0.214300 1.045700 0.591000
N722 N -0.053400 0.937500 0.846900
N723 N -0.136300 0.990800 0.714800
N724 N 0.396100 0.976000 0.796100
C725 C -0.013300 0.987500 0.918600
H726 H 0.037800 0.984700 0.903900
H727 H -0.024800 1.022100 0.924600
H728 H -0.011700 0.969500 0.950100
C729 C 0.139300 0.938700 0.518100
H730 H 0.168600 0.945400 0.549800
H731 H 0.117000 0.969300 0.504500
H732 H 0.096700 0.915400 0.523500
C733 C 0.037900 0.668200 0.513700
H734 H 0.032500 0.703900 0.515000
H735 H 0.032400 0.657200 0.479100
H736 H -0.003200 0.652900 0.532500
C737 C 0.353600 0.728500 0.518100
H738 H 0.357500 0.741200 0.552100
H739 H 0.359000 0.692700 0.518800
H740 H 0.395600 0.742700 0.499400
C741 C -0.217700 0.953000 0.652000
H742 H -0.166100 0.942000 0.642200
H743 H -0.248400 0.924600 0.661900
H744 H -0.245700 0.969500 0.623900
C745 C 0.191000 1.065100 0.503300
H746 H 0.230800 1.040900 0.495100
H747 H 0.138600 1.050300 0.499000
H748 H 0.193900 1.093500 0.481200
C749 C 0.391200 1.044200 0.853800
H750 H 0.418900 1.045500 0.886700
H751 H 0.388900 1.077200 0.839400
H752 H 0.337600 1.031900 0.856900
Y753 Y 0.086720 0.933090 0.814710
Cl754 Cl 0.160890 1.009320 0.854340
N755 N 0.242700 0.752400 0.629200
N756 N 0.015100 0.995300 0.766400
N757 N 0.309600 0.901500 0.747800
N758 N 0.126600 0.832800 0.564300
N759 N 0.234400 0.970200 0.664100
N760 N -0.003000 0.877600 0.773300
N761 N 0.373900 0.840000 0.538400
C762 C 0.193600 0.917100 0.482500
C763 C 0.275700 0.741900 0.493700
C764 C -0.207300 0.986800 0.693100
C765 C 0.435100 1.010000 0.820300
C766 C 0.117500 0.653600 0.536200
C767 C -0.076300 0.966200 0.883600
C768 C 0.206100 1.081500 0.556900
Y769 Y 0.265280 0.832460 0.585070
C770 C 0.253700 0.720300 0.446500
H771 H 0.289300 0.699100 0.431200
C772 C 0.207000 1.132600 0.570100
H773 H 0.202200 1.157100 0.545000
C774 C -0.155600 0.976000 0.889200
H775 H -0.170500 0.998100 0.914200
C776 C 0.185500 0.929900 0.431900
H777 H 0.142800 0.950300 0.420600
C778 C 0.150500 0.606400 0.523900
H779 H 0.123200 0.585400 0.500600
C780 C -0.271800 1.014700 0.708300
H781 H -0.322800 1.010400 0.692500
C782 C 0.517100 1.017400 0.817700
H783 H 0.543400 1.041900 0.837600
C784 C 0.219200 0.592800 0.545600
H785 H 0.240700 0.561800 0.537900
C786 C 0.237200 0.913900 0.398400
H787 H 0.228600 0.921200 0.364100
C788 C 0.180900 0.730000 0.423200
H789 H 0.165400 0.714900 0.392400
C790 C -0.210700 0.954200 0.859400
H791 H -0.264600 0.960600 0.863800
C792 C 0.558000 0.989500 0.786600
H793 H 0.612700 0.994600 0.783800
C794 C -0.260000 1.047000 0.745000
H795 H -0.303100 1.066100 0.754700
C796 C 0.214600 1.145400 0.618100
H797 H 0.215200 1.179100 0.627100
C798 C 0.261900 0.624800 0.580900
C799 C -0.185700 1.053800 0.769800
C800 C -0.190600 0.922300 0.821800
C801 C 0.222000 1.107000 0.657000
C802 C 0.129300 0.763100 0.446100
C803 C 0.515900 0.951000 0.757400
C804 C 0.302500 0.886800 0.415800
C805 C 0.333300 0.611100 0.605800
H806 H 0.354800 0.579600 0.600300
C807 C -0.247700 0.895900 0.790100
H808 H -0.302400 0.900800 0.793400
C809 C 0.551900 0.920500 0.723700
H810 H 0.606200 0.924100 0.718200
C811 C 0.055000 0.773500 0.424300
H812 H 0.039400 0.759700 0.392900
C813 C -0.166500 1.087900 0.809700
H814 H -0.207100 1.108000 0.821400
C815 C 0.228700 1.119800 0.707700
H816 H 0.228800 1.153100 0.718200
C817 C 0.363200 0.870500 0.385300
H818 H 0.359400 0.877500 0.350800
C819 C 0.234900 1.082800 0.740600
H820 H 0.238000 1.090500 0.775000
C821 C -0.095900 1.092100 0.830200
H822 H -0.085900 1.114900 0.856500
C823 C 0.004700 0.803000 0.447000
H824 H -0.045600 0.810100 0.431500
C825 C 0.371700 0.642600 0.637500
H826 H 0.420700 0.633300 0.653600
C827 C 0.426500 0.845100 0.405400
H828 H 0.465900 0.834100 0.384500
C829 C -0.223300 0.864700 0.756300
H830 H -0.261000 0.846900 0.736100
C831 C 0.508200 0.886100 0.699300
H832 H 0.532000 0.865600 0.675900
C833 C 0.237100 1.032500 0.726200
H834 H 0.240600 1.007300 0.750600
C835 C 0.339900 0.689100 0.646900
H836 H 0.367500 0.710800 0.669300
C837 C -0.142700 0.857800 0.750000
H838 H -0.127500 0.836500 0.724400
C839 C -0.033400 1.063100 0.813900
H840 H 0.018200 1.067300 0.828700
C841 C 0.434000 0.834900 0.456900
H842 H 0.478300 0.817100 0.470400
C843 C 0.428300 0.879700 0.707500
H844 H 0.399400 0.855100 0.689300
C845 C 0.027400 0.823600 0.494700
H846 H -0.007400 0.845200 0.510100
C847 C -0.085200 0.880700 0.779600
C848 C 0.234100 1.021000 0.677400
C849 C 0.098200 0.812500 0.518200
C850 C 0.390700 0.907200 0.740300
C851 C -0.046500 1.029000 0.776900
C852 C 0.377200 0.850700 0.487400
C853 C 0.269500 0.703100 0.624100
C854 C 0.153400 0.783000 0.492700
C855 C -0.108000 0.913100 0.817200
C856 C -0.121500 1.025000 0.753600
C857 C 0.434200 0.945500 0.765200
C858 C 0.226300 0.670600 0.590700
C859 C 0.223100 1.058900 0.640100
C860 C 0.311900 0.875600 0.467400
C861 C 0.427500 0.828200 0.573200
C862 C 0.043800 0.986600 0.724500
C863 C 0.237900 0.773700 0.671400
C864 C 0.283100 0.951900 0.635300
C865 C 0.280900 0.900700 0.791200
C866 C 0.079000 0.843100 0.599200
C867 C 0.033000 0.838400 0.756300
C868 C 0.232800 0.748800 0.721200
C869 C -0.000100 0.787500 0.760100
C870 C 0.031800 1.015400 0.678200
C871 C 0.326900 0.889800 0.839700
C872 C 0.350500 0.978100 0.613500
C873 C 0.514900 0.836000 0.571000
C874 C 0.002200 0.819200 0.603500
C875 C -0.004200 0.767800 0.595200
H876 H 0.040200 0.749300 0.586400
C877 C 0.403100 1.006100 0.645100
H878 H 0.396000 1.007900 0.679700
C879 C 0.020500 1.065600 0.680600
H880 H 0.019000 1.081100 0.712000
C881 C 0.268900 0.771200 0.761900
H882 H 0.296100 0.801300 0.758500
C883 C -0.036700 0.771800 0.801300
H884 H -0.042100 0.793500 0.828400
C885 C 0.544400 0.877300 0.549000
H886 H 0.509400 0.901800 0.535800
C887 C 0.391900 0.857300 0.840700
H888 H 0.406100 0.842000 0.810900
C889 C -0.075100 0.745300 0.600000
H890 H -0.080500 0.711100 0.593900
C891 C 0.265200 0.749300 0.808700
H892 H 0.292900 0.763200 0.837000
C893 C -0.066000 0.724100 0.803200
H894 H -0.091600 0.713600 0.831600
C895 C 0.011400 1.093700 0.637300
H896 H 0.004000 1.128200 0.639200
C897 C 0.434700 0.847800 0.884900
H898 H 0.477900 0.825700 0.885600
C899 C 0.623800 0.883000 0.546400
H900 H 0.644100 0.910600 0.529900
C901 C 0.464500 1.030500 0.625200
H902 H 0.500200 1.048800 0.646500
C903 C 0.013300 1.071400 0.592800
H904 H 0.008300 1.090500 0.563400
C905 C 0.220600 0.707000 0.813300
H906 H 0.216400 0.692800 0.845200
C907 C 0.414400 0.870500 0.927800
H908 H 0.445000 0.864600 0.957900
C909 C -0.058500 0.692800 0.765700
H910 H -0.078900 0.660500 0.767900
C911 C 0.475300 1.029200 0.575700
H912 H 0.517400 1.047000 0.562900
C913 C 0.673800 0.849000 0.567700
H914 H 0.729000 0.853400 0.566800
C915 C -0.140000 0.772700 0.614100
H916 H -0.189200 0.756700 0.616600
C917 C 0.022300 1.020500 0.589300
H918 H 0.021800 1.005300 0.557600
C919 C -0.021100 0.706900 0.723100
H920 H -0.017200 0.685100 0.695800
C921 C -0.134100 0.822600 0.624300
H922 H -0.178300 0.840600 0.634300
C923 C 0.350400 0.901700 0.928100
H924 H 0.335700 0.916000 0.958200
C925 C 0.424500 1.001800 0.543600
H926 H 0.431800 1.000900 0.509000
C927 C 0.644900 0.808100 0.590700
H928 H 0.680000 0.784500 0.605500
C929 C 0.182400 0.685400 0.772600
H930 H 0.151500 0.656700 0.776300
C931 C 0.032200 0.992100 0.632400
H932 H 0.039000 0.957600 0.630400
C933 C 0.189700 0.706300 0.725000
H934 H 0.165300 0.691300 0.696200
C935 C 0.010500 0.755000 0.722500
H936 H 0.039900 0.764800 0.695400
C937 C -0.062100 0.845400 0.619700
H938 H -0.056300 0.879200 0.627700
C939 C 0.307000 0.912200 0.882900
H940 H 0.264300 0.934600 0.882400
C941 C 0.361900 0.975200 0.563600
H942 H 0.328100 0.955400 0.542600
C943 C 0.565600 0.802000 0.592100
H944 H 0.545400 0.773900 0.607900

#END
