./ACOWEU_from_xyz.cif_generated_by_CrystalShift
_symmetry_cell_setting triclinic
_symmetry_space_group_name_H-M 'P 1'
loop_
_symmetry_equiv_pos_site_id
_symmetry_equiv_pos_as_xyz
1 x,y,z
_cell_length_a 20.437300
_cell_length_b 6.003700
_cell_length_c 11.747600
_cell_angle_alpha 90.000000
_cell_angle_beta 125.927000
_cell_angle_gamma 90.000000
_cell_volume 1167.214778
loop_
_atom_site_label
_atom_site_type_symbol
_atom_site_fract_x
_atom_site_fract_y
_atom_site_fract_z
C1 C 0.853600 0.774300 0.198700
C2 C 0.882200 0.971600 0.301100
C3 C 0.892400 0.868100 0.425700
N4 N 0.863600 0.655800 0.401800
C5 C 0.837700 0.599000 0.269400
O6 O 0.792000 0.442000 0.207200
O7 O 0.911800 0.972000 0.530600
O8 O 0.832900 0.559500 0.467000
C9 C 0.895700 0.467400 0.593600
O10 O 0.964100 0.475200 0.623800
O11 O 0.878900 0.331600 0.671800
C12 C 0.944500 0.293700 0.813700
C13 C 0.912500 0.203000 0.893100
S14 S 0.852500 -0.048700 0.806400
O15 O 0.911600 -0.247500 0.859800
O16 O 0.809200 -0.108100 0.874800
C17 C 0.778800 -0.084300 0.616900
H18 H 0.800000 0.821600 0.097400
H19 H 0.900800 0.722000 0.189100
H20 H 0.938100 1.036200 0.323900
H21 H 0.836600 1.100100 0.257100
H22 H 0.985500 0.174500 0.817800
H23 H 0.976100 0.448400 0.860900
H24 H 0.962600 0.162500 0.999500
H25 H 0.875100 0.327400 0.895200
H26 H 0.759500 0.077100 0.567100
H27 H 0.806200 -0.175400 0.575500
H28 H 0.727300 -0.175400 0.596000
C29 C 0.646400 1.274300 1.301300
C30 C 0.617800 1.471600 1.198900
C31 C 0.607600 1.368100 1.074300
N32 N 0.636400 1.155800 1.098200
C33 C 0.662300 1.099000 1.230600
O34 O 0.708000 0.942000 1.292800
O35 O 0.588200 1.472000 0.969400
O36 O 0.667100 1.059500 1.033000
C37 C 0.604300 0.967400 0.906400
O38 O 0.535900 0.975200 0.876200
O39 O 0.621100 0.831600 0.828200
C40 C 0.555500 0.793700 0.686300
C41 C 0.587500 0.703000 0.606900
S42 S 0.647500 0.451300 0.693600
O43 O 0.588400 0.252500 0.640200
O44 O 0.690800 0.391900 0.625200
C45 C 0.721200 0.415700 0.883100
H46 H 0.700000 1.321600 1.402600
H47 H 0.599200 1.222000 1.310900
H48 H 0.561900 1.536200 1.176100
H49 H 0.663400 1.600100 1.242900
H50 H 0.514500 0.674500 0.682200
H51 H 0.523900 0.948400 0.639100
H52 H 0.537400 0.662500 0.500500
H53 H 0.624900 0.827400 0.604800
H54 H 0.740500 0.577100 0.932900
H55 H 0.693800 0.324600 0.924500
H56 H 0.772700 0.324600 0.904000
C57 C 0.146400 0.225700 0.801300
C58 C 0.117800 0.028400 0.698900
C59 C 0.107600 0.131900 0.574300
N60 N 0.136400 0.344200 0.598200
C61 C 0.162300 0.401000 0.730600
O62 O 0.208000 0.558000 0.792800
O63 O 0.088200 0.028000 0.469400
O64 O 0.167100 0.440500 0.533000
C65 C 0.104300 0.532600 0.406400
O66 O 0.035900 0.524800 0.376200
O67 O 0.121100 0.668400 0.328200
C68 C 0.055500 0.706300 0.186300
C69 C 0.087500 0.797000 0.106900
S70 S 0.147500 1.048700 0.193600
O71 O 0.088400 1.247500 0.140200
O72 O 0.190800 1.108100 0.125200
C73 C 0.221200 1.084300 0.383100
H74 H 0.200000 0.178400 0.902600
H75 H 0.099200 0.278000 0.810900
H76 H 0.061900 -0.036200 0.676100
H77 H 0.163400 -0.100100 0.742900
H78 H 0.014500 0.825500 0.182200
H79 H 0.023900 0.551600 0.139100
H80 H 0.037400 0.837500 0.000500
H81 H 0.124900 0.672600 0.104800
H82 H 0.240500 0.922900 0.432900
H83 H 0.193800 1.175400 0.424500
H84 H 0.272700 1.175400 0.404000
C85 C 0.353600 -0.274300 -0.301300
C86 C 0.382200 -0.471600 -0.198900
C87 C 0.392400 -0.368100 -0.074300
N88 N 0.363600 -0.155800 -0.098200
C89 C 0.337700 -0.099000 -0.230600
O90 O 0.292000 0.058000 -0.292800
O91 O 0.411800 -0.472000 0.030600
O92 O 0.332900 -0.059500 -0.033000
C93 C 0.395700 0.032600 0.093600
O94 O 0.464100 0.024800 0.123800
O95 O 0.378900 0.168400 0.171800
C96 C 0.444500 0.206300 0.313700
C97 C 0.412500 0.297000 0.393100
S98 S 0.352500 0.548700 0.306400
O99 O 0.411600 0.747500 0.359800
O100 O 0.309200 0.608100 0.374800
C101 C 0.278800 0.584300 0.116900
H102 H 0.300000 -0.321600 -0.402600
H103 H 0.400800 -0.222000 -0.310900
H104 H 0.438100 -0.536200 -0.176100
H105 H 0.336600 -0.600100 -0.242900
H106 H 0.485500 0.325500 0.317800
H107 H 0.476100 0.051600 0.360900
H108 H 0.462600 0.337500 0.499500
H109 H 0.375100 0.172600 0.395200
H110 H 0.259500 0.422900 0.067100
H111 H 0.306200 0.675400 0.075500
H112 H 0.227300 0.675400 0.096000

#END
