
#######################################################################
#
#                 Cambridge Crystallographic Data Centre
#                                CCDC 
#
#######################################################################
#
# If this CIF has been generated from an entry in the Cambridge 
# Structural Database, then it will include bibliographic, chemical, 
# crystal, experimental, refinement or atomic coordinate data resulting 
# from the CCDC's data processing and validation procedures.
#
#######################################################################

data_ACOWUM
_symmetry_cell_setting           triclinic
_symmetry_space_group_name_H-M   'P -1'
_symmetry_Int_Tables_number      2
_space_group_name_Hall           '-P 1'
loop_
_symmetry_equiv_pos_site_id
_symmetry_equiv_pos_as_xyz
1 x,y,z
2 -x,-y,-z
_cell_length_a                   9.5940(7)
_cell_length_b                   9.9987(7)
_cell_length_c                   10.1274(7)
_cell_angle_alpha                111.490(1)
_cell_angle_beta                 90.473(1)
_cell_angle_gamma                115.209(1)
_cell_volume                     802.142
loop_
_atom_site_label
_atom_site_type_symbol
_atom_site_fract_x
_atom_site_fract_y
_atom_site_fract_z
Pd1 Pd 0.5000 0.5000 0.5000
As1 As 0.52346(3) 0.73334(3) 0.71038(3)
O1 O 0.7017(3) 0.6771(3) 0.3572(3)
O2 O 0.8279(3) 0.6968(3) 0.5463(3)
N1 N 0.7057(3) 0.6435(3) 0.4613(3)
C1 C 0.5945(3) 0.9388(3) 0.6944(3)
C2 C 0.7400(3) 1.0086(3) 0.6561(3)
H1 H 0.8060 0.9578 0.6417
C3 C 0.7872(4) 1.1523(4) 0.6391(3)
H2 H 0.8863 1.2007 0.6142
C4 C 0.6888(4) 1.2260(4) 0.6586(3)
H3 H 0.7210 1.3238 0.6460
C5 C 0.5452(4) 1.1574(3) 0.6961(3)
H4 H 0.4793 1.2082 0.7095
C6 C 0.4966(3) 1.0129(3) 0.7146(3)
H5 H 0.3980 0.9656 0.7405
C7 C 0.6582(3) 0.7740(3) 0.8777(3)
C8 C 0.7649(3) 0.9304(3) 0.9729(3)
H6 H 0.7797 1.0201 0.9519
C9 C 0.8501(3) 0.9550(4) 1.0995(3)
H7 H 0.9240 1.0614 1.1641
C10 C 0.8263(3) 0.8231(4) 1.1306(3)
H8 H 0.8826 0.8398 1.2176
C11 C 0.7208(3) 0.6673(4) 1.0348(3)
H9 H 0.7054 0.5776 1.0563
C12 C 0.6377(3) 0.6420(3) 0.9076(3)
H10 H 0.5671 0.5351 0.8412
C13 C 0.3255(3) 0.6937(3) 0.7739(3)
C14 C 0.3095(3) 0.7002(3) 0.9125(3)
H11 H 0.3980 0.7302 0.9800
C15 C 0.1625(3) 0.6625(4) 0.9517(3)
H12 H 0.1509 0.6664 1.0459
C16 C 0.0336(3) 0.6192(4) 0.8527(3)
H13 H -0.0667 0.5914 0.8789
C17 C 0.0504(3) 0.6162(4) 0.7157(3)
H14 H -0.0375 0.5902 0.6495
C18 C 0.1950(3) 0.6512(3) 0.6755(3)
H15 H 0.2058 0.6464 0.5809
As1A As 0.47654(3) 0.26666(3) 0.28962(3)
O1A O 0.2983(3) 0.3229(3) 0.6428(3)
O2A O 0.1721(3) 0.3032(3) 0.4537(3)
N1A N 0.2943(3) 0.3565(3) 0.5387(3)
C1A C 0.4055(3) 0.0612(3) 0.3056(3)
C2A C 0.2600(3) -0.0086(3) 0.3439(3)
H1A H 0.1940 0.0422 0.3583
C3A C 0.2128(4) -0.1523(4) 0.3609(3)
H2A H 0.1137 -0.2007 0.3858
C4A C 0.3112(4) -0.2260(4) 0.3414(3)
H3A H 0.2790 -0.3238 0.3540
C5A C 0.4548(4) -0.1574(3) 0.3039(3)
H4A H 0.5207 -0.2082 0.2905
C6A C 0.5034(3) -0.0129(3) 0.2854(3)
H5A H 0.6020 0.0344 0.2595
C7A C 0.3418(3) 0.2260(3) 0.1223(3)
C8A C 0.2351(3) 0.0696(3) 0.0271(3)
H6A H 0.2203 -0.0201 0.0481
C9A C 0.1499(3) 0.0450(4) -0.0995(3)
H7A H 0.0760 -0.0614 -0.1641
C10A C 0.1737(3) 0.1769(4) -0.1306(3)
H8A H 0.1174 0.1602 -0.2176
C11A C 0.2792(3) 0.3327(4) -0.0348(3)
H9A H 0.2946 0.4224 -0.0563
C12A C 0.3623(3) 0.3580(3) 0.0924(3)
H10A H 0.4329 0.4649 0.1588
C13A C 0.6745(3) 0.3063(3) 0.2261(3)
C14A C 0.6905(3) 0.2998(3) 0.0875(3)
H11A H 0.6020 0.2698 0.0200
C15A C 0.8375(3) 0.3375(4) 0.0483(3)
H12A H 0.8491 0.3336 -0.0459
C16A C 0.9664(3) 0.3808(4) 0.1473(3)
H13A H 1.0667 0.4086 0.1211
C17A C 0.9496(3) 0.3838(4) 0.2843(3)
H14A H 1.0375 0.4098 0.3505
C18A C 0.8050(3) 0.3488(3) 0.3245(3)
H15A H 0.7942 0.3536 0.4191

#END
