
#######################################################################
#
#                 Cambridge Crystallographic Data Centre
#                                CCDC 
#
#######################################################################
#
# If this CIF has been generated from an entry in the Cambridge 
# Structural Database, then it will include bibliographic, chemical, 
# crystal, experimental, refinement or atomic coordinate data resulting 
# from the CCDC's data processing and validation procedures.
#
#######################################################################

data_ACOYOG
_symmetry_cell_setting           triclinic
_symmetry_space_group_name_H-M   'P -1'
_symmetry_Int_Tables_number      2
_space_group_name_Hall           '-P 1'
loop_
_symmetry_equiv_pos_site_id
_symmetry_equiv_pos_as_xyz
1 x,y,z
2 -x,-y,-z
_cell_length_a                   7.7074(15)
_cell_length_b                   9.146(2)
_cell_length_c                   11.804(2)
_cell_angle_alpha                87.94(3)
_cell_angle_beta                 86.55(3)
_cell_angle_gamma                71.33(3)
_cell_volume                     786.749
loop_
_atom_site_label
_atom_site_type_symbol
_atom_site_fract_x
_atom_site_fract_y
_atom_site_fract_z
O1 O 0.9000(2) 0.7656(2) 0.66219(13)
H1 H 0.9294(9) 0.7628(33) 0.59243(14)
O2 O 0.4284(2) 0.7346(2) 0.91814(12)
H2 H 0.3152(7) 0.7484(34) 0.9249(6)
C1 C 0.7181(3) 0.7813(3) 0.6776(2)
C2 C 0.6565(3) 0.7561(3) 0.7866(2)
H3 H 0.7391(3) 0.7322(3) 0.8463(2)
C3 C 0.4751(3) 0.7656(3) 0.8091(2)
C4 C 0.3538(3) 0.8029(3) 0.7234(2)
H4 H 0.2292(3) 0.8091(3) 0.7384(2)
C5 C 0.4162(3) 0.8312(3) 0.6154(2)
H5 H 0.3328(3) 0.8584(3) 0.5562(2)
C6 C 0.5977(3) 0.8206(3) 0.5916(2)
H6 H 0.6387(3) 0.8402(3) 0.5168(2)
O1 O 0.1000(2) 0.2344(2) 0.33781(13)
H1 H 0.0706(9) 0.2372(33) 0.40757(14)
O2 O 0.5716(2) 0.2654(2) 0.08186(12)
H2 H 0.6848(7) 0.2516(34) 0.0751(6)
C1 C 0.2819(3) 0.2187(3) 0.3224(2)
C2 C 0.3435(3) 0.2439(3) 0.2134(2)
H3 H 0.2609(3) 0.2678(3) 0.1537(2)
C3 C 0.5249(3) 0.2344(3) 0.1909(2)
C4 C 0.6462(3) 0.1971(3) 0.2766(2)
H4 H 0.7708(3) 0.1909(3) 0.2616(2)
C5 C 0.5838(3) 0.1688(3) 0.3846(2)
H5 H 0.6672(3) 0.1416(3) 0.4438(2)
C6 C 0.4023(3) 0.1794(3) 0.4084(2)
H6 H 0.3613(3) 0.1598(3) 0.4832(2)
N1 N 0.0627(2) 0.7432(3) 0.4488(2)
N2 N 1.0947(3) 0.7253(3) -0.0057(2)
C7 C 0.1995(3) 0.6117(3) 0.4400(2)
H7 H 0.1953(3) 0.5285(3) 0.4895(2)
C8 C 0.3464(3) 0.5885(3) 0.3639(2)
H8 H 0.4411(3) 0.4917(3) 0.3621(2)
C9 C 0.3567(3) 0.7057(3) 0.2902(2)
C10 C 0.2146(3) 0.8427(3) 0.2987(2)
H9 H 0.2152(3) 0.9275(3) 0.2500(2)
C11 C 0.0729(3) 0.8568(3) 0.3771(2)
H10 H -0.0235(3) 0.9525(3) 0.3809(2)
C12 C 0.5164(3) 0.6858(4) 0.2049(2)
H11 H 0.5709(3) 0.5751(4) 0.1869(2)
H12 H 0.4710(3) 0.7424(4) 0.1340(2)
C13 C 0.6617(3) 0.7431(4) 0.2470(2)
H13 H 0.7144(3) 0.6807(4) 0.3143(2)
H14 H 0.6053(3) 0.8514(4) 0.2710(2)
C14 C 0.8136(3) 0.7348(3) 0.1579(2)
C15 C 0.9761(3) 0.6157(3) 0.1550(2)
H15 H 0.9950(3) 0.5335(3) 0.2092(2)
C16 C 1.1118(3) 0.6152(3) 0.0736(2)
H16 H 1.2236(3) 0.5320(3) 0.0741(2)
C17 C 0.7937(3) 0.8485(3) 0.0747(2)
H17 H 0.6829(3) 0.9326(3) 0.0718(2)
C18 C 0.9363(3) 0.8384(3) -0.0041(2)
H18 H 0.9198(3) 0.9175(3) -0.0608(2)
N1 N 0.9373(2) 0.2568(3) 0.5512(2)
N2 N -0.0947(3) 0.2747(3) 1.0057(2)
C7 C 0.8005(3) 0.3883(3) 0.5600(2)
H7 H 0.8047(3) 0.4715(3) 0.5105(2)
C8 C 0.6536(3) 0.4115(3) 0.6361(2)
H8 H 0.5589(3) 0.5083(3) 0.6379(2)
C9 C 0.6433(3) 0.2943(3) 0.7098(2)
C10 C 0.7854(3) 0.1573(3) 0.7013(2)
H9 H 0.7848(3) 0.0725(3) 0.7500(2)
C11 C 0.9271(3) 0.1432(3) 0.6229(2)
H10 H 1.0235(3) 0.0475(3) 0.6191(2)
C12 C 0.4836(3) 0.3142(4) 0.7951(2)
H11 H 0.4291(3) 0.4249(4) 0.8131(2)
H12 H 0.5290(3) 0.2576(4) 0.8660(2)
C13 C 0.3383(3) 0.2569(4) 0.7530(2)
H13 H 0.2856(3) 0.3193(4) 0.6857(2)
H14 H 0.3947(3) 0.1486(4) 0.7290(2)
C14 C 0.1864(3) 0.2652(3) 0.8421(2)
C15 C 0.0239(3) 0.3843(3) 0.8450(2)
H15 H 0.0050(3) 0.4665(3) 0.7908(2)
C16 C -0.1118(3) 0.3848(3) 0.9264(2)
H16 H -0.2236(3) 0.4680(3) 0.9259(2)
C17 C 0.2063(3) 0.1515(3) 0.9253(2)
H17 H 0.3171(3) 0.0674(3) 0.9282(2)
C18 C 0.0637(3) 0.1616(3) 1.0041(2)
H18 H 0.0802(3) 0.0825(3) 1.0608(2)

#END
