./ACPHQU_from_xyz.cif_generated_by_CrystalShift
_symmetry_cell_setting triclinic
_symmetry_space_group_name_H-M 'P 1'
loop_
_symmetry_equiv_pos_site_id
_symmetry_equiv_pos_as_xyz
1 x,y,z
_cell_length_a 10.375000
_cell_length_b 7.566000
_cell_length_c 21.281000
_cell_angle_alpha 90.000000
_cell_angle_beta 102.910000
_cell_angle_gamma 90.000000
_cell_volume 1628.273402
loop_
_atom_site_label
_atom_site_type_symbol
_atom_site_fract_x
_atom_site_fract_y
_atom_site_fract_z
C1 C 0.572800 0.325100 0.606100
C2 C 0.675800 0.219400 0.638100
C3 C 0.656200 0.105500 0.686200
C4 C 0.535000 0.100400 0.703300
C5 C 0.430700 0.211600 0.673300
C6 C 0.302500 0.215000 0.693100
C7 C 0.288700 0.141900 0.751800
C8 C 0.168900 0.144700 0.769600
C9 C 0.060100 0.222400 0.729700
C10 C 0.071700 0.297500 0.671600
C11 C 0.191900 0.294000 0.653300
C12 C 0.202300 0.371100 0.589100
C13 C 0.340100 0.438000 0.587500
C14 C 0.451000 0.322100 0.623400
C15 C 0.337900 0.626800 0.611700
C16 C 0.195700 0.687500 0.583600
O17 O 0.119000 0.525500 0.573700
C18 C 0.171200 0.243800 0.532300
C19 C 0.240500 0.327300 0.482900
O20 O 0.339900 0.443600 0.519600
C21 C 0.138000 0.807900 0.626600
O22 O 0.181600 0.771900 0.523500
C23 C 0.307200 0.196400 0.446700
O24 O 0.156900 0.433800 0.436800
H25 H 0.587000 0.409000 0.571000
H26 H 0.766000 0.227000 0.624000
H27 H 0.730000 0.033000 0.710000
H28 H 0.519000 0.010000 0.736000
H29 H 0.367000 0.083000 0.782000
H30 H 0.160000 0.090000 0.813000
H31 H -0.026000 0.230000 0.741000
H32 H -0.005000 0.355000 0.642000
H33 H 0.400000 0.706000 0.597000
H34 H 0.356000 0.635000 0.662000
H35 H 0.074000 0.229000 0.516000
H36 H 0.208000 0.126000 0.545000
H37 H 0.187000 0.911000 0.635000
H38 H 0.139000 0.744000 0.668000
H39 H 0.041000 0.836000 0.607000
H40 H 0.236000 0.110000 0.424000
H41 H 0.372000 0.129000 0.478000
H42 H 0.349000 0.266000 0.415000
H43 H 0.214000 0.703000 0.502000
H44 H 0.084000 0.450000 0.446000
C45 C 0.427200 0.825100 0.893900
C46 C 0.324200 0.719400 0.861900
C47 C 0.343800 0.605500 0.813800
C48 C 0.465000 0.600400 0.796700
C49 C 0.569300 0.711600 0.826700
C50 C 0.697500 0.715000 0.806900
C51 C 0.711300 0.641900 0.748200
C52 C 0.831100 0.644700 0.730400
C53 C 0.939900 0.722400 0.770300
C54 C 0.928300 0.797500 0.828400
C55 C 0.808100 0.794000 0.846700
C56 C 0.797700 0.871100 0.910900
C57 C 0.659900 0.938000 0.912500
C58 C 0.549000 0.822100 0.876600
C59 C 0.662100 1.126800 0.888300
C60 C 0.804300 1.187500 0.916400
O61 O 0.881000 1.025500 0.926300
C62 C 0.828800 0.743800 0.967700
C63 C 0.759500 0.827300 1.017100
O64 O 0.660100 0.943600 0.980400
C65 C 0.862000 1.307900 0.873400
O66 O 0.818400 1.271900 0.976500
C67 C 0.692800 0.696400 1.053300
O68 O 0.843100 0.933800 1.063200
H69 H 0.413000 0.909000 0.929000
H70 H 0.234000 0.727000 0.876000
H71 H 0.270000 0.533000 0.790000
H72 H 0.481000 0.510000 0.764000
H73 H 0.633000 0.583000 0.718000
H74 H 0.840000 0.590000 0.687000
H75 H 1.026000 0.730000 0.759000
H76 H 1.005000 0.855000 0.858000
H77 H 0.600000 1.206000 0.903000
H78 H 0.644000 1.135000 0.838000
H79 H 0.926000 0.729000 0.984000
H80 H 0.792000 0.626000 0.955000
H81 H 0.813000 1.411000 0.865000
H82 H 0.861000 1.244000 0.832000
H83 H 0.959000 1.336000 0.893000
H84 H 0.764000 0.610000 1.076000
H85 H 0.628000 0.629000 1.022000
H86 H 0.651000 0.766000 1.085000
H87 H 0.786000 1.203000 0.998000
H88 H 0.916000 0.950000 1.054000
C89 C 0.427200 0.674900 0.393900
C90 C 0.324200 0.780600 0.361900
C91 C 0.343800 0.894500 0.313800
C92 C 0.465000 0.899600 0.296700
C93 C 0.569300 0.788400 0.326700
C94 C 0.697500 0.785000 0.306900
C95 C 0.711300 0.858100 0.248200
C96 C 0.831100 0.855300 0.230400
C97 C 0.939900 0.777600 0.270300
C98 C 0.928300 0.702500 0.328400
C99 C 0.808100 0.706000 0.346700
C100 C 0.797700 0.628900 0.410900
C101 C 0.659900 0.562000 0.412500
C102 C 0.549000 0.677900 0.376600
C103 C 0.662100 0.373200 0.388300
C104 C 0.804300 0.312500 0.416400
O105 O 0.881000 0.474500 0.426300
C106 C 0.828800 0.756200 0.467700
C107 C 0.759500 0.672700 0.517100
O108 O 0.660100 0.556400 0.480400
C109 C 0.862000 0.192100 0.373400
O110 O 0.818400 0.228100 0.476500
C111 C 0.692800 0.803600 0.553300
O112 O 0.843100 0.566200 0.563200
H113 H 0.413000 0.591000 0.429000
H114 H 0.234000 0.773000 0.376000
H115 H 0.270000 0.967000 0.290000
H116 H 0.481000 0.990000 0.264000
H117 H 0.633000 0.917000 0.218000
H118 H 0.840000 0.910000 0.187000
H119 H 1.026000 0.770000 0.259000
H120 H 1.005000 0.645000 0.358000
H121 H 0.600000 0.294000 0.403000
H122 H 0.644000 0.365000 0.338000
H123 H 0.926000 0.771000 0.484000
H124 H 0.792000 0.874000 0.455000
H125 H 0.813000 0.089000 0.365000
H126 H 0.861000 0.256000 0.332000
H127 H 0.959000 0.164000 0.393000
H128 H 0.764000 0.890000 0.576000
H129 H 0.628000 0.871000 0.522000
H130 H 0.651000 0.734000 0.585000
H131 H 0.786000 0.297000 0.498000
H132 H 0.916000 0.550000 0.554000
C133 C 0.572800 0.174900 0.106100
C134 C 0.675800 0.280600 0.138100
C135 C 0.656200 0.394500 0.186200
C136 C 0.535000 0.399600 0.203300
C137 C 0.430700 0.288400 0.173300
C138 C 0.302500 0.285000 0.193100
C139 C 0.288700 0.358100 0.251800
C140 C 0.168900 0.355300 0.269600
C141 C 0.060100 0.277600 0.229700
C142 C 0.071700 0.202500 0.171600
C143 C 0.191900 0.206000 0.153300
C144 C 0.202300 0.128900 0.089100
C145 C 0.340100 0.062000 0.087500
C146 C 0.451000 0.177900 0.123400
C147 C 0.337900 -0.126800 0.111700
C148 C 0.195700 -0.187500 0.083600
O149 O 0.119000 -0.025500 0.073700
C150 C 0.171200 0.256200 0.032300
C151 C 0.240500 0.172700 -0.017100
O152 O 0.339900 0.056400 0.019600
C153 C 0.138000 -0.307900 0.126600
O154 O 0.181600 -0.271900 0.023500
C155 C 0.307200 0.303600 -0.053300
O156 O 0.156900 0.066200 -0.063200
H157 H 0.587000 0.091000 0.071000
H158 H 0.766000 0.273000 0.124000
H159 H 0.730000 0.467000 0.210000
H160 H 0.519000 0.490000 0.236000
H161 H 0.367000 0.417000 0.282000
H162 H 0.160000 0.410000 0.313000
H163 H -0.026000 0.270000 0.241000
H164 H -0.005000 0.145000 0.142000
H165 H 0.400000 -0.206000 0.097000
H166 H 0.356000 -0.135000 0.162000
H167 H 0.074000 0.271000 0.016000
H168 H 0.208000 0.374000 0.045000
H169 H 0.187000 -0.411000 0.135000
H170 H 0.139000 -0.244000 0.168000
H171 H 0.041000 -0.336000 0.107000
H172 H 0.236000 0.390000 -0.076000
H173 H 0.372000 0.371000 -0.022000
H174 H 0.349000 0.234000 -0.085000
H175 H 0.214000 -0.203000 0.002000
H176 H 0.084000 0.050000 -0.054000

#END
