./KABBEU_from_xyz.cif_generated_by_CrystalShift
_symmetry_cell_setting triclinic
_symmetry_space_group_name_H-M 'P 1'
loop_
_symmetry_equiv_pos_site_id
_symmetry_equiv_pos_as_xyz
1 x,y,z
_cell_length_a 16.126000
_cell_length_b 16.126000
_cell_length_c 16.126000
_cell_angle_alpha 90.000000
_cell_angle_beta 90.000000
_cell_angle_gamma 90.000000
_cell_volume 4193.532048
loop_
_atom_site_label
_atom_site_type_symbol
_atom_site_fract_x
_atom_site_fract_y
_atom_site_fract_z
Au1 Au 0.092920 0.092920 0.092920
P2 P 0.174600 0.174600 0.174600
C3 C 0.021300 0.021300 0.021300
C4 C 0.216500 0.263200 0.119500
C5 C 0.293900 0.296800 0.137300
C6 C 0.323500 0.365200 0.091500
C7 C 0.277300 0.397700 0.031100
C8 C 0.200100 0.366600 0.013200
C9 C 0.170500 0.297500 0.057100
H10 H 0.337400 0.284300 0.176900
H11 H 0.377700 0.377200 0.114800
H12 H 0.284800 0.442900 -0.008000
H13 H 0.156200 0.380300 -0.025600
H14 H 0.116800 0.285400 0.032800
C15 C 0.119500 0.216500 0.263200
C16 C 0.263200 0.119500 0.216500
C17 C -0.021300 -0.021300 -0.021300
C18 C 0.137300 0.293900 0.296800
C19 C 0.057100 0.170500 0.297500
C20 C 0.296800 0.137300 0.293900
C21 C 0.297500 0.057100 0.170500
Au22 Au -0.092920 -0.092920 -0.092920
C23 C 0.091500 0.323500 0.365200
H24 H 0.176900 0.337400 0.284300
C25 C 0.013200 0.200100 0.366600
H26 H 0.032800 0.116800 0.285400
C27 C 0.365200 0.091500 0.323500
H28 H 0.284300 0.176900 0.337400
C29 C 0.366600 0.013200 0.200100
H30 H 0.285400 0.032800 0.116800
P31 P -0.174600 -0.174600 -0.174600
C32 C 0.031100 0.277300 0.397700
H33 H 0.114800 0.377700 0.377200
H34 H -0.025600 0.156200 0.380300
C35 C 0.397700 0.031100 0.277300
H36 H 0.377200 0.114800 0.377700
H37 H 0.380300 -0.025600 0.156200
C38 C -0.216500 -0.263200 -0.119500
C39 C -0.119500 -0.216500 -0.263200
C40 C -0.263200 -0.119500 -0.216500
H41 H -0.008000 0.284800 0.442900
H42 H 0.442900 -0.008000 0.284800
C43 C -0.293900 -0.296800 -0.137300
C44 C -0.170500 -0.297500 -0.057100
C45 C -0.137300 -0.293900 -0.296800
C46 C -0.057100 -0.170500 -0.297500
C47 C -0.296800 -0.137300 -0.293900
C48 C -0.297500 -0.057100 -0.170500
C49 C -0.323500 -0.365200 -0.091500
H50 H -0.337400 -0.284300 -0.176900
C51 C -0.200100 -0.366600 -0.013200
H52 H -0.116800 -0.285400 -0.032800
C53 C -0.091500 -0.323500 -0.365200
H54 H -0.176900 -0.337400 -0.284300
C55 C -0.013200 -0.200100 -0.366600
H56 H -0.032800 -0.116800 -0.285400
C57 C -0.365200 -0.091500 -0.323500
H58 H -0.284300 -0.176900 -0.337400
C59 C -0.366600 -0.013200 -0.200100
H60 H -0.285400 -0.032800 -0.116800
C61 C -0.277300 -0.397700 -0.031100
H62 H -0.377700 -0.377200 -0.114800
H63 H -0.156200 -0.380300 0.025600
C64 C -0.031100 -0.277300 -0.397700
H65 H -0.114800 -0.377700 -0.377200
H66 H 0.025600 -0.156200 -0.380300
C67 C -0.397700 -0.031100 -0.277300
H68 H -0.377200 -0.114800 -0.377700
H69 H -0.380300 0.025600 -0.156200
H70 H -0.284800 -0.442900 0.008000
H71 H 0.008000 -0.284800 -0.442900
H72 H -0.442900 0.008000 -0.284800
Au73 Au 0.092920 0.092920 1.092920
P74 P 0.174600 0.174600 1.174600
C75 C 0.021300 0.021300 1.021300
C76 C 0.216500 0.263200 1.119500
C77 C 0.293900 0.296800 1.137300
C78 C 0.323500 0.365200 1.091500
C79 C 0.277300 0.397700 1.031100
C80 C 0.200100 0.366600 1.013200
C81 C 0.170500 0.297500 1.057100
H82 H 0.337400 0.284300 1.176900
H83 H 0.377700 0.377200 1.114800
H84 H 0.284800 0.442900 0.992000
H85 H 0.156200 0.380300 0.974400
H86 H 0.116800 0.285400 1.032800
C87 C 0.119500 0.216500 1.263200
C88 C 0.263200 0.119500 1.216500
C89 C -0.021300 -0.021300 0.978700
C90 C 0.137300 0.293900 1.296800
C91 C 0.057100 0.170500 1.297500
C92 C 0.296800 0.137300 1.293900
C93 C 0.297500 0.057100 1.170500
Au94 Au -0.092920 -0.092920 0.907080
C95 C 0.091500 0.323500 1.365200
H96 H 0.176900 0.337400 1.284300
C97 C 0.013200 0.200100 1.366600
H98 H 0.032800 0.116800 1.285400
C99 C 0.365200 0.091500 1.323500
H100 H 0.284300 0.176900 1.337400
C101 C 0.366600 0.013200 1.200100
H102 H 0.285400 0.032800 1.116800
P103 P -0.174600 -0.174600 0.825400
C104 C 0.031100 0.277300 1.397700
H105 H 0.114800 0.377700 1.377200
H106 H -0.025600 0.156200 1.380300
C107 C 0.397700 0.031100 1.277300
H108 H 0.377200 0.114800 1.377700
H109 H 0.380300 -0.025600 1.156200
C110 C -0.216500 -0.263200 0.880500
C111 C -0.119500 -0.216500 0.736800
C112 C -0.263200 -0.119500 0.783500
H113 H -0.008000 0.284800 1.442900
H114 H 0.442900 -0.008000 1.284800
C115 C -0.293900 -0.296800 0.862700
C116 C -0.170500 -0.297500 0.942900
C117 C -0.137300 -0.293900 0.703200
C118 C -0.057100 -0.170500 0.702500
C119 C -0.296800 -0.137300 0.706100
C120 C -0.297500 -0.057100 0.829500
C121 C -0.323500 -0.365200 0.908500
H122 H -0.337400 -0.284300 0.823100
C123 C -0.200100 -0.366600 0.986800
H124 H -0.116800 -0.285400 0.967200
C125 C -0.091500 -0.323500 0.634800
H126 H -0.176900 -0.337400 0.715700
C127 C -0.013200 -0.200100 0.633400
H128 H -0.032800 -0.116800 0.714600
C129 C -0.365200 -0.091500 0.676500
H130 H -0.284300 -0.176900 0.662600
C131 C -0.366600 -0.013200 0.799900
H132 H -0.285400 -0.032800 0.883200
C133 C -0.277300 -0.397700 0.968900
H134 H -0.377700 -0.377200 0.885200
H135 H -0.156200 -0.380300 1.025600
C136 C -0.031100 -0.277300 0.602300
H137 H -0.114800 -0.377700 0.622800
H138 H 0.025600 -0.156200 0.619700
C139 C -0.397700 -0.031100 0.722700
H140 H -0.377200 -0.114800 0.622300
H141 H -0.380300 0.025600 0.843800
H142 H -0.284800 -0.442900 1.008000
H143 H 0.008000 -0.284800 0.557100
H144 H -0.442900 0.008000 0.715200
Au145 Au 0.092920 1.092920 0.092920
P146 P 0.174600 1.174600 0.174600
C147 C 0.021300 1.021300 0.021300
C148 C 0.216500 1.263200 0.119500
C149 C 0.293900 1.296800 0.137300
C150 C 0.323500 1.365200 0.091500
C151 C 0.277300 1.397700 0.031100
C152 C 0.200100 1.366600 0.013200
C153 C 0.170500 1.297500 0.057100
H154 H 0.337400 1.284300 0.176900
H155 H 0.377700 1.377200 0.114800
H156 H 0.284800 1.442900 -0.008000
H157 H 0.156200 1.380300 -0.025600
H158 H 0.116800 1.285400 0.032800
C159 C 0.119500 1.216500 0.263200
C160 C 0.263200 1.119500 0.216500
C161 C -0.021300 0.978700 -0.021300
C162 C 0.137300 1.293900 0.296800
C163 C 0.057100 1.170500 0.297500
C164 C 0.296800 1.137300 0.293900
C165 C 0.297500 1.057100 0.170500
Au166 Au -0.092920 0.907080 -0.092920
C167 C 0.091500 1.323500 0.365200
H168 H 0.176900 1.337400 0.284300
C169 C 0.013200 1.200100 0.366600
H170 H 0.032800 1.116800 0.285400
C171 C 0.365200 1.091500 0.323500
H172 H 0.284300 1.176900 0.337400
C173 C 0.366600 1.013200 0.200100
H174 H 0.285400 1.032800 0.116800
P175 P -0.174600 0.825400 -0.174600
C176 C 0.031100 1.277300 0.397700
H177 H 0.114800 1.377700 0.377200
H178 H -0.025600 1.156200 0.380300
C179 C 0.397700 1.031100 0.277300
H180 H 0.377200 1.114800 0.377700
H181 H 0.380300 0.974400 0.156200
C182 C -0.216500 0.736800 -0.119500
C183 C -0.119500 0.783500 -0.263200
C184 C -0.263200 0.880500 -0.216500
H185 H -0.008000 1.284800 0.442900
H186 H 0.442900 0.992000 0.284800
C187 C -0.293900 0.703200 -0.137300
C188 C -0.170500 0.702500 -0.057100
C189 C -0.137300 0.706100 -0.296800
C190 C -0.057100 0.829500 -0.297500
C191 C -0.296800 0.862700 -0.293900
C192 C -0.297500 0.942900 -0.170500
C193 C -0.323500 0.634800 -0.091500
H194 H -0.337400 0.715700 -0.176900
C195 C -0.200100 0.633400 -0.013200
H196 H -0.116800 0.714600 -0.032800
C197 C -0.091500 0.676500 -0.365200
H198 H -0.176900 0.662600 -0.284300
C199 C -0.013200 0.799900 -0.366600
H200 H -0.032800 0.883200 -0.285400
C201 C -0.365200 0.908500 -0.323500
H202 H -0.284300 0.823100 -0.337400
C203 C -0.366600 0.986800 -0.200100
H204 H -0.285400 0.967200 -0.116800
C205 C -0.277300 0.602300 -0.031100
H206 H -0.377700 0.622800 -0.114800
H207 H -0.156200 0.619700 0.025600
C208 C -0.031100 0.722700 -0.397700
H209 H -0.114800 0.622300 -0.377200
H210 H 0.025600 0.843800 -0.380300
C211 C -0.397700 0.968900 -0.277300
H212 H -0.377200 0.885200 -0.377700
H213 H -0.380300 1.025600 -0.156200
H214 H -0.284800 0.557100 0.008000
H215 H 0.008000 0.715200 -0.442900
H216 H -0.442900 1.008000 -0.284800
Au217 Au 0.092920 1.092920 1.092920
P218 P 0.174600 1.174600 1.174600
C219 C 0.021300 1.021300 1.021300
C220 C 0.216500 1.263200 1.119500
C221 C 0.293900 1.296800 1.137300
C222 C 0.323500 1.365200 1.091500
C223 C 0.277300 1.397700 1.031100
C224 C 0.200100 1.366600 1.013200
C225 C 0.170500 1.297500 1.057100
H226 H 0.337400 1.284300 1.176900
H227 H 0.377700 1.377200 1.114800
H228 H 0.284800 1.442900 0.992000
H229 H 0.156200 1.380300 0.974400
H230 H 0.116800 1.285400 1.032800
C231 C 0.119500 1.216500 1.263200
C232 C 0.263200 1.119500 1.216500
C233 C -0.021300 0.978700 0.978700
C234 C 0.137300 1.293900 1.296800
C235 C 0.057100 1.170500 1.297500
C236 C 0.296800 1.137300 1.293900
C237 C 0.297500 1.057100 1.170500
Au238 Au -0.092920 0.907080 0.907080
C239 C 0.091500 1.323500 1.365200
H240 H 0.176900 1.337400 1.284300
C241 C 0.013200 1.200100 1.366600
H242 H 0.032800 1.116800 1.285400
C243 C 0.365200 1.091500 1.323500
H244 H 0.284300 1.176900 1.337400
C245 C 0.366600 1.013200 1.200100
H246 H 0.285400 1.032800 1.116800
P247 P -0.174600 0.825400 0.825400
C248 C 0.031100 1.277300 1.397700
H249 H 0.114800 1.377700 1.377200
H250 H -0.025600 1.156200 1.380300
C251 C 0.397700 1.031100 1.277300
H252 H 0.377200 1.114800 1.377700
H253 H 0.380300 0.974400 1.156200
C254 C -0.216500 0.736800 0.880500
C255 C -0.119500 0.783500 0.736800
C256 C -0.263200 0.880500 0.783500
H257 H -0.008000 1.284800 1.442900
H258 H 0.442900 0.992000 1.284800
C259 C -0.293900 0.703200 0.862700
C260 C -0.170500 0.702500 0.942900
C261 C -0.137300 0.706100 0.703200
C262 C -0.057100 0.829500 0.702500
C263 C -0.296800 0.862700 0.706100
C264 C -0.297500 0.942900 0.829500
C265 C -0.323500 0.634800 0.908500
H266 H -0.337400 0.715700 0.823100
C267 C -0.200100 0.633400 0.986800
H268 H -0.116800 0.714600 0.967200
C269 C -0.091500 0.676500 0.634800
H270 H -0.176900 0.662600 0.715700
C271 C -0.013200 0.799900 0.633400
H272 H -0.032800 0.883200 0.714600
C273 C -0.365200 0.908500 0.676500
H274 H -0.284300 0.823100 0.662600
C275 C -0.366600 0.986800 0.799900
H276 H -0.285400 0.967200 0.883200
C277 C -0.277300 0.602300 0.968900
H278 H -0.377700 0.622800 0.885200
H279 H -0.156200 0.619700 1.025600
C280 C -0.031100 0.722700 0.602300
H281 H -0.114800 0.622300 0.622800
H282 H 0.025600 0.843800 0.619700
C283 C -0.397700 0.968900 0.722700
H284 H -0.377200 0.885200 0.622300
H285 H -0.380300 1.025600 0.843800
H286 H -0.284800 0.557100 1.008000
H287 H 0.008000 0.715200 0.557100
H288 H -0.442900 1.008000 0.715200
Au289 Au 1.092920 0.092920 0.092920
P290 P 1.174600 0.174600 0.174600
C291 C 1.021300 0.021300 0.021300
C292 C 1.216500 0.263200 0.119500
C293 C 1.293900 0.296800 0.137300
C294 C 1.323500 0.365200 0.091500
C295 C 1.277300 0.397700 0.031100
C296 C 1.200100 0.366600 0.013200
C297 C 1.170500 0.297500 0.057100
H298 H 1.337400 0.284300 0.176900
H299 H 1.377700 0.377200 0.114800
H300 H 1.284800 0.442900 -0.008000
H301 H 1.156200 0.380300 -0.025600
H302 H 1.116800 0.285400 0.032800
C303 C 1.119500 0.216500 0.263200
C304 C 1.263200 0.119500 0.216500
C305 C 0.978700 -0.021300 -0.021300
C306 C 1.137300 0.293900 0.296800
C307 C 1.057100 0.170500 0.297500
C308 C 1.296800 0.137300 0.293900
C309 C 1.297500 0.057100 0.170500
Au310 Au 0.907080 -0.092920 -0.092920
C311 C 1.091500 0.323500 0.365200
H312 H 1.176900 0.337400 0.284300
C313 C 1.013200 0.200100 0.366600
H314 H 1.032800 0.116800 0.285400
C315 C 1.365200 0.091500 0.323500
H316 H 1.284300 0.176900 0.337400
C317 C 1.366600 0.013200 0.200100
H318 H 1.285400 0.032800 0.116800
P319 P 0.825400 -0.174600 -0.174600
C320 C 1.031100 0.277300 0.397700
H321 H 1.114800 0.377700 0.377200
H322 H 0.974400 0.156200 0.380300
C323 C 1.397700 0.031100 0.277300
H324 H 1.377200 0.114800 0.377700
H325 H 1.380300 -0.025600 0.156200
C326 C 0.783500 -0.263200 -0.119500
C327 C 0.880500 -0.216500 -0.263200
C328 C 0.736800 -0.119500 -0.216500
H329 H 0.992000 0.284800 0.442900
H330 H 1.442900 -0.008000 0.284800
C331 C 0.706100 -0.296800 -0.137300
C332 C 0.829500 -0.297500 -0.057100
C333 C 0.862700 -0.293900 -0.296800
C334 C 0.942900 -0.170500 -0.297500
C335 C 0.703200 -0.137300 -0.293900
C336 C 0.702500 -0.057100 -0.170500
C337 C 0.676500 -0.365200 -0.091500
H338 H 0.662600 -0.284300 -0.176900
C339 C 0.799900 -0.366600 -0.013200
H340 H 0.883200 -0.285400 -0.032800
C341 C 0.908500 -0.323500 -0.365200
H342 H 0.823100 -0.337400 -0.284300
C343 C 0.986800 -0.200100 -0.366600
H344 H 0.967200 -0.116800 -0.285400
C345 C 0.634800 -0.091500 -0.323500
H346 H 0.715700 -0.176900 -0.337400
C347 C 0.633400 -0.013200 -0.200100
H348 H 0.714600 -0.032800 -0.116800
C349 C 0.722700 -0.397700 -0.031100
H350 H 0.622300 -0.377200 -0.114800
H351 H 0.843800 -0.380300 0.025600
C352 C 0.968900 -0.277300 -0.397700
H353 H 0.885200 -0.377700 -0.377200
H354 H 1.025600 -0.156200 -0.380300
C355 C 0.602300 -0.031100 -0.277300
H356 H 0.622800 -0.114800 -0.377700
H357 H 0.619700 0.025600 -0.156200
H358 H 0.715200 -0.442900 0.008000
H359 H 1.008000 -0.284800 -0.442900
H360 H 0.557100 0.008000 -0.284800
Au361 Au 1.092920 0.092920 1.092920
P362 P 1.174600 0.174600 1.174600
C363 C 1.021300 0.021300 1.021300
C364 C 1.216500 0.263200 1.119500
C365 C 1.293900 0.296800 1.137300
C366 C 1.323500 0.365200 1.091500
C367 C 1.277300 0.397700 1.031100
C368 C 1.200100 0.366600 1.013200
C369 C 1.170500 0.297500 1.057100
H370 H 1.337400 0.284300 1.176900
H371 H 1.377700 0.377200 1.114800
H372 H 1.284800 0.442900 0.992000
H373 H 1.156200 0.380300 0.974400
H374 H 1.116800 0.285400 1.032800
C375 C 1.119500 0.216500 1.263200
C376 C 1.263200 0.119500 1.216500
C377 C 0.978700 -0.021300 0.978700
C378 C 1.137300 0.293900 1.296800
C379 C 1.057100 0.170500 1.297500
C380 C 1.296800 0.137300 1.293900
C381 C 1.297500 0.057100 1.170500
Au382 Au 0.907080 -0.092920 0.907080
C383 C 1.091500 0.323500 1.365200
H384 H 1.176900 0.337400 1.284300
C385 C 1.013200 0.200100 1.366600
H386 H 1.032800 0.116800 1.285400
C387 C 1.365200 0.091500 1.323500
H388 H 1.284300 0.176900 1.337400
C389 C 1.366600 0.013200 1.200100
H390 H 1.285400 0.032800 1.116800
P391 P 0.825400 -0.174600 0.825400
C392 C 1.031100 0.277300 1.397700
H393 H 1.114800 0.377700 1.377200
H394 H 0.974400 0.156200 1.380300
C395 C 1.397700 0.031100 1.277300
H396 H 1.377200 0.114800 1.377700
H397 H 1.380300 -0.025600 1.156200
C398 C 0.783500 -0.263200 0.880500
C399 C 0.880500 -0.216500 0.736800
C400 C 0.736800 -0.119500 0.783500
H401 H 0.992000 0.284800 1.442900
H402 H 1.442900 -0.008000 1.284800
C403 C 0.706100 -0.296800 0.862700
C404 C 0.829500 -0.297500 0.942900
C405 C 0.862700 -0.293900 0.703200
C406 C 0.942900 -0.170500 0.702500
C407 C 0.703200 -0.137300 0.706100
C408 C 0.702500 -0.057100 0.829500
C409 C 0.676500 -0.365200 0.908500
H410 H 0.662600 -0.284300 0.823100
C411 C 0.799900 -0.366600 0.986800
H412 H 0.883200 -0.285400 0.967200
C413 C 0.908500 -0.323500 0.634800
H414 H 0.823100 -0.337400 0.715700
C415 C 0.986800 -0.200100 0.633400
H416 H 0.967200 -0.116800 0.714600
C417 C 0.634800 -0.091500 0.676500
H418 H 0.715700 -0.176900 0.662600
C419 C 0.633400 -0.013200 0.799900
H420 H 0.714600 -0.032800 0.883200
C421 C 0.722700 -0.397700 0.968900
H422 H 0.622300 -0.377200 0.885200
H423 H 0.843800 -0.380300 1.025600
C424 C 0.968900 -0.277300 0.602300
H425 H 0.885200 -0.377700 0.622800
H426 H 1.025600 -0.156200 0.619700
C427 C 0.602300 -0.031100 0.722700
H428 H 0.622800 -0.114800 0.622300
H429 H 0.619700 0.025600 0.843800
H430 H 0.715200 -0.442900 1.008000
H431 H 1.008000 -0.284800 0.557100
H432 H 0.557100 0.008000 0.715200
Au433 Au 1.092920 1.092920 0.092920
P434 P 1.174600 1.174600 0.174600
C435 C 1.021300 1.021300 0.021300
C436 C 1.216500 1.263200 0.119500
C437 C 1.293900 1.296800 0.137300
C438 C 1.323500 1.365200 0.091500
C439 C 1.277300 1.397700 0.031100
C440 C 1.200100 1.366600 0.013200
C441 C 1.170500 1.297500 0.057100
H442 H 1.337400 1.284300 0.176900
H443 H 1.377700 1.377200 0.114800
H444 H 1.284800 1.442900 -0.008000
H445 H 1.156200 1.380300 -0.025600
H446 H 1.116800 1.285400 0.032800
C447 C 1.119500 1.216500 0.263200
C448 C 1.263200 1.119500 0.216500
C449 C 0.978700 0.978700 -0.021300
C450 C 1.137300 1.293900 0.296800
C451 C 1.057100 1.170500 0.297500
C452 C 1.296800 1.137300 0.293900
C453 C 1.297500 1.057100 0.170500
Au454 Au 0.907080 0.907080 -0.092920
C455 C 1.091500 1.323500 0.365200
H456 H 1.176900 1.337400 0.284300
C457 C 1.013200 1.200100 0.366600
H458 H 1.032800 1.116800 0.285400
C459 C 1.365200 1.091500 0.323500
H460 H 1.284300 1.176900 0.337400
C461 C 1.366600 1.013200 0.200100
H462 H 1.285400 1.032800 0.116800
P463 P 0.825400 0.825400 -0.174600
C464 C 1.031100 1.277300 0.397700
H465 H 1.114800 1.377700 0.377200
H466 H 0.974400 1.156200 0.380300
C467 C 1.397700 1.031100 0.277300
H468 H 1.377200 1.114800 0.377700
H469 H 1.380300 0.974400 0.156200
C470 C 0.783500 0.736800 -0.119500
C471 C 0.880500 0.783500 -0.263200
C472 C 0.736800 0.880500 -0.216500
H473 H 0.992000 1.284800 0.442900
H474 H 1.442900 0.992000 0.284800
C475 C 0.706100 0.703200 -0.137300
C476 C 0.829500 0.702500 -0.057100
C477 C 0.862700 0.706100 -0.296800
C478 C 0.942900 0.829500 -0.297500
C479 C 0.703200 0.862700 -0.293900
C480 C 0.702500 0.942900 -0.170500
C481 C 0.676500 0.634800 -0.091500
H482 H 0.662600 0.715700 -0.176900
C483 C 0.799900 0.633400 -0.013200
H484 H 0.883200 0.714600 -0.032800
C485 C 0.908500 0.676500 -0.365200
H486 H 0.823100 0.662600 -0.284300
C487 C 0.986800 0.799900 -0.366600
H488 H 0.967200 0.883200 -0.285400
C489 C 0.634800 0.908500 -0.323500
H490 H 0.715700 0.823100 -0.337400
C491 C 0.633400 0.986800 -0.200100
H492 H 0.714600 0.967200 -0.116800
C493 C 0.722700 0.602300 -0.031100
H494 H 0.622300 0.622800 -0.114800
H495 H 0.843800 0.619700 0.025600
C496 C 0.968900 0.722700 -0.397700
H497 H 0.885200 0.622300 -0.377200
H498 H 1.025600 0.843800 -0.380300
C499 C 0.602300 0.968900 -0.277300
H500 H 0.622800 0.885200 -0.377700
H501 H 0.619700 1.025600 -0.156200
H502 H 0.715200 0.557100 0.008000
H503 H 1.008000 0.715200 -0.442900
H504 H 0.557100 1.008000 -0.284800
Au505 Au 1.092920 1.092920 1.092920
P506 P 1.174600 1.174600 1.174600
C507 C 1.021300 1.021300 1.021300
C508 C 1.216500 1.263200 1.119500
C509 C 1.293900 1.296800 1.137300
C510 C 1.323500 1.365200 1.091500
C511 C 1.277300 1.397700 1.031100
C512 C 1.200100 1.366600 1.013200
C513 C 1.170500 1.297500 1.057100
H514 H 1.337400 1.284300 1.176900
H515 H 1.377700 1.377200 1.114800
H516 H 1.284800 1.442900 0.992000
H517 H 1.156200 1.380300 0.974400
H518 H 1.116800 1.285400 1.032800
C519 C 1.119500 1.216500 1.263200
C520 C 1.263200 1.119500 1.216500
C521 C 0.978700 0.978700 0.978700
C522 C 1.137300 1.293900 1.296800
C523 C 1.057100 1.170500 1.297500
C524 C 1.296800 1.137300 1.293900
C525 C 1.297500 1.057100 1.170500
Au526 Au 0.907080 0.907080 0.907080
C527 C 1.091500 1.323500 1.365200
H528 H 1.176900 1.337400 1.284300
C529 C 1.013200 1.200100 1.366600
H530 H 1.032800 1.116800 1.285400
C531 C 1.365200 1.091500 1.323500
H532 H 1.284300 1.176900 1.337400
C533 C 1.366600 1.013200 1.200100
H534 H 1.285400 1.032800 1.116800
P535 P 0.825400 0.825400 0.825400
C536 C 1.031100 1.277300 1.397700
H537 H 1.114800 1.377700 1.377200
H538 H 0.974400 1.156200 1.380300
C539 C 1.397700 1.031100 1.277300
H540 H 1.377200 1.114800 1.377700
H541 H 1.380300 0.974400 1.156200
C542 C 0.783500 0.736800 0.880500
C543 C 0.880500 0.783500 0.736800
C544 C 0.736800 0.880500 0.783500
H545 H 0.992000 1.284800 1.442900
H546 H 1.442900 0.992000 1.284800
C547 C 0.706100 0.703200 0.862700
C548 C 0.829500 0.702500 0.942900
C549 C 0.862700 0.706100 0.703200
C550 C 0.942900 0.829500 0.702500
C551 C 0.703200 0.862700 0.706100
C552 C 0.702500 0.942900 0.829500
C553 C 0.676500 0.634800 0.908500
H554 H 0.662600 0.715700 0.823100
C555 C 0.799900 0.633400 0.986800
H556 H 0.883200 0.714600 0.967200
C557 C 0.908500 0.676500 0.634800
H558 H 0.823100 0.662600 0.715700
C559 C 0.986800 0.799900 0.633400
H560 H 0.967200 0.883200 0.714600
C561 C 0.634800 0.908500 0.676500
H562 H 0.715700 0.823100 0.662600
C563 C 0.633400 0.986800 0.799900
H564 H 0.714600 0.967200 0.883200
C565 C 0.722700 0.602300 0.968900
H566 H 0.622300 0.622800 0.885200
H567 H 0.843800 0.619700 1.025600
C568 C 0.968900 0.722700 0.602300
H569 H 0.885200 0.622300 0.622800
H570 H 1.025600 0.843800 0.619700
C571 C 0.602300 0.968900 0.722700
H572 H 0.622800 0.885200 0.622300
H573 H 0.619700 1.025600 0.843800
H574 H 0.715200 0.557100 1.008000
H575 H 1.008000 0.715200 0.557100
H576 H 0.557100 1.008000 0.715200
Au577 Au 0.592920 0.092920 0.407080
P578 P 0.674600 0.174600 0.325400
C579 C 0.521300 0.021300 0.478700
C580 C 0.716500 0.263200 0.380500
C581 C 0.793900 0.296800 0.362700
C582 C 0.823500 0.365200 0.408500
C583 C 0.777300 0.397700 0.468900
C584 C 0.700100 0.366600 0.486800
C585 C 0.670500 0.297500 0.442900
H586 H 0.837400 0.284300 0.323100
H587 H 0.877700 0.377200 0.385200
H588 H 0.784800 0.442900 0.508000
H589 H 0.656200 0.380300 0.525600
H590 H 0.616800 0.285400 0.467200
C591 C 0.619500 0.216500 0.236800
C592 C 0.763200 0.119500 0.283500
C593 C 0.478700 -0.021300 0.521300
C594 C 0.637300 0.293900 0.203200
C595 C 0.557100 0.170500 0.202500
C596 C 0.796800 0.137300 0.206100
C597 C 0.797500 0.057100 0.329500
Au598 Au 0.407080 -0.092920 0.592920
C599 C 0.591500 0.323500 0.134800
H600 H 0.676900 0.337400 0.215700
C601 C 0.513200 0.200100 0.133400
H602 H 0.532800 0.116800 0.214600
C603 C 0.865200 0.091500 0.176500
H604 H 0.784300 0.176900 0.162600
C605 C 0.866600 0.013200 0.299900
H606 H 0.785400 0.032800 0.383200
P607 P 0.325400 -0.174600 0.674600
C608 C 0.531100 0.277300 0.102300
H609 H 0.614800 0.377700 0.122800
H610 H 0.474400 0.156200 0.119700
C611 C 0.897700 0.031100 0.222700
H612 H 0.877200 0.114800 0.122300
H613 H 0.880300 -0.025600 0.343800
C614 C 0.283500 -0.263200 0.619500
C615 C 0.380500 -0.216500 0.763200
C616 C 0.236800 -0.119500 0.716500
H617 H 0.492000 0.284800 0.057100
H618 H 0.942900 -0.008000 0.215200
C619 C 0.206100 -0.296800 0.637300
C620 C 0.329500 -0.297500 0.557100
C621 C 0.362700 -0.293900 0.796800
C622 C 0.442900 -0.170500 0.797500
C623 C 0.203200 -0.137300 0.793900
C624 C 0.202500 -0.057100 0.670500
C625 C 0.176500 -0.365200 0.591500
H626 H 0.162600 -0.284300 0.676900
C627 C 0.299900 -0.366600 0.513200
H628 H 0.383200 -0.285400 0.532800
C629 C 0.408500 -0.323500 0.865200
H630 H 0.323100 -0.337400 0.784300
C631 C 0.486800 -0.200100 0.866600
H632 H 0.467200 -0.116800 0.785400
C633 C 0.134800 -0.091500 0.823500
H634 H 0.215700 -0.176900 0.837400
C635 C 0.133400 -0.013200 0.700100
H636 H 0.214600 -0.032800 0.616800
C637 C 0.222700 -0.397700 0.531100
H638 H 0.122300 -0.377200 0.614800
H639 H 0.343800 -0.380300 0.474400
C640 C 0.468900 -0.277300 0.897700
H641 H 0.385200 -0.377700 0.877200
H642 H 0.525600 -0.156200 0.880300
C643 C 0.102300 -0.031100 0.777300
H644 H 0.122800 -0.114800 0.877700
H645 H 0.119700 0.025600 0.656200
H646 H 0.215200 -0.442900 0.492000
H647 H 0.508000 -0.284800 0.942900
H648 H 0.057100 0.008000 0.784800
Au649 Au 0.592920 1.092920 0.407080
P650 P 0.674600 1.174600 0.325400
C651 C 0.521300 1.021300 0.478700
C652 C 0.716500 1.263200 0.380500
C653 C 0.793900 1.296800 0.362700
C654 C 0.823500 1.365200 0.408500
C655 C 0.777300 1.397700 0.468900
C656 C 0.700100 1.366600 0.486800
C657 C 0.670500 1.297500 0.442900
H658 H 0.837400 1.284300 0.323100
H659 H 0.877700 1.377200 0.385200
H660 H 0.784800 1.442900 0.508000
H661 H 0.656200 1.380300 0.525600
H662 H 0.616800 1.285400 0.467200
C663 C 0.619500 1.216500 0.236800
C664 C 0.763200 1.119500 0.283500
C665 C 0.478700 0.978700 0.521300
C666 C 0.637300 1.293900 0.203200
C667 C 0.557100 1.170500 0.202500
C668 C 0.796800 1.137300 0.206100
C669 C 0.797500 1.057100 0.329500
Au670 Au 0.407080 0.907080 0.592920
C671 C 0.591500 1.323500 0.134800
H672 H 0.676900 1.337400 0.215700
C673 C 0.513200 1.200100 0.133400
H674 H 0.532800 1.116800 0.214600
C675 C 0.865200 1.091500 0.176500
H676 H 0.784300 1.176900 0.162600
C677 C 0.866600 1.013200 0.299900
H678 H 0.785400 1.032800 0.383200
P679 P 0.325400 0.825400 0.674600
C680 C 0.531100 1.277300 0.102300
H681 H 0.614800 1.377700 0.122800
H682 H 0.474400 1.156200 0.119700
C683 C 0.897700 1.031100 0.222700
H684 H 0.877200 1.114800 0.122300
H685 H 0.880300 0.974400 0.343800
C686 C 0.283500 0.736800 0.619500
C687 C 0.380500 0.783500 0.763200
C688 C 0.236800 0.880500 0.716500
H689 H 0.492000 1.284800 0.057100
H690 H 0.942900 0.992000 0.215200
C691 C 0.206100 0.703200 0.637300
C692 C 0.329500 0.702500 0.557100
C693 C 0.362700 0.706100 0.796800
C694 C 0.442900 0.829500 0.797500
C695 C 0.203200 0.862700 0.793900
C696 C 0.202500 0.942900 0.670500
C697 C 0.176500 0.634800 0.591500
H698 H 0.162600 0.715700 0.676900
C699 C 0.299900 0.633400 0.513200
H700 H 0.383200 0.714600 0.532800
C701 C 0.408500 0.676500 0.865200
H702 H 0.323100 0.662600 0.784300
C703 C 0.486800 0.799900 0.866600
H704 H 0.467200 0.883200 0.785400
C705 C 0.134800 0.908500 0.823500
H706 H 0.215700 0.823100 0.837400
C707 C 0.133400 0.986800 0.700100
H708 H 0.214600 0.967200 0.616800
C709 C 0.222700 0.602300 0.531100
H710 H 0.122300 0.622800 0.614800
H711 H 0.343800 0.619700 0.474400
C712 C 0.468900 0.722700 0.897700
H713 H 0.385200 0.622300 0.877200
H714 H 0.525600 0.843800 0.880300
C715 C 0.102300 0.968900 0.777300
H716 H 0.122800 0.885200 0.877700
H717 H 0.119700 1.025600 0.656200
H718 H 0.215200 0.557100 0.492000
H719 H 0.508000 0.715200 0.942900
H720 H 0.057100 1.008000 0.784800
Au721 Au 0.407080 0.592920 0.092920
P722 P 0.325400 0.674600 0.174600
C723 C 0.478700 0.521300 0.021300
C724 C 0.283500 0.763200 0.119500
C725 C 0.206100 0.796800 0.137300
C726 C 0.176500 0.865200 0.091500
C727 C 0.222700 0.897700 0.031100
C728 C 0.299900 0.866600 0.013200
C729 C 0.329500 0.797500 0.057100
H730 H 0.162600 0.784300 0.176900
H731 H 0.122300 0.877200 0.114800
H732 H 0.215200 0.942900 -0.008000
H733 H 0.343800 0.880300 -0.025600
H734 H 0.383200 0.785400 0.032800
C735 C 0.380500 0.716500 0.263200
C736 C 0.236800 0.619500 0.216500
C737 C 0.521300 0.478700 -0.021300
C738 C 0.362700 0.793900 0.296800
C739 C 0.442900 0.670500 0.297500
C740 C 0.203200 0.637300 0.293900
C741 C 0.202500 0.557100 0.170500
Au742 Au 0.592920 0.407080 -0.092920
C743 C 0.408500 0.823500 0.365200
H744 H 0.323100 0.837400 0.284300
C745 C 0.486800 0.700100 0.366600
H746 H 0.467200 0.616800 0.285400
C747 C 0.134800 0.591500 0.323500
H748 H 0.215700 0.676900 0.337400
C749 C 0.133400 0.513200 0.200100
H750 H 0.214600 0.532800 0.116800
P751 P 0.674600 0.325400 -0.174600
C752 C 0.468900 0.777300 0.397700
H753 H 0.385200 0.877700 0.377200
H754 H 0.525600 0.656200 0.380300
C755 C 0.102300 0.531100 0.277300
H756 H 0.122800 0.614800 0.377700
H757 H 0.119700 0.474400 0.156200
C758 C 0.716500 0.236800 -0.119500
C759 C 0.619500 0.283500 -0.263200
C760 C 0.763200 0.380500 -0.216500
H761 H 0.508000 0.784800 0.442900
H762 H 0.057100 0.492000 0.284800
C763 C 0.793900 0.203200 -0.137300
C764 C 0.670500 0.202500 -0.057100
C765 C 0.637300 0.206100 -0.296800
C766 C 0.557100 0.329500 -0.297500
C767 C 0.796800 0.362700 -0.293900
C768 C 0.797500 0.442900 -0.170500
C769 C 0.823500 0.134800 -0.091500
H770 H 0.837400 0.215700 -0.176900
C771 C 0.700100 0.133400 -0.013200
H772 H 0.616800 0.214600 -0.032800
C773 C 0.591500 0.176500 -0.365200
H774 H 0.676900 0.162600 -0.284300
C775 C 0.513200 0.299900 -0.366600
H776 H 0.532800 0.383200 -0.285400
C777 C 0.865200 0.408500 -0.323500
H778 H 0.784300 0.323100 -0.337400
C779 C 0.866600 0.486800 -0.200100
H780 H 0.785400 0.467200 -0.116800
C781 C 0.777300 0.102300 -0.031100
H782 H 0.877700 0.122800 -0.114800
H783 H 0.656200 0.119700 0.025600
C784 C 0.531100 0.222700 -0.397700
H785 H 0.614800 0.122300 -0.377200
H786 H 0.474400 0.343800 -0.380300
C787 C 0.897700 0.468900 -0.277300
H788 H 0.877200 0.385200 -0.377700
H789 H 0.880300 0.525600 -0.156200
H790 H 0.784800 0.057100 0.008000
H791 H 0.492000 0.215200 -0.442900
H792 H 0.942900 0.508000 -0.284800
Au793 Au 0.407080 0.592920 1.092920
P794 P 0.325400 0.674600 1.174600
C795 C 0.478700 0.521300 1.021300
C796 C 0.283500 0.763200 1.119500
C797 C 0.206100 0.796800 1.137300
C798 C 0.176500 0.865200 1.091500
C799 C 0.222700 0.897700 1.031100
C800 C 0.299900 0.866600 1.013200
C801 C 0.329500 0.797500 1.057100
H802 H 0.162600 0.784300 1.176900
H803 H 0.122300 0.877200 1.114800
H804 H 0.215200 0.942900 0.992000
H805 H 0.343800 0.880300 0.974400
H806 H 0.383200 0.785400 1.032800
C807 C 0.380500 0.716500 1.263200
C808 C 0.236800 0.619500 1.216500
C809 C 0.521300 0.478700 0.978700
C810 C 0.362700 0.793900 1.296800
C811 C 0.442900 0.670500 1.297500
C812 C 0.203200 0.637300 1.293900
C813 C 0.202500 0.557100 1.170500
Au814 Au 0.592920 0.407080 0.907080
C815 C 0.408500 0.823500 1.365200
H816 H 0.323100 0.837400 1.284300
C817 C 0.486800 0.700100 1.366600
H818 H 0.467200 0.616800 1.285400
C819 C 0.134800 0.591500 1.323500
H820 H 0.215700 0.676900 1.337400
C821 C 0.133400 0.513200 1.200100
H822 H 0.214600 0.532800 1.116800
P823 P 0.674600 0.325400 0.825400
C824 C 0.468900 0.777300 1.397700
H825 H 0.385200 0.877700 1.377200
H826 H 0.525600 0.656200 1.380300
C827 C 0.102300 0.531100 1.277300
H828 H 0.122800 0.614800 1.377700
H829 H 0.119700 0.474400 1.156200
C830 C 0.716500 0.236800 0.880500
C831 C 0.619500 0.283500 0.736800
C832 C 0.763200 0.380500 0.783500
H833 H 0.508000 0.784800 1.442900
H834 H 0.057100 0.492000 1.284800
C835 C 0.793900 0.203200 0.862700
C836 C 0.670500 0.202500 0.942900
C837 C 0.637300 0.206100 0.703200
C838 C 0.557100 0.329500 0.702500
C839 C 0.796800 0.362700 0.706100
C840 C 0.797500 0.442900 0.829500
C841 C 0.823500 0.134800 0.908500
H842 H 0.837400 0.215700 0.823100
C843 C 0.700100 0.133400 0.986800
H844 H 0.616800 0.214600 0.967200
C845 C 0.591500 0.176500 0.634800
H846 H 0.676900 0.162600 0.715700
C847 C 0.513200 0.299900 0.633400
H848 H 0.532800 0.383200 0.714600
C849 C 0.865200 0.408500 0.676500
H850 H 0.784300 0.323100 0.662600
C851 C 0.866600 0.486800 0.799900
H852 H 0.785400 0.467200 0.883200
C853 C 0.777300 0.102300 0.968900
H854 H 0.877700 0.122800 0.885200
H855 H 0.656200 0.119700 1.025600
C856 C 0.531100 0.222700 0.602300
H857 H 0.614800 0.122300 0.622800
H858 H 0.474400 0.343800 0.619700
C859 C 0.897700 0.468900 0.722700
H860 H 0.877200 0.385200 0.622300
H861 H 0.880300 0.525600 0.843800
H862 H 0.784800 0.057100 1.008000
H863 H 0.492000 0.215200 0.557100
H864 H 0.942900 0.508000 0.715200
Au865 Au -0.092920 0.592920 0.407080
P866 P -0.174600 0.674600 0.325400
C867 C -0.021300 0.521300 0.478700
C868 C -0.216500 0.763200 0.380500
C869 C -0.293900 0.796800 0.362700
C870 C -0.323500 0.865200 0.408500
C871 C -0.277300 0.897700 0.468900
C872 C -0.200100 0.866600 0.486800
C873 C -0.170500 0.797500 0.442900
H874 H -0.337400 0.784300 0.323100
H875 H -0.377700 0.877200 0.385200
H876 H -0.284800 0.942900 0.508000
H877 H -0.156200 0.880300 0.525600
H878 H -0.116800 0.785400 0.467200
C879 C -0.119500 0.716500 0.236800
C880 C -0.263200 0.619500 0.283500
C881 C 0.021300 0.478700 0.521300
C882 C -0.137300 0.793900 0.203200
C883 C -0.057100 0.670500 0.202500
C884 C -0.296800 0.637300 0.206100
C885 C -0.297500 0.557100 0.329500
Au886 Au 0.092920 0.407080 0.592920
C887 C -0.091500 0.823500 0.134800
H888 H -0.176900 0.837400 0.215700
C889 C -0.013200 0.700100 0.133400
H890 H -0.032800 0.616800 0.214600
C891 C -0.365200 0.591500 0.176500
H892 H -0.284300 0.676900 0.162600
C893 C -0.366600 0.513200 0.299900
H894 H -0.285400 0.532800 0.383200
P895 P 0.174600 0.325400 0.674600
C896 C -0.031100 0.777300 0.102300
H897 H -0.114800 0.877700 0.122800
H898 H 0.025600 0.656200 0.119700
C899 C -0.397700 0.531100 0.222700
H900 H -0.377200 0.614800 0.122300
H901 H -0.380300 0.474400 0.343800
C902 C 0.216500 0.236800 0.619500
C903 C 0.119500 0.283500 0.763200
C904 C 0.263200 0.380500 0.716500
H905 H 0.008000 0.784800 0.057100
H906 H -0.442900 0.492000 0.215200
C907 C 0.293900 0.203200 0.637300
C908 C 0.170500 0.202500 0.557100
C909 C 0.137300 0.206100 0.796800
C910 C 0.057100 0.329500 0.797500
C911 C 0.296800 0.362700 0.793900
C912 C 0.297500 0.442900 0.670500
C913 C 0.323500 0.134800 0.591500
H914 H 0.337400 0.215700 0.676900
C915 C 0.200100 0.133400 0.513200
H916 H 0.116800 0.214600 0.532800
C917 C 0.091500 0.176500 0.865200
H918 H 0.176900 0.162600 0.784300
C919 C 0.013200 0.299900 0.866600
H920 H 0.032800 0.383200 0.785400
C921 C 0.365200 0.408500 0.823500
H922 H 0.284300 0.323100 0.837400
C923 C 0.366600 0.486800 0.700100
H924 H 0.285400 0.467200 0.616800
C925 C 0.277300 0.102300 0.531100
H926 H 0.377700 0.122800 0.614800
H927 H 0.156200 0.119700 0.474400
C928 C 0.031100 0.222700 0.897700
H929 H 0.114800 0.122300 0.877200
H930 H -0.025600 0.343800 0.880300
C931 C 0.397700 0.468900 0.777300
H932 H 0.377200 0.385200 0.877700
H933 H 0.380300 0.525600 0.656200
H934 H 0.284800 0.057100 0.492000
H935 H -0.008000 0.215200 0.942900
H936 H 0.442900 0.508000 0.784800
Au937 Au 0.907080 0.592920 0.407080
P938 P 0.825400 0.674600 0.325400
C939 C 0.978700 0.521300 0.478700
C940 C 0.783500 0.763200 0.380500
C941 C 0.706100 0.796800 0.362700
C942 C 0.676500 0.865200 0.408500
C943 C 0.722700 0.897700 0.468900
C944 C 0.799900 0.866600 0.486800
C945 C 0.829500 0.797500 0.442900
H946 H 0.662600 0.784300 0.323100
H947 H 0.622300 0.877200 0.385200
H948 H 0.715200 0.942900 0.508000
H949 H 0.843800 0.880300 0.525600
H950 H 0.883200 0.785400 0.467200
C951 C 0.880500 0.716500 0.236800
C952 C 0.736800 0.619500 0.283500
C953 C 1.021300 0.478700 0.521300
C954 C 0.862700 0.793900 0.203200
C955 C 0.942900 0.670500 0.202500
C956 C 0.703200 0.637300 0.206100
C957 C 0.702500 0.557100 0.329500
Au958 Au 1.092920 0.407080 0.592920
C959 C 0.908500 0.823500 0.134800
H960 H 0.823100 0.837400 0.215700
C961 C 0.986800 0.700100 0.133400
H962 H 0.967200 0.616800 0.214600
C963 C 0.634800 0.591500 0.176500
H964 H 0.715700 0.676900 0.162600
C965 C 0.633400 0.513200 0.299900
H966 H 0.714600 0.532800 0.383200
P967 P 1.174600 0.325400 0.674600
C968 C 0.968900 0.777300 0.102300
H969 H 0.885200 0.877700 0.122800
H970 H 1.025600 0.656200 0.119700
C971 C 0.602300 0.531100 0.222700
H972 H 0.622800 0.614800 0.122300
H973 H 0.619700 0.474400 0.343800
C974 C 1.216500 0.236800 0.619500
C975 C 1.119500 0.283500 0.763200
C976 C 1.263200 0.380500 0.716500
H977 H 1.008000 0.784800 0.057100
H978 H 0.557100 0.492000 0.215200
C979 C 1.293900 0.203200 0.637300
C980 C 1.170500 0.202500 0.557100
C981 C 1.137300 0.206100 0.796800
C982 C 1.057100 0.329500 0.797500
C983 C 1.296800 0.362700 0.793900
C984 C 1.297500 0.442900 0.670500
C985 C 1.323500 0.134800 0.591500
H986 H 1.337400 0.215700 0.676900
C987 C 1.200100 0.133400 0.513200
H988 H 1.116800 0.214600 0.532800
C989 C 1.091500 0.176500 0.865200
H990 H 1.176900 0.162600 0.784300
C991 C 1.013200 0.299900 0.866600
H992 H 1.032800 0.383200 0.785400
C993 C 1.365200 0.408500 0.823500
H994 H 1.284300 0.323100 0.837400
C995 C 1.366600 0.486800 0.700100
H996 H 1.285400 0.467200 0.616800
C997 C 1.277300 0.102300 0.531100
H998 H 1.377700 0.122800 0.614800
H999 H 1.156200 0.119700 0.474400
C1000 C 1.031100 0.222700 0.897700
H1001 H 1.114800 0.122300 0.877200
H1002 H 0.974400 0.343800 0.880300
C1003 C 1.397700 0.468900 0.777300
H1004 H 1.377200 0.385200 0.877700
H1005 H 1.380300 0.525600 0.656200
H1006 H 1.284800 0.057100 0.492000
H1007 H 0.992000 0.215200 0.942900
H1008 H 1.442900 0.508000 0.784800
C1009 C 0.318100 0.438900 0.360400
C1010 C 0.384000 0.427500 0.308300
C1011 C 0.308300 0.384000 0.427500
C1012 C 0.438900 0.360400 0.318100
C1013 C 0.360400 0.318100 0.438900
C1014 C 0.427500 0.308300 0.384000
C1015 C 0.818100 0.438900 0.139600
C1016 C 0.884000 0.427500 0.191700
C1017 C 0.808300 0.384000 0.072500
C1018 C 0.938900 0.360400 0.181900
C1019 C 0.860400 0.318100 0.061100
C1020 C 0.927500 0.308300 0.116000
C1021 C 0.181900 0.938900 0.360400
C1022 C 0.116000 0.927500 0.308300
C1023 C 0.191700 0.884000 0.427500
C1024 C 0.061100 0.860400 0.318100
C1025 C 0.139600 0.818100 0.438900
C1026 C 0.072500 0.808300 0.384000
C1027 C 0.681900 0.938900 0.139600
C1028 C 0.616000 0.927500 0.191700
C1029 C 0.691700 0.884000 0.072500
C1030 C 0.561100 0.860400 0.181900
C1031 C 0.639600 0.818100 0.061100
C1032 C 0.572500 0.808300 0.116000
C1033 C 0.681900 0.561100 0.639600
C1034 C 0.616000 0.572500 0.691700
C1035 C 0.691700 0.616000 0.572500
C1036 C 0.561100 0.639600 0.681900
C1037 C 0.639600 0.681900 0.561100
C1038 C 0.572500 0.691700 0.616000
C1039 C 0.181900 0.561100 0.860400
C1040 C 0.116000 0.572500 0.808300
C1041 C 0.191700 0.616000 0.927500
C1042 C 0.061100 0.639600 0.818100
C1043 C 0.139600 0.681900 0.938900
C1044 C 0.072500 0.691700 0.884000
C1045 C 0.818100 0.061100 0.639600
C1046 C 0.884000 0.072500 0.691700
C1047 C 0.808300 0.116000 0.572500
C1048 C 0.938900 0.139600 0.681900
C1049 C 0.860400 0.181900 0.561100
C1050 C 0.927500 0.191700 0.616000
C1051 C 0.318100 0.061100 0.860400
C1052 C 0.384000 0.072500 0.808300
C1053 C 0.308300 0.116000 0.927500
C1054 C 0.438900 0.139600 0.818100
C1055 C 0.360400 0.181900 0.938900
C1056 C 0.427500 0.191700 0.884000

#END
