./KABCEY_from_xyz.cif_generated_by_CrystalShift
_symmetry_cell_setting triclinic
_symmetry_space_group_name_H-M 'P 1'
loop_
_symmetry_equiv_pos_site_id
_symmetry_equiv_pos_as_xyz
1 x,y,z
_cell_length_a 18.568500
_cell_length_b 6.676670
_cell_length_c 13.820000
_cell_angle_alpha 90.000000
_cell_angle_beta 108.928000
_cell_angle_gamma 90.000000
_cell_volume 1620.698986
loop_
_atom_site_label
_atom_site_type_symbol
_atom_site_fract_x
_atom_site_fract_y
_atom_site_fract_z
O1 O 0.728370 0.077350 0.412210
O2 O 0.749850 -0.223940 0.355000
O3 O 0.530700 -0.321940 0.388350
O4 O 0.596880 -0.027200 0.431680
C5 C 0.797230 0.152800 0.398830
H6 H 0.806200 0.287300 0.424500
H7 H 0.792100 0.152000 0.327400
H8 H 0.839300 0.069400 0.435600
C9 C 0.710430 -0.112000 0.384620
C10 C 0.637440 -0.166800 0.394960
C11 C 0.598300 -0.336190 0.368510
C12 C 0.532370 -0.133000 0.441420
C13 C 0.611980 -0.524700 0.320800
H14 H 0.574400 -0.539100 0.254500
H15 H 0.608700 -0.636100 0.363100
H16 H 0.661800 -0.521200 0.313900
C17 C 0.543420 -0.175000 0.553110
H18 H 0.592500 -0.238200 0.584400
H19 H 0.504400 -0.267100 0.558000
C20 C 0.539350 0.017300 0.610950
H21 H 0.541000 -0.015900 0.680000
H22 H 0.583200 0.100300 0.615500
O23 O 0.271630 -0.077350 0.587790
O24 O 0.250150 0.223940 0.645000
O25 O 0.469300 0.321940 0.611650
O26 O 0.403120 0.027200 0.568320
C27 C 0.202770 -0.152800 0.601170
H28 H 0.193800 -0.287300 0.575500
H29 H 0.207900 -0.152000 0.672600
H30 H 0.160700 -0.069400 0.564400
C31 C 0.289570 0.112000 0.615380
C32 C 0.362560 0.166800 0.605040
C33 C 0.401700 0.336190 0.631490
C34 C 0.467630 0.133000 0.558580
C35 C 0.388020 0.524700 0.679200
H36 H 0.425600 0.539100 0.745500
H37 H 0.391300 0.636100 0.636900
H38 H 0.338200 0.521200 0.686100
C39 C 0.456580 0.175000 0.446890
H40 H 0.407500 0.238200 0.415600
H41 H 0.495600 0.267100 0.442000
C42 C 0.460650 -0.017300 0.389050
H43 H 0.459000 0.015900 0.320000
H44 H 0.416800 -0.100300 0.384500
O45 O 0.728370 1.077350 0.412210
O46 O 0.749850 0.776060 0.355000
O47 O 0.530700 0.678060 0.388350
O48 O 0.596880 0.972800 0.431680
C49 C 0.797230 1.152800 0.398830
H50 H 0.806200 1.287300 0.424500
H51 H 0.792100 1.152000 0.327400
H52 H 0.839300 1.069400 0.435600
C53 C 0.710430 0.888000 0.384620
C54 C 0.637440 0.833200 0.394960
C55 C 0.598300 0.663810 0.368510
C56 C 0.532370 0.867000 0.441420
C57 C 0.611980 0.475300 0.320800
H58 H 0.574400 0.460900 0.254500
H59 H 0.608700 0.363900 0.363100
H60 H 0.661800 0.478800 0.313900
C61 C 0.543420 0.825000 0.553110
H62 H 0.592500 0.761800 0.584400
H63 H 0.504400 0.732900 0.558000
C64 C 0.539350 1.017300 0.610950
H65 H 0.541000 0.984100 0.680000
H66 H 0.583200 1.100300 0.615500
O67 O 0.271630 0.922650 0.587790
O68 O 0.250150 1.223940 0.645000
O69 O 0.469300 1.321940 0.611650
O70 O 0.403120 1.027200 0.568320
C71 C 0.202770 0.847200 0.601170
H72 H 0.193800 0.712700 0.575500
H73 H 0.207900 0.848000 0.672600
H74 H 0.160700 0.930600 0.564400
C75 C 0.289570 1.112000 0.615380
C76 C 0.362560 1.166800 0.605040
C77 C 0.401700 1.336190 0.631490
C78 C 0.467630 1.133000 0.558580
C79 C 0.388020 1.524700 0.679200
H80 H 0.425600 1.539100 0.745500
H81 H 0.391300 1.636100 0.636900
H82 H 0.338200 1.521200 0.686100
C83 C 0.456580 1.175000 0.446890
H84 H 0.407500 1.238200 0.415600
H85 H 0.495600 1.267100 0.442000
C86 C 0.460650 0.982700 0.389050
H87 H 0.459000 1.015900 0.320000
H88 H 0.416800 0.899700 0.384500
O89 O 0.271630 0.077350 0.087790
O90 O 0.250150 -0.223940 0.145000
O91 O 0.469300 -0.321940 0.111650
O92 O 0.403120 -0.027200 0.068320
C93 C 0.202770 0.152800 0.101170
H94 H 0.193800 0.287300 0.075500
H95 H 0.207900 0.152000 0.172600
H96 H 0.160700 0.069400 0.064400
C97 C 0.289570 -0.112000 0.115380
C98 C 0.362560 -0.166800 0.105040
C99 C 0.401700 -0.336190 0.131490
C100 C 0.467630 -0.133000 0.058580
C101 C 0.388020 -0.524700 0.179200
H102 H 0.425600 -0.539100 0.245500
H103 H 0.391300 -0.636100 0.136900
H104 H 0.338200 -0.521200 0.186100
C105 C 0.456580 -0.175000 -0.053110
H106 H 0.407500 -0.238200 -0.084400
H107 H 0.495600 -0.267100 -0.058000
C108 C 0.460650 0.017300 -0.110950
H109 H 0.459000 -0.015900 -0.180000
H110 H 0.416800 0.100300 -0.115500
O111 O 0.728370 -0.077350 -0.087790
O112 O 0.749850 0.223940 -0.145000
O113 O 0.530700 0.321940 -0.111650
O114 O 0.596880 0.027200 -0.068320
C115 C 0.797230 -0.152800 -0.101170
H116 H 0.806200 -0.287300 -0.075500
H117 H 0.792100 -0.152000 -0.172600
H118 H 0.839300 -0.069400 -0.064400
C119 C 0.710430 0.112000 -0.115380
C120 C 0.637440 0.166800 -0.105040
C121 C 0.598300 0.336190 -0.131490
C122 C 0.532370 0.133000 -0.058580
C123 C 0.611980 0.524700 -0.179200
H124 H 0.574400 0.539100 -0.245500
H125 H 0.608700 0.636100 -0.136900
H126 H 0.661800 0.521200 -0.186100
C127 C 0.543420 0.175000 0.053110
H128 H 0.592500 0.238200 0.084400
H129 H 0.504400 0.267100 0.058000
C130 C 0.539350 -0.017300 0.110950
H131 H 0.541000 0.015900 0.180000
H132 H 0.583200 -0.100300 0.115500
O133 O 0.271630 0.077350 1.087790
O134 O 0.250150 -0.223940 1.145000
O135 O 0.469300 -0.321940 1.111650
O136 O 0.403120 -0.027200 1.068320
C137 C 0.202770 0.152800 1.101170
H138 H 0.193800 0.287300 1.075500
H139 H 0.207900 0.152000 1.172600
H140 H 0.160700 0.069400 1.064400
C141 C 0.289570 -0.112000 1.115380
C142 C 0.362560 -0.166800 1.105040
C143 C 0.401700 -0.336190 1.131490
C144 C 0.467630 -0.133000 1.058580
C145 C 0.388020 -0.524700 1.179200
H146 H 0.425600 -0.539100 1.245500
H147 H 0.391300 -0.636100 1.136900
H148 H 0.338200 -0.521200 1.186100
C149 C 0.456580 -0.175000 0.946890
H150 H 0.407500 -0.238200 0.915600
H151 H 0.495600 -0.267100 0.942000
C152 C 0.460650 0.017300 0.889050
H153 H 0.459000 -0.015900 0.820000
H154 H 0.416800 0.100300 0.884500
O155 O 0.728370 -0.077350 0.912210
O156 O 0.749850 0.223940 0.855000
O157 O 0.530700 0.321940 0.888350
O158 O 0.596880 0.027200 0.931680
C159 C 0.797230 -0.152800 0.898830
H160 H 0.806200 -0.287300 0.924500
H161 H 0.792100 -0.152000 0.827400
H162 H 0.839300 -0.069400 0.935600
C163 C 0.710430 0.112000 0.884620
C164 C 0.637440 0.166800 0.894960
C165 C 0.598300 0.336190 0.868510
C166 C 0.532370 0.133000 0.941420
C167 C 0.611980 0.524700 0.820800
H168 H 0.574400 0.539100 0.754500
H169 H 0.608700 0.636100 0.863100
H170 H 0.661800 0.521200 0.813900
C171 C 0.543420 0.175000 1.053110
H172 H 0.592500 0.238200 1.084400
H173 H 0.504400 0.267100 1.058000
C174 C 0.539350 -0.017300 1.110950
H175 H 0.541000 0.015900 1.180000
H176 H 0.583200 -0.100300 1.115500
O177 O 0.271630 1.077350 0.087790
O178 O 0.250150 0.776060 0.145000
O179 O 0.469300 0.678060 0.111650
O180 O 0.403120 0.972800 0.068320
C181 C 0.202770 1.152800 0.101170
H182 H 0.193800 1.287300 0.075500
H183 H 0.207900 1.152000 0.172600
H184 H 0.160700 1.069400 0.064400
C185 C 0.289570 0.888000 0.115380
C186 C 0.362560 0.833200 0.105040
C187 C 0.401700 0.663810 0.131490
C188 C 0.467630 0.867000 0.058580
C189 C 0.388020 0.475300 0.179200
H190 H 0.425600 0.460900 0.245500
H191 H 0.391300 0.363900 0.136900
H192 H 0.338200 0.478800 0.186100
C193 C 0.456580 0.825000 -0.053110
H194 H 0.407500 0.761800 -0.084400
H195 H 0.495600 0.732900 -0.058000
C196 C 0.460650 1.017300 -0.110950
H197 H 0.459000 0.984100 -0.180000
H198 H 0.416800 1.100300 -0.115500
O199 O 0.728370 0.922650 -0.087790
O200 O 0.749850 1.223940 -0.145000
O201 O 0.530700 1.321940 -0.111650
O202 O 0.596880 1.027200 -0.068320
C203 C 0.797230 0.847200 -0.101170
H204 H 0.806200 0.712700 -0.075500
H205 H 0.792100 0.848000 -0.172600
H206 H 0.839300 0.930600 -0.064400
C207 C 0.710430 1.112000 -0.115380
C208 C 0.637440 1.166800 -0.105040
C209 C 0.598300 1.336190 -0.131490
C210 C 0.532370 1.133000 -0.058580
C211 C 0.611980 1.524700 -0.179200
H212 H 0.574400 1.539100 -0.245500
H213 H 0.608700 1.636100 -0.136900
H214 H 0.661800 1.521200 -0.186100
C215 C 0.543420 1.175000 0.053110
H216 H 0.592500 1.238200 0.084400
H217 H 0.504400 1.267100 0.058000
C218 C 0.539350 0.982700 0.110950
H219 H 0.541000 1.015900 0.180000
H220 H 0.583200 0.899700 0.115500
O221 O 0.271630 1.077350 1.087790
O222 O 0.250150 0.776060 1.145000
O223 O 0.469300 0.678060 1.111650
O224 O 0.403120 0.972800 1.068320
C225 C 0.202770 1.152800 1.101170
H226 H 0.193800 1.287300 1.075500
H227 H 0.207900 1.152000 1.172600
H228 H 0.160700 1.069400 1.064400
C229 C 0.289570 0.888000 1.115380
C230 C 0.362560 0.833200 1.105040
C231 C 0.401700 0.663810 1.131490
C232 C 0.467630 0.867000 1.058580
C233 C 0.388020 0.475300 1.179200
H234 H 0.425600 0.460900 1.245500
H235 H 0.391300 0.363900 1.136900
H236 H 0.338200 0.478800 1.186100
C237 C 0.456580 0.825000 0.946890
H238 H 0.407500 0.761800 0.915600
H239 H 0.495600 0.732900 0.942000
C240 C 0.460650 1.017300 0.889050
H241 H 0.459000 0.984100 0.820000
H242 H 0.416800 1.100300 0.884500
O243 O 0.728370 0.922650 0.912210
O244 O 0.749850 1.223940 0.855000
O245 O 0.530700 1.321940 0.888350
O246 O 0.596880 1.027200 0.931680
C247 C 0.797230 0.847200 0.898830
H248 H 0.806200 0.712700 0.924500
H249 H 0.792100 0.848000 0.827400
H250 H 0.839300 0.930600 0.935600
C251 C 0.710430 1.112000 0.884620
C252 C 0.637440 1.166800 0.894960
C253 C 0.598300 1.336190 0.868510
C254 C 0.532370 1.133000 0.941420
C255 C 0.611980 1.524700 0.820800
H256 H 0.574400 1.539100 0.754500
H257 H 0.608700 1.636100 0.863100
H258 H 0.661800 1.521200 0.813900
C259 C 0.543420 1.175000 1.053110
H260 H 0.592500 1.238200 1.084400
H261 H 0.504400 1.267100 1.058000
C262 C 0.539350 0.982700 1.110950
H263 H 0.541000 1.015900 1.180000
H264 H 0.583200 0.899700 1.115500
O265 O 0.228370 0.577350 0.412210
O266 O 0.249850 0.276060 0.355000
O267 O 0.030700 0.178060 0.388350
O268 O 0.096880 0.472800 0.431680
C269 C 0.297230 0.652800 0.398830
H270 H 0.306200 0.787300 0.424500
H271 H 0.292100 0.652000 0.327400
H272 H 0.339300 0.569400 0.435600
C273 C 0.210430 0.388000 0.384620
C274 C 0.137440 0.333200 0.394960
C275 C 0.098300 0.163810 0.368510
C276 C 0.032370 0.367000 0.441420
C277 C 0.111980 -0.024700 0.320800
H278 H 0.074400 -0.039100 0.254500
H279 H 0.108700 -0.136100 0.363100
H280 H 0.161800 -0.021200 0.313900
C281 C 0.043420 0.325000 0.553110
H282 H 0.092500 0.261800 0.584400
H283 H 0.004400 0.232900 0.558000
C284 C 0.039350 0.517300 0.610950
H285 H 0.041000 0.484100 0.680000
H286 H 0.083200 0.600300 0.615500
O287 O -0.228370 0.422650 0.587790
O288 O -0.249850 0.723940 0.645000
O289 O -0.030700 0.821940 0.611650
O290 O -0.096880 0.527200 0.568320
C291 C -0.297230 0.347200 0.601170
H292 H -0.306200 0.212700 0.575500
H293 H -0.292100 0.348000 0.672600
H294 H -0.339300 0.430600 0.564400
C295 C -0.210430 0.612000 0.615380
C296 C -0.137440 0.666800 0.605040
C297 C -0.098300 0.836190 0.631490
C298 C -0.032370 0.633000 0.558580
C299 C -0.111980 1.024700 0.679200
H300 H -0.074400 1.039100 0.745500
H301 H -0.108700 1.136100 0.636900
H302 H -0.161800 1.021200 0.686100
C303 C -0.043420 0.675000 0.446890
H304 H -0.092500 0.738200 0.415600
H305 H -0.004400 0.767100 0.442000
C306 C -0.039350 0.482700 0.389050
H307 H -0.041000 0.515900 0.320000
H308 H -0.083200 0.399700 0.384500
O309 O 1.228370 0.577350 0.412210
O310 O 1.249850 0.276060 0.355000
O311 O 1.030700 0.178060 0.388350
O312 O 1.096880 0.472800 0.431680
C313 C 1.297230 0.652800 0.398830
H314 H 1.306200 0.787300 0.424500
H315 H 1.292100 0.652000 0.327400
H316 H 1.339300 0.569400 0.435600
C317 C 1.210430 0.388000 0.384620
C318 C 1.137440 0.333200 0.394960
C319 C 1.098300 0.163810 0.368510
C320 C 1.032370 0.367000 0.441420
C321 C 1.111980 -0.024700 0.320800
H322 H 1.074400 -0.039100 0.254500
H323 H 1.108700 -0.136100 0.363100
H324 H 1.161800 -0.021200 0.313900
C325 C 1.043420 0.325000 0.553110
H326 H 1.092500 0.261800 0.584400
H327 H 1.004400 0.232900 0.558000
C328 C 1.039350 0.517300 0.610950
H329 H 1.041000 0.484100 0.680000
H330 H 1.083200 0.600300 0.615500
O331 O 0.771630 0.422650 0.587790
O332 O 0.750150 0.723940 0.645000
O333 O 0.969300 0.821940 0.611650
O334 O 0.903120 0.527200 0.568320
C335 C 0.702770 0.347200 0.601170
H336 H 0.693800 0.212700 0.575500
H337 H 0.707900 0.348000 0.672600
H338 H 0.660700 0.430600 0.564400
C339 C 0.789570 0.612000 0.615380
C340 C 0.862560 0.666800 0.605040
C341 C 0.901700 0.836190 0.631490
C342 C 0.967630 0.633000 0.558580
C343 C 0.888020 1.024700 0.679200
H344 H 0.925600 1.039100 0.745500
H345 H 0.891300 1.136100 0.636900
H346 H 0.838200 1.021200 0.686100
C347 C 0.956580 0.675000 0.446890
H348 H 0.907500 0.738200 0.415600
H349 H 0.995600 0.767100 0.442000
C350 C 0.960650 0.482700 0.389050
H351 H 0.959000 0.515900 0.320000
H352 H 0.916800 0.399700 0.384500
O353 O -0.228370 0.577350 0.087790
O354 O -0.249850 0.276060 0.145000
O355 O -0.030700 0.178060 0.111650
O356 O -0.096880 0.472800 0.068320
C357 C -0.297230 0.652800 0.101170
H358 H -0.306200 0.787300 0.075500
H359 H -0.292100 0.652000 0.172600
H360 H -0.339300 0.569400 0.064400
C361 C -0.210430 0.388000 0.115380
C362 C -0.137440 0.333200 0.105040
C363 C -0.098300 0.163810 0.131490
C364 C -0.032370 0.367000 0.058580
C365 C -0.111980 -0.024700 0.179200
H366 H -0.074400 -0.039100 0.245500
H367 H -0.108700 -0.136100 0.136900
H368 H -0.161800 -0.021200 0.186100
C369 C -0.043420 0.325000 -0.053110
H370 H -0.092500 0.261800 -0.084400
H371 H -0.004400 0.232900 -0.058000
C372 C -0.039350 0.517300 -0.110950
H373 H -0.041000 0.484100 -0.180000
H374 H -0.083200 0.600300 -0.115500
O375 O 0.228370 0.422650 -0.087790
O376 O 0.249850 0.723940 -0.145000
O377 O 0.030700 0.821940 -0.111650
O378 O 0.096880 0.527200 -0.068320
C379 C 0.297230 0.347200 -0.101170
H380 H 0.306200 0.212700 -0.075500
H381 H 0.292100 0.348000 -0.172600
H382 H 0.339300 0.430600 -0.064400
C383 C 0.210430 0.612000 -0.115380
C384 C 0.137440 0.666800 -0.105040
C385 C 0.098300 0.836190 -0.131490
C386 C 0.032370 0.633000 -0.058580
C387 C 0.111980 1.024700 -0.179200
H388 H 0.074400 1.039100 -0.245500
H389 H 0.108700 1.136100 -0.136900
H390 H 0.161800 1.021200 -0.186100
C391 C 0.043420 0.675000 0.053110
H392 H 0.092500 0.738200 0.084400
H393 H 0.004400 0.767100 0.058000
C394 C 0.039350 0.482700 0.110950
H395 H 0.041000 0.515900 0.180000
H396 H 0.083200 0.399700 0.115500
O397 O -0.228370 0.577350 1.087790
O398 O -0.249850 0.276060 1.145000
O399 O -0.030700 0.178060 1.111650
O400 O -0.096880 0.472800 1.068320
C401 C -0.297230 0.652800 1.101170
H402 H -0.306200 0.787300 1.075500
H403 H -0.292100 0.652000 1.172600
H404 H -0.339300 0.569400 1.064400
C405 C -0.210430 0.388000 1.115380
C406 C -0.137440 0.333200 1.105040
C407 C -0.098300 0.163810 1.131490
C408 C -0.032370 0.367000 1.058580
C409 C -0.111980 -0.024700 1.179200
H410 H -0.074400 -0.039100 1.245500
H411 H -0.108700 -0.136100 1.136900
H412 H -0.161800 -0.021200 1.186100
C413 C -0.043420 0.325000 0.946890
H414 H -0.092500 0.261800 0.915600
H415 H -0.004400 0.232900 0.942000
C416 C -0.039350 0.517300 0.889050
H417 H -0.041000 0.484100 0.820000
H418 H -0.083200 0.600300 0.884500
O419 O 0.228370 0.422650 0.912210
O420 O 0.249850 0.723940 0.855000
O421 O 0.030700 0.821940 0.888350
O422 O 0.096880 0.527200 0.931680
C423 C 0.297230 0.347200 0.898830
H424 H 0.306200 0.212700 0.924500
H425 H 0.292100 0.348000 0.827400
H426 H 0.339300 0.430600 0.935600
C427 C 0.210430 0.612000 0.884620
C428 C 0.137440 0.666800 0.894960
C429 C 0.098300 0.836190 0.868510
C430 C 0.032370 0.633000 0.941420
C431 C 0.111980 1.024700 0.820800
H432 H 0.074400 1.039100 0.754500
H433 H 0.108700 1.136100 0.863100
H434 H 0.161800 1.021200 0.813900
C435 C 0.043420 0.675000 1.053110
H436 H 0.092500 0.738200 1.084400
H437 H 0.004400 0.767100 1.058000
C438 C 0.039350 0.482700 1.110950
H439 H 0.041000 0.515900 1.180000
H440 H 0.083200 0.399700 1.115500
O441 O 0.771630 0.577350 0.087790
O442 O 0.750150 0.276060 0.145000
O443 O 0.969300 0.178060 0.111650
O444 O 0.903120 0.472800 0.068320
C445 C 0.702770 0.652800 0.101170
H446 H 0.693800 0.787300 0.075500
H447 H 0.707900 0.652000 0.172600
H448 H 0.660700 0.569400 0.064400
C449 C 0.789570 0.388000 0.115380
C450 C 0.862560 0.333200 0.105040
C451 C 0.901700 0.163810 0.131490
C452 C 0.967630 0.367000 0.058580
C453 C 0.888020 -0.024700 0.179200
H454 H 0.925600 -0.039100 0.245500
H455 H 0.891300 -0.136100 0.136900
H456 H 0.838200 -0.021200 0.186100
C457 C 0.956580 0.325000 -0.053110
H458 H 0.907500 0.261800 -0.084400
H459 H 0.995600 0.232900 -0.058000
C460 C 0.960650 0.517300 -0.110950
H461 H 0.959000 0.484100 -0.180000
H462 H 0.916800 0.600300 -0.115500
O463 O 1.228370 0.422650 -0.087790
O464 O 1.249850 0.723940 -0.145000
O465 O 1.030700 0.821940 -0.111650
O466 O 1.096880 0.527200 -0.068320
C467 C 1.297230 0.347200 -0.101170
H468 H 1.306200 0.212700 -0.075500
H469 H 1.292100 0.348000 -0.172600
H470 H 1.339300 0.430600 -0.064400
C471 C 1.210430 0.612000 -0.115380
C472 C 1.137440 0.666800 -0.105040
C473 C 1.098300 0.836190 -0.131490
C474 C 1.032370 0.633000 -0.058580
C475 C 1.111980 1.024700 -0.179200
H476 H 1.074400 1.039100 -0.245500
H477 H 1.108700 1.136100 -0.136900
H478 H 1.161800 1.021200 -0.186100
C479 C 1.043420 0.675000 0.053110
H480 H 1.092500 0.738200 0.084400
H481 H 1.004400 0.767100 0.058000
C482 C 1.039350 0.482700 0.110950
H483 H 1.041000 0.515900 0.180000
H484 H 1.083200 0.399700 0.115500
O485 O 0.771630 0.577350 1.087790
O486 O 0.750150 0.276060 1.145000
O487 O 0.969300 0.178060 1.111650
O488 O 0.903120 0.472800 1.068320
C489 C 0.702770 0.652800 1.101170
H490 H 0.693800 0.787300 1.075500
H491 H 0.707900 0.652000 1.172600
H492 H 0.660700 0.569400 1.064400
C493 C 0.789570 0.388000 1.115380
C494 C 0.862560 0.333200 1.105040
C495 C 0.901700 0.163810 1.131490
C496 C 0.967630 0.367000 1.058580
C497 C 0.888020 -0.024700 1.179200
H498 H 0.925600 -0.039100 1.245500
H499 H 0.891300 -0.136100 1.136900
H500 H 0.838200 -0.021200 1.186100
C501 C 0.956580 0.325000 0.946890
H502 H 0.907500 0.261800 0.915600
H503 H 0.995600 0.232900 0.942000
C504 C 0.960650 0.517300 0.889050
H505 H 0.959000 0.484100 0.820000
H506 H 0.916800 0.600300 0.884500
O507 O 1.228370 0.422650 0.912210
O508 O 1.249850 0.723940 0.855000
O509 O 1.030700 0.821940 0.888350
O510 O 1.096880 0.527200 0.931680
C511 C 1.297230 0.347200 0.898830
H512 H 1.306200 0.212700 0.924500
H513 H 1.292100 0.348000 0.827400
H514 H 1.339300 0.430600 0.935600
C515 C 1.210430 0.612000 0.884620
C516 C 1.137440 0.666800 0.894960
C517 C 1.098300 0.836190 0.868510
C518 C 1.032370 0.633000 0.941420
C519 C 1.111980 1.024700 0.820800
H520 H 1.074400 1.039100 0.754500
H521 H 1.108700 1.136100 0.863100
H522 H 1.161800 1.021200 0.813900
C523 C 1.043420 0.675000 1.053110
H524 H 1.092500 0.738200 1.084400
H525 H 1.004400 0.767100 1.058000
C526 C 1.039350 0.482700 1.110950
H527 H 1.041000 0.515900 1.180000
H528 H 1.083200 0.399700 1.115500

#END
