./KABGUS_from_xyz.cif_generated_by_CrystalShift
_symmetry_cell_setting triclinic
_symmetry_space_group_name_H-M 'P 1'
loop_
_symmetry_equiv_pos_site_id
_symmetry_equiv_pos_as_xyz
1 x,y,z
_cell_length_a 7.155500
_cell_length_b 10.232500
_cell_length_c 16.111100
_cell_angle_alpha 90.000000
_cell_angle_beta 90.000000
_cell_angle_gamma 90.000000
_cell_volume 1179.633052
loop_
_atom_site_label
_atom_site_type_symbol
_atom_site_fract_x
_atom_site_fract_y
_atom_site_fract_z
N1 N 0.250000 -0.042730 0.026300
C2 C 0.250200 0.362400 0.110040
N3 N 0.249800 0.352000 -0.191350
C4 C 0.074100 0.392400 0.157960
H5 H -0.032900 0.373200 0.124100
H6 H 0.072800 0.483200 0.172900
H7 H 0.070300 0.340000 0.207300
C8 C 0.425400 0.392300 0.158040
H9 H 0.532600 0.372900 0.124400
H10 H 0.428700 0.340000 0.207500
H11 H 0.426700 0.483200 0.172900
C12 C 0.250100 0.318000 -0.034110
C13 C 0.249900 -0.056100 0.113760
H14 H 0.249800 0.020200 0.145100
C15 C 0.250400 -0.100600 -0.106230
H16 H 0.250900 -0.151300 -0.154100
C17 C 0.250000 0.034600 -0.102670
H18 H 0.249700 0.090700 -0.148100
C19 C 0.250100 0.334500 -0.121390
C20 C 0.250100 -0.164800 0.153300
H21 H 0.250300 -0.243300 0.124200
H22 H 0.250000 -0.165100 0.211000
C23 C 0.250000 0.071900 -0.021100
O24 O 0.249700 0.221580 0.091800
C25 C 0.250200 0.202900 0.009970
O26 O 0.249800 0.541930 0.011680
C27 C 0.249900 -0.145400 -0.027190
H28 H 0.249700 -0.233000 -0.011800
C29 C 0.250300 0.423800 0.024500
N30 N 0.750000 0.457270 0.473700
C31 C 0.749800 0.862400 0.389960
N32 N 0.750200 0.852000 0.691350
C33 C 0.925900 0.892400 0.342040
H34 H 1.032900 0.873200 0.375900
H35 H 0.927200 0.983200 0.327100
H36 H 0.929700 0.840000 0.292700
C37 C 0.574600 0.892300 0.341960
H38 H 0.467400 0.872900 0.375600
H39 H 0.571300 0.840000 0.292500
H40 H 0.573300 0.983200 0.327100
C41 C 0.749900 0.818000 0.534110
C42 C 0.750100 0.443900 0.386240
H43 H 0.750200 0.520200 0.354900
C44 C 0.749600 0.399400 0.606230
H45 H 0.749100 0.348700 0.654100
C46 C 0.750000 0.534600 0.602670
H47 H 0.750300 0.590700 0.648100
C48 C 0.749900 0.834500 0.621390
C49 C 0.749900 0.335200 0.346700
H50 H 0.749700 0.256700 0.375800
H51 H 0.750000 0.334900 0.289000
C52 C 0.750000 0.571900 0.521100
O53 O 0.750300 0.721580 0.408200
C54 C 0.749800 0.702900 0.490030
O55 O 0.750200 1.041930 0.488320
C56 C 0.750100 0.354600 0.527190
H57 H 0.750300 0.267000 0.511800
C58 C 0.749700 0.923800 0.475500
N59 N 0.750000 1.042730 0.973700
C60 C 0.749800 0.637600 0.889960
N61 N 0.750200 0.648000 1.191350
C62 C 0.925900 0.607600 0.842040
H63 H 1.032900 0.626800 0.875900
H64 H 0.927200 0.516800 0.827100
H65 H 0.929700 0.660000 0.792700
C66 C 0.574600 0.607700 0.841960
H67 H 0.467400 0.627100 0.875600
H68 H 0.571300 0.660000 0.792500
H69 H 0.573300 0.516800 0.827100
C70 C 0.749900 0.682000 1.034110
C71 C 0.750100 1.056100 0.886240
H72 H 0.750200 0.979800 0.854900
C73 C 0.749600 1.100600 1.106230
H74 H 0.749100 1.151300 1.154100
C75 C 0.750000 0.965400 1.102670
H76 H 0.750300 0.909300 1.148100
C77 C 0.749900 0.665500 1.121390
C78 C 0.749900 1.164800 0.846700
H79 H 0.749700 1.243300 0.875800
H80 H 0.750000 1.165100 0.789000
C81 C 0.750000 0.928100 1.021100
O82 O 0.750300 0.778420 0.908200
C83 C 0.749800 0.797100 0.990030
O84 O 0.750200 0.458070 0.988320
C85 C 0.750100 1.145400 1.027190
H86 H 0.750300 1.233000 1.011800
C87 C 0.749700 0.576200 0.975500
N88 N 0.250000 0.542730 0.526300
C89 C 0.250200 0.137600 0.610040
N90 N 0.249800 0.148000 0.308650
C91 C 0.074100 0.107600 0.657960
H92 H -0.032900 0.126800 0.624100
H93 H 0.072800 0.016800 0.672900
H94 H 0.070300 0.160000 0.707300
C95 C 0.425400 0.107700 0.658040
H96 H 0.532600 0.127100 0.624400
H97 H 0.428700 0.160000 0.707500
H98 H 0.426700 0.016800 0.672900
C99 C 0.250100 0.182000 0.465890
C100 C 0.249900 0.556100 0.613760
H101 H 0.249800 0.479800 0.645100
C102 C 0.250400 0.600600 0.393770
H103 H 0.250900 0.651300 0.345900
C104 C 0.250000 0.465400 0.397330
H105 H 0.249700 0.409300 0.351900
C106 C 0.250100 0.165500 0.378610
C107 C 0.250100 0.664800 0.653300
H108 H 0.250300 0.743300 0.624200
H109 H 0.250000 0.665100 0.711000
C110 C 0.250000 0.428100 0.478900
O111 O 0.249700 0.278420 0.591800
C112 C 0.250200 0.297100 0.509970
O113 O 0.249800 -0.041930 0.511680
C114 C 0.249900 0.645400 0.472810
H115 H 0.249700 0.733000 0.488200
C116 C 0.250300 0.076200 0.524500

#END
