./KABHUS_from_xyz.cif_generated_by_CrystalShift
_symmetry_cell_setting triclinic
_symmetry_space_group_name_H-M 'P 1'
loop_
_symmetry_equiv_pos_site_id
_symmetry_equiv_pos_as_xyz
1 x,y,z
_cell_length_a 5.444200
_cell_length_b 10.766500
_cell_length_c 32.216000
_cell_angle_alpha 90.000000
_cell_angle_beta 90.000000
_cell_angle_gamma 90.000000
_cell_volume 1888.340173
loop_
_atom_site_label
_atom_site_type_symbol
_atom_site_fract_x
_atom_site_fract_y
_atom_site_fract_z
O1 O -0.004400 0.128960 0.833250
O2 O 0.503900 -0.113260 0.804750
C3 C 0.355500 -0.082240 0.772490
C4 C 0.353000 -0.143300 0.734290
H5 H 0.466500 -0.205700 0.728800
C6 C 0.180600 -0.110500 0.704590
H7 H 0.180500 -0.150800 0.679100
C8 C 0.008400 -0.018700 0.712370
H9 H -0.109300 0.001300 0.692500
C10 C 0.013500 0.043160 0.750100
H11 H -0.101900 0.104800 0.755400
C12 C 0.188400 0.014770 0.780250
C13 C 0.188700 0.088770 0.819490
C14 C 0.428700 0.119640 0.838720
H15 H 0.569800 0.108400 0.822900
C16 C 0.454100 0.162410 0.877260
H17 H 0.611400 0.184300 0.885800
C18 C 0.251100 0.177970 0.907730
C19 C 0.158200 0.074030 0.929080
C20 C 0.261900 -0.047310 0.924230
H21 H 0.395700 -0.058500 0.906700
C22 C 0.167200 -0.146400 0.945010
H23 H 0.238600 -0.224300 0.941900
C24 C -0.039900 -0.131800 0.971340
H25 H -0.104900 -0.200600 0.984900
C26 C -0.143500 -0.019200 0.976890
H27 H -0.278700 -0.011500 0.994300
C28 C -0.048800 0.088500 0.956400
C29 C -0.151800 0.205900 0.961890
H30 H -0.286900 0.214700 0.979300
C31 C -0.057400 0.310200 0.941960
C32 C -0.162900 0.430800 0.946950
H33 H -0.299000 0.440600 0.964100
C34 C -0.068700 0.531300 0.927210
H35 H -0.141700 0.608700 0.930600
C36 C 0.140800 0.518800 0.901340
H37 H 0.207200 0.588700 0.888600
C38 C 0.245600 0.405560 0.894960
H39 H 0.380400 0.398800 0.877400
C40 C 0.151500 0.296880 0.914890
C41 C 0.679900 -0.211800 0.799720
H42 H 0.791900 -0.193200 0.777100
H43 H 0.597300 -0.289600 0.793700
C44 C 0.816400 -0.220000 0.840100
H45 H 0.949100 -0.278200 0.837400
H46 H 0.706600 -0.247300 0.861600
H47 H 0.881000 -0.139700 0.847200
O48 O 0.504400 0.871040 0.333250
O49 O -0.003900 1.113260 0.304750
C50 C 0.144500 1.082240 0.272490
C51 C 0.147000 1.143300 0.234290
H52 H 0.033500 1.205700 0.228800
C53 C 0.319400 1.110500 0.204590
H54 H 0.319500 1.150800 0.179100
C55 C 0.491600 1.018700 0.212370
H56 H 0.609300 0.998700 0.192500
C57 C 0.486500 0.956840 0.250100
H58 H 0.601900 0.895200 0.255400
C59 C 0.311600 0.985230 0.280250
C60 C 0.311300 0.911230 0.319490
C61 C 0.071300 0.880360 0.338720
H62 H -0.069800 0.891600 0.322900
C63 C 0.045900 0.837590 0.377260
H64 H -0.111400 0.815700 0.385800
C65 C 0.248900 0.822030 0.407730
C66 C 0.341800 0.925970 0.429080
C67 C 0.238100 1.047310 0.424230
H68 H 0.104300 1.058500 0.406700
C69 C 0.332800 1.146400 0.445010
H70 H 0.261400 1.224300 0.441900
C71 C 0.539900 1.131800 0.471340
H72 H 0.604900 1.200600 0.484900
C73 C 0.643500 1.019200 0.476890
H74 H 0.778700 1.011500 0.494300
C75 C 0.548800 0.911500 0.456400
C76 C 0.651800 0.794100 0.461890
H77 H 0.786900 0.785300 0.479300
C78 C 0.557400 0.689800 0.441960
C79 C 0.662900 0.569200 0.446950
H80 H 0.799000 0.559400 0.464100
C81 C 0.568700 0.468700 0.427210
H82 H 0.641700 0.391300 0.430600
C83 C 0.359200 0.481200 0.401340
H84 H 0.292800 0.411300 0.388600
C85 C 0.254400 0.594440 0.394960
H86 H 0.119600 0.601200 0.377400
C87 C 0.348500 0.703120 0.414890
C88 C -0.179900 1.211800 0.299720
H89 H -0.291900 1.193200 0.277100
H90 H -0.097300 1.289600 0.293700
C91 C -0.316400 1.220000 0.340100
H92 H -0.449100 1.278200 0.337400
H93 H -0.206600 1.247300 0.361600
H94 H -0.381000 1.139700 0.347200
O95 O 1.004400 0.628960 0.666750
O96 O 0.496100 0.386740 0.695250
C97 C 0.644500 0.417760 0.727510
C98 C 0.647000 0.356700 0.765710
H99 H 0.533500 0.294300 0.771200
C100 C 0.819400 0.389500 0.795410
H101 H 0.819500 0.349200 0.820900
C102 C 0.991600 0.481300 0.787630
H103 H 1.109300 0.501300 0.807500
C104 C 0.986500 0.543160 0.749900
H105 H 1.101900 0.604800 0.744600
C106 C 0.811600 0.514770 0.719750
C107 C 0.811300 0.588770 0.680510
C108 C 0.571300 0.619640 0.661280
H109 H 0.430200 0.608400 0.677100
C110 C 0.545900 0.662410 0.622740
H111 H 0.388600 0.684300 0.614200
C112 C 0.748900 0.677970 0.592270
C113 C 0.841800 0.574030 0.570920
C114 C 0.738100 0.452690 0.575770
H115 H 0.604300 0.441500 0.593300
C116 C 0.832800 0.353600 0.554990
H117 H 0.761400 0.275700 0.558100
C118 C 1.039900 0.368200 0.528660
H119 H 1.104900 0.299400 0.515100
C120 C 1.143500 0.480800 0.523110
H121 H 1.278700 0.488500 0.505700
C122 C 1.048800 0.588500 0.543600
C123 C 1.151800 0.705900 0.538110
H124 H 1.286900 0.714700 0.520700
C125 C 1.057400 0.810200 0.558040
C126 C 1.162900 0.930800 0.553050
H127 H 1.299000 0.940600 0.535900
C128 C 1.068700 1.031300 0.572790
H129 H 1.141700 1.108700 0.569400
C130 C 0.859200 1.018800 0.598660
H131 H 0.792800 1.088700 0.611400
C132 C 0.754400 0.905560 0.605040
H133 H 0.619600 0.898800 0.622600
C134 C 0.848500 0.796880 0.585110
C135 C 0.320100 0.288200 0.700280
H136 H 0.208100 0.306800 0.722900
H137 H 0.402700 0.210400 0.706300
C138 C 0.183600 0.280000 0.659900
H139 H 0.050900 0.221800 0.662600
H140 H 0.293400 0.252700 0.638400
H141 H 0.119000 0.360300 0.652800
O142 O 0.495600 0.371040 0.166750
O143 O 1.003900 0.613260 0.195250
C144 C 0.855500 0.582240 0.227510
C145 C 0.853000 0.643300 0.265710
H146 H 0.966500 0.705700 0.271200
C147 C 0.680600 0.610500 0.295410
H148 H 0.680500 0.650800 0.320900
C149 C 0.508400 0.518700 0.287630
H150 H 0.390700 0.498700 0.307500
C151 C 0.513500 0.456840 0.249900
H152 H 0.398100 0.395200 0.244600
C153 C 0.688400 0.485230 0.219750
C154 C 0.688700 0.411230 0.180510
C155 C 0.928700 0.380360 0.161280
H156 H 1.069800 0.391600 0.177100
C157 C 0.954100 0.337590 0.122740
H158 H 1.111400 0.315700 0.114200
C159 C 0.751100 0.322030 0.092270
C160 C 0.658200 0.425970 0.070920
C161 C 0.761900 0.547310 0.075770
H162 H 0.895700 0.558500 0.093300
C163 C 0.667200 0.646400 0.054990
H164 H 0.738600 0.724300 0.058100
C165 C 0.460100 0.631800 0.028660
H166 H 0.395100 0.700600 0.015100
C167 C 0.356500 0.519200 0.023110
H168 H 0.221300 0.511500 0.005700
C169 C 0.451200 0.411500 0.043600
C170 C 0.348200 0.294100 0.038110
H171 H 0.213100 0.285300 0.020700
C172 C 0.442600 0.189800 0.058040
C173 C 0.337100 0.069200 0.053050
H174 H 0.201000 0.059400 0.035900
C175 C 0.431300 -0.031300 0.072790
H176 H 0.358300 -0.108700 0.069400
C177 C 0.640800 -0.018800 0.098660
H178 H 0.707200 -0.088700 0.111400
C179 C 0.745600 0.094440 0.105040
H180 H 0.880400 0.101200 0.122600
C181 C 0.651500 0.203120 0.085110
C182 C 1.179900 0.711800 0.200280
H183 H 1.291900 0.693200 0.222900
H184 H 1.097300 0.789600 0.206300
C185 C 1.316400 0.720000 0.159900
H186 H 1.449100 0.778200 0.162600
H187 H 1.206600 0.747300 0.138400
H188 H 1.381000 0.639700 0.152800

#END
