./KABJII_from_xyz.cif_generated_by_CrystalShift
_symmetry_cell_setting triclinic
_symmetry_space_group_name_H-M 'P 1'
loop_
_symmetry_equiv_pos_site_id
_symmetry_equiv_pos_as_xyz
1 x,y,z
_cell_length_a 12.157000
_cell_length_b 11.483000
_cell_length_c 14.964000
_cell_angle_alpha 90.000000
_cell_angle_beta 90.000000
_cell_angle_gamma 90.000000
_cell_volume 2088.956907
loop_
_atom_site_label
_atom_site_type_symbol
_atom_site_fract_x
_atom_site_fract_y
_atom_site_fract_z
S1 S 0.819530 0.232020 0.110980
O2 O 0.480700 0.222100 0.216300
O3 O 0.858500 0.223100 0.021500
O4 O 0.900380 0.246100 0.179900
N5 N 0.797500 0.008900 0.125300
C6 C 0.726300 0.348400 0.117700
C7 C 0.767000 0.454000 0.089900
C8 C 0.702100 0.550900 0.097000
C9 C 0.596000 0.542900 0.131300
C10 C 0.555600 0.437300 0.156500
C11 C 0.619200 0.336700 0.150900
C12 C 0.570700 0.224000 0.180200
C13 C 0.631900 0.114300 0.166400
C14 C 0.580700 0.007200 0.186000
C15 C 0.638700 -0.094900 0.176000
C16 C 0.746200 -0.091500 0.146700
C17 C 0.739300 0.106800 0.136400
H18 H 0.837730 0.459510 0.066570
H19 H 0.729200 0.622840 0.078690
H20 H 0.552890 0.609380 0.137090
H21 H 0.483910 0.432250 0.177800
H22 H 0.508120 0.005520 0.205550
H23 H 0.605500 -0.165920 0.189010
H24 H 0.784850 -0.161050 0.141400
S25 S 0.180470 0.767980 0.610980
O26 O 0.519300 0.777900 0.716300
O27 O 0.141500 0.776900 0.521500
O28 O 0.099620 0.753900 0.679900
N29 N 0.202500 0.991100 0.625300
C30 C 0.273700 0.651600 0.617700
C31 C 0.233000 0.546000 0.589900
C32 C 0.297900 0.449100 0.597000
C33 C 0.404000 0.457100 0.631300
C34 C 0.444400 0.562700 0.656500
C35 C 0.380800 0.663300 0.650900
C36 C 0.429300 0.776000 0.680200
C37 C 0.368100 0.885700 0.666400
C38 C 0.419300 0.992800 0.686000
C39 C 0.361300 1.094900 0.676000
C40 C 0.253800 1.091500 0.646700
C41 C 0.260700 0.893200 0.636400
H42 H 0.162270 0.540490 0.566570
H43 H 0.270800 0.377160 0.578690
H44 H 0.447110 0.390620 0.637090
H45 H 0.516090 0.567750 0.677800
H46 H 0.491880 0.994480 0.705550
H47 H 0.394500 1.165920 0.689010
H48 H 0.215150 1.161050 0.641400
S49 S 0.680470 0.232020 0.610980
O50 O 1.019300 0.222100 0.716300
O51 O 0.641500 0.223100 0.521500
O52 O 0.599620 0.246100 0.679900
N53 N 0.702500 0.008900 0.625300
C54 C 0.773700 0.348400 0.617700
C55 C 0.733000 0.454000 0.589900
C56 C 0.797900 0.550900 0.597000
C57 C 0.904000 0.542900 0.631300
C58 C 0.944400 0.437300 0.656500
C59 C 0.880800 0.336700 0.650900
C60 C 0.929300 0.224000 0.680200
C61 C 0.868100 0.114300 0.666400
C62 C 0.919300 0.007200 0.686000
C63 C 0.861300 -0.094900 0.676000
C64 C 0.753800 -0.091500 0.646700
C65 C 0.760700 0.106800 0.636400
H66 H 0.662270 0.459510 0.566570
H67 H 0.770800 0.622840 0.578690
H68 H 0.947110 0.609380 0.637090
H69 H 1.016090 0.432250 0.677800
H70 H 0.991880 0.005520 0.705550
H71 H 0.894500 -0.165920 0.689010
H72 H 0.715150 -0.161050 0.641400
S73 S 0.319530 0.767980 0.110980
O74 O -0.019300 0.777900 0.216300
O75 O 0.358500 0.776900 0.021500
O76 O 0.400380 0.753900 0.179900
N77 N 0.297500 0.991100 0.125300
C78 C 0.226300 0.651600 0.117700
C79 C 0.267000 0.546000 0.089900
C80 C 0.202100 0.449100 0.097000
C81 C 0.096000 0.457100 0.131300
C82 C 0.055600 0.562700 0.156500
C83 C 0.119200 0.663300 0.150900
C84 C 0.070700 0.776000 0.180200
C85 C 0.131900 0.885700 0.166400
C86 C 0.080700 0.992800 0.186000
C87 C 0.138700 1.094900 0.176000
C88 C 0.246200 1.091500 0.146700
C89 C 0.239300 0.893200 0.136400
H90 H 0.337730 0.540490 0.066570
H91 H 0.229200 0.377160 0.078690
H92 H 0.052890 0.390620 0.137090
H93 H -0.016090 0.567750 0.177800
H94 H 0.008120 0.994480 0.205550
H95 H 0.105500 1.165920 0.189010
H96 H 0.284850 1.161050 0.141400
S97 S 0.556760 0.729670 0.424220
O98 O 0.212600 0.723600 0.330320
O99 O 0.596800 0.722300 0.514600
O100 O 0.635800 0.740300 0.353900
N101 N 0.531300 0.506300 0.410600
C102 C 0.465500 0.847100 0.417300
C103 C 0.508600 0.953400 0.442400
C104 C 0.444800 1.050900 0.434100
C105 C 0.339600 1.044300 0.402600
C106 C 0.295900 0.938600 0.378400
C107 C 0.357600 0.837400 0.385600
C108 C 0.305300 0.724900 0.359200
C109 C 0.367000 0.612700 0.370400
C110 C 0.315600 0.508800 0.350400
C111 C 0.371600 0.406000 0.360000
C112 C 0.478300 0.407400 0.389900
C113 C 0.475000 0.605900 0.400400
H114 H 0.579900 0.958720 0.464560
H115 H 0.473550 1.122960 0.450130
H116 H 0.297450 1.111600 0.397510
H117 H 0.224120 0.934880 0.357010
H118 H 0.243100 0.508520 0.330520
H119 H 0.337460 0.335690 0.346370
H120 H 0.515350 0.337050 0.396060
S121 S 0.443240 0.270330 0.924220
O122 O 0.787400 0.276400 0.830320
O123 O 0.403200 0.277700 1.014600
O124 O 0.364200 0.259700 0.853900
N125 N 0.468700 0.493700 0.910600
C126 C 0.534500 0.152900 0.917300
C127 C 0.491400 0.046600 0.942400
C128 C 0.555200 -0.050900 0.934100
C129 C 0.660400 -0.044300 0.902600
C130 C 0.704100 0.061400 0.878400
C131 C 0.642400 0.162600 0.885600
C132 C 0.694700 0.275100 0.859200
C133 C 0.633000 0.387300 0.870400
C134 C 0.684400 0.491200 0.850400
C135 C 0.628400 0.594000 0.860000
C136 C 0.521700 0.592600 0.889900
C137 C 0.525000 0.394100 0.900400
H138 H 0.420100 0.041280 0.964560
H139 H 0.526450 -0.122960 0.950130
H140 H 0.702550 -0.111600 0.897510
H141 H 0.775880 0.065120 0.857010
H142 H 0.756900 0.491480 0.830520
H143 H 0.662540 0.664310 0.846370
H144 H 0.484650 0.662950 0.896060
S145 S -0.056760 0.729670 0.924220
O146 O 0.287400 0.723600 0.830320
O147 O -0.096800 0.722300 1.014600
O148 O -0.135800 0.740300 0.853900
N149 N -0.031300 0.506300 0.910600
C150 C 0.034500 0.847100 0.917300
C151 C -0.008600 0.953400 0.942400
C152 C 0.055200 1.050900 0.934100
C153 C 0.160400 1.044300 0.902600
C154 C 0.204100 0.938600 0.878400
C155 C 0.142400 0.837400 0.885600
C156 C 0.194700 0.724900 0.859200
C157 C 0.133000 0.612700 0.870400
C158 C 0.184400 0.508800 0.850400
C159 C 0.128400 0.406000 0.860000
C160 C 0.021700 0.407400 0.889900
C161 C 0.025000 0.605900 0.900400
H162 H -0.079900 0.958720 0.964560
H163 H 0.026450 1.122960 0.950130
H164 H 0.202550 1.111600 0.897510
H165 H 0.275880 0.934880 0.857010
H166 H 0.256900 0.508520 0.830520
H167 H 0.162540 0.335690 0.846370
H168 H -0.015350 0.337050 0.896060
S169 S 1.056760 0.270330 0.424220
O170 O 0.712600 0.276400 0.330320
O171 O 1.096800 0.277700 0.514600
O172 O 1.135800 0.259700 0.353900
N173 N 1.031300 0.493700 0.410600
C174 C 0.965500 0.152900 0.417300
C175 C 1.008600 0.046600 0.442400
C176 C 0.944800 -0.050900 0.434100
C177 C 0.839600 -0.044300 0.402600
C178 C 0.795900 0.061400 0.378400
C179 C 0.857600 0.162600 0.385600
C180 C 0.805300 0.275100 0.359200
C181 C 0.867000 0.387300 0.370400
C182 C 0.815600 0.491200 0.350400
C183 C 0.871600 0.594000 0.360000
C184 C 0.978300 0.592600 0.389900
C185 C 0.975000 0.394100 0.400400
H186 H 1.079900 0.041280 0.464560
H187 H 0.973550 -0.122960 0.450130
H188 H 0.797450 -0.111600 0.397510
H189 H 0.724120 0.065120 0.357010
H190 H 0.743100 0.491480 0.330520
H191 H 0.837460 0.664310 0.346370
H192 H 1.015350 0.662950 0.396060

#END
