./ACIDUL_from_POSCAR.cif_generated_by_CrystalShift
_symmetry_cell_setting triclinic
_symmetry_space_group_name_H-M 'P 1'
loop_
_symmetry_equiv_pos_site_id
_symmetry_equiv_pos_as_xyz
1 x,y,z
_cell_length_a 6.052000
_cell_length_b 10.274800
_cell_length_c 7.162100
_cell_angle_alpha 90.000000
_cell_angle_beta 91.335000
_cell_angle_gamma 90.000000
_cell_volume 445.240619
loop_
_atom_site_label
_atom_site_type_symbol
_atom_site_fract_x
_atom_site_fract_y
_atom_site_fract_z
H1 H 0.856700 0.509500 -0.148100
H2 H 0.631400 0.462300 -0.057200
H3 H 1.071000 0.248900 -0.168600
H4 H 1.200700 0.377100 -0.102200
H5 H 1.198400 0.251400 0.029700
H6 H -0.091200 0.981800 0.785500
H7 H 0.538300 0.100000 0.368000
H8 H 0.320600 1.045100 0.793900
H9 H 0.210700 1.037500 0.586800
H10 H 0.791600 0.055700 0.382900
H11 H 0.526900 0.866600 0.740900
H12 H 0.443600 0.872200 0.525700
H13 H 0.687500 0.141000 0.545800
H14 H -0.107300 0.747600 0.680000
H15 H -0.004800 0.834500 0.513600
H16 H 1.004800 0.334500 0.486400
H17 H 0.312500 0.641000 0.454200
H18 H 0.208400 0.555700 0.617100
H19 H 0.461700 0.600000 0.632000
H20 H 1.107300 0.247600 0.320000
H21 H -0.198400 0.751400 0.970300
H22 H -0.200700 0.877100 1.102200
H23 H -0.071000 0.748900 1.168600
H24 H 0.556400 0.372200 0.474300
H25 H 0.368600 0.962300 1.057200
H26 H 0.262600 0.879800 1.222200
H27 H 0.143300 1.009500 1.148100
H28 H 0.473100 0.366600 0.259100
H29 H 0.789300 0.537500 0.413200
H30 H 0.679400 0.545100 0.206100
H31 H 1.091200 0.481800 0.214500
H32 H 0.737400 0.379800 -0.222200
C33 C 0.901700 0.353600 0.031500
C34 C 0.752400 0.487000 0.298900
C35 C 0.765600 0.238800 0.100100
C36 C 0.754900 0.249100 0.311000
C37 C 0.605100 0.369000 0.343300
C38 C 0.245100 0.749100 0.689000
C39 C 0.229900 0.933400 1.111800
C40 C 0.986000 0.306900 0.354500
C41 C -0.112000 0.803200 1.060800
C42 C 0.312900 0.625500 0.589200
C43 C 0.687100 0.125500 0.410800
C44 C 0.014000 0.806900 0.645500
C45 C 0.394900 0.869000 0.656700
C46 C 0.247600 0.987000 0.701100
C47 C 1.112000 0.303200 -0.060800
C48 C 0.040500 0.923300 0.781100
C49 C 0.098300 0.853600 0.968500
C50 C 0.234400 0.738800 0.899900
C51 C 0.770100 0.433400 -0.111800
C52 C 0.959500 0.423300 0.218900
O53 O 0.679400 0.155700 0.002100
O54 O 0.320600 0.655700 0.997900

#END
