./ACIFUP_from_POSCAR.cif_generated_by_CrystalShift
_symmetry_cell_setting triclinic
_symmetry_space_group_name_H-M 'P 1'
loop_
_symmetry_equiv_pos_site_id
_symmetry_equiv_pos_as_xyz
1 x,y,z
_cell_length_a 25.832500
_cell_length_b 8.589400
_cell_length_c 22.711200
_cell_angle_alpha 90.000000
_cell_angle_beta 123.229000
_cell_angle_gamma 90.000000
_cell_volume 4215.300836
loop_
_atom_site_label
_atom_site_type_symbol
_atom_site_fract_x
_atom_site_fract_y
_atom_site_fract_z
H1 H 0.614000 0.093000 0.887300
H2 H 0.934500 0.866600 0.672600
H3 H 0.698700 -0.073700 0.942000
H4 H 0.940900 1.040100 0.599100
H5 H 0.702100 -0.285700 0.881600
H6 H 1.015500 1.006100 0.573800
H7 H 1.084300 0.804400 0.622700
H8 H 1.078200 0.627200 0.695600
H9 H 0.085400 0.684600 0.129000
H10 H 0.058900 0.741200 0.052100
H11 H 0.886000 0.593000 0.612700
H12 H 0.216100 0.423600 0.233500
H13 H 0.183800 0.587200 0.212800
H14 H 0.801300 0.426300 0.558000
H15 H 0.797900 0.214300 0.618400
H16 H 0.878800 0.162500 0.731100
H17 H 0.206900 0.255400 0.139100
H18 H 0.964200 0.324200 0.786100
H19 H 0.145600 0.169300 0.025500
H20 H 1.065500 0.866600 0.827400
H21 H 0.061800 0.317800 -0.057300
H22 H 1.059100 1.040100 0.900900
H23 H 0.042200 0.553900 -0.025100
H24 H 0.984500 1.006100 0.926200
H25 H 0.621200 -0.337500 0.768900
H26 H 0.915700 0.804400 0.877300
H27 H 0.535800 -0.175800 0.713900
H28 H 0.921800 0.627200 0.804400
H29 H 0.114000 0.593000 0.887300
H30 H 0.198700 0.426300 0.942000
H31 H 0.414600 0.815400 -0.129000
H32 H 0.441100 0.758800 -0.052100
H33 H 0.202100 0.214300 0.881600
H34 H 0.283900 1.076400 -0.233500
H35 H 0.316200 0.912800 -0.212800
H36 H 0.121200 0.162500 0.768900
H37 H 0.035800 0.324200 0.713900
H38 H -0.065500 0.866600 0.672600
H39 H 0.293100 1.244600 -0.139100
H40 H -0.059100 1.040100 0.599100
H41 H 0.354400 1.330700 -0.025500
H42 H 0.015500 1.006100 0.573800
H43 H 0.438200 1.182200 0.057300
H44 H 0.084300 0.804400 0.622700
H45 H 0.457800 0.946100 0.025100
H46 H 0.078200 0.627200 0.695600
H47 H -0.114000 0.593000 0.612700
H48 H 0.434500 0.366600 0.672600
H49 H -0.198700 0.426300 0.558000
H50 H 0.440900 0.540100 0.599100
H51 H -0.202100 0.214300 0.618400
H52 H -0.121200 0.162500 0.731100
H53 H -0.035800 0.324200 0.786100
H54 H 0.085400 0.684600 1.129000
H55 H 0.058900 0.741200 1.052100
H56 H 0.065500 0.866600 0.827400
H57 H 0.216100 0.423600 1.233500
H58 H 0.183800 0.587200 1.212800
H59 H 0.059100 1.040100 0.900900
H60 H -0.015500 1.006100 0.926200
H61 H -0.084300 0.804400 0.877300
H62 H 0.206900 0.255400 1.139100
H63 H -0.078200 0.627200 0.804400
H64 H 0.145600 0.169300 1.025500
H65 H 0.386000 0.907000 0.112700
H66 H 0.061800 0.317800 0.942700
H67 H 0.301300 1.073700 0.058000
H68 H 0.042200 0.553900 0.974900
H69 H 0.297900 1.285700 0.118400
H70 H 0.515500 0.506100 0.573800
H71 H 0.378800 1.337500 0.231100
H72 H 0.584300 0.304400 0.622700
H73 H 0.464200 1.175800 0.286100
H74 H 0.565500 0.633400 0.327400
H75 H 0.559100 0.459900 0.400900
H76 H 0.414600 0.815400 0.871000
H77 H 0.441100 0.758800 0.947900
H78 H 0.484500 0.493900 0.426200
H79 H 0.283900 1.076400 0.766500
H80 H 0.316200 0.912800 0.787200
H81 H 0.415700 0.695600 0.377300
H82 H 0.421800 0.872800 0.304400
H83 H 0.614000 0.907000 0.387300
H84 H 0.293100 1.244600 0.860900
H85 H 0.698700 1.073700 0.442000
H86 H 0.354400 1.330700 0.974500
H87 H 0.702100 1.285700 0.381600
H88 H 0.438200 1.182200 1.057300
H89 H 0.621200 1.337500 0.268900
H90 H 0.457800 0.946100 1.025100
H91 H 0.535800 1.175800 0.213900
H92 H 0.578200 0.127200 0.695600
H93 H 0.434500 0.633400 0.172600
H94 H 0.440900 0.459900 0.099100
H95 H 0.386000 0.093000 0.612700
H96 H 0.515500 0.493900 0.073800
H97 H 0.584300 0.695600 0.122700
H98 H 0.578200 0.872800 0.195600
H99 H 0.914600 0.684600 0.371000
H100 H 0.941100 0.741200 0.447900
H101 H 0.886000 0.407000 0.112700
H102 H 0.783900 0.423600 0.266500
H103 H 0.816200 0.587200 0.287200
H104 H 0.801300 0.573700 0.058000
H105 H 0.797900 0.785700 0.118400
H106 H 0.878800 0.837500 0.231100
H107 H 0.793100 0.255400 0.360900
H108 H 0.964200 0.675800 0.286100
H109 H 0.854400 0.169300 0.474500
H110 H 1.065500 0.133400 0.327400
H111 H 0.938200 0.317800 0.557300
H112 H 1.059100 -0.040100 0.400900
H113 H 0.957800 0.553900 0.525100
H114 H 0.984500 -0.006100 0.426200
H115 H 0.301300 -0.073700 0.558000
H116 H 0.915700 0.195600 0.377300
H117 H 0.297900 -0.285700 0.618400
H118 H 0.921800 0.372800 0.304400
H119 H 1.114000 0.407000 0.387300
H120 H 1.198700 0.573700 0.442000
H121 H 0.585400 0.815400 0.629000
H122 H 0.558900 0.758800 0.552100
H123 H 1.202100 0.785700 0.381600
H124 H 0.716100 1.076400 0.733500
H125 H 0.683800 0.912800 0.712800
H126 H 1.121200 0.837500 0.268900
H127 H 1.035800 0.675800 0.213900
H128 H 0.934500 0.133400 0.172600
H129 H 0.706900 1.244600 0.639100
H130 H 0.940900 -0.040100 0.099100
H131 H 0.645600 1.330700 0.525500
H132 H 1.015500 -0.006100 0.073800
H133 H 0.561800 1.182200 0.442700
H134 H 1.084300 0.195600 0.122700
H135 H 0.542200 0.946100 0.474900
H136 H 1.078200 0.372800 0.195600
H137 H 0.378800 -0.337500 0.731100
H138 H -0.114000 0.407000 0.112700
H139 H 0.464200 -0.175800 0.786100
H140 H -0.198700 0.573700 0.058000
H141 H -0.202100 0.785700 0.118400
H142 H -0.121200 0.837500 0.231100
H143 H -0.035800 0.675800 0.286100
H144 H 0.585400 0.184600 0.129000
H145 H 0.558900 0.241200 0.052100
H146 H 0.065500 0.133400 0.327400
H147 H 0.716100 -0.076400 0.233500
H148 H 0.683800 0.087200 0.212800
H149 H 0.059100 -0.040100 0.400900
H150 H -0.015500 -0.006100 0.426200
H151 H -0.084300 0.195600 0.377300
H152 H 0.706900 -0.244600 0.139100
H153 H -0.078200 0.372800 0.304400
H154 H 0.645600 -0.330700 0.025500
H155 H 0.114000 0.407000 0.387300
H156 H 0.561800 -0.182200 -0.057300
H157 H 0.198700 0.573700 0.442000
H158 H 0.542200 0.053900 -0.025100
H159 H 0.202100 0.785700 0.381600
H160 H 0.565500 0.366600 0.827400
H161 H 0.121200 0.837500 0.268900
H162 H 0.559100 0.540100 0.900900
H163 H 0.035800 0.675800 0.213900
H164 H -0.065500 0.133400 0.172600
H165 H -0.059100 -0.040100 0.099100
H166 H 0.914600 0.315400 -0.129000
H167 H 0.941100 0.258800 -0.052100
H168 H 0.015500 -0.006100 0.073800
H169 H 0.783900 0.576400 -0.233500
H170 H 0.816200 0.412800 -0.212800
H171 H 0.084300 0.195600 0.122700
H172 H 0.078200 0.372800 0.195600
H173 H 0.042200 0.446100 0.474900
H174 H 0.793100 0.744600 -0.139100
H175 H 0.061800 0.682200 0.442700
H176 H 0.854400 0.830700 -0.025500
H177 H 0.145600 0.830700 0.525500
H178 H 0.938200 0.682200 0.057300
H179 H 0.206900 0.744600 0.639100
H180 H 0.957800 0.446100 0.025100
H181 H 0.183800 0.412800 0.712800
H182 H 0.484500 0.506100 0.926200
H183 H 0.216100 0.576400 0.733500
H184 H 0.415700 0.304400 0.877300
H185 H 0.058900 0.258800 0.552100
H186 H 0.085400 0.315400 0.629000
H187 H 1.035800 0.324200 0.713900
H188 H 1.121200 0.162500 0.768900
H189 H 0.585400 0.184600 1.129000
H190 H 0.558900 0.241200 1.052100
H191 H 0.457800 0.053900 0.525100
H192 H 0.716100 -0.076400 1.233500
H193 H 0.683800 0.087200 1.212800
H194 H 0.438200 -0.182200 0.557300
H195 H 0.354400 -0.330700 0.474500
H196 H 0.293100 -0.244600 0.360900
H197 H 0.706900 -0.244600 1.139100
H198 H 0.316200 0.087200 0.287200
H199 H 0.645600 -0.330700 1.025500
H200 H 0.283900 -0.076400 0.266500
H201 H 0.561800 -0.182200 0.942700
H202 H 0.441100 0.241200 0.447900
H203 H 0.542200 0.053900 0.974900
H204 H 0.421800 0.127200 0.804400
H205 H 0.414600 0.184600 0.371000
H206 H 1.202100 0.214300 0.881600
H207 H 1.198700 0.426300 0.942000
H208 H 1.114000 0.593000 0.887300
H209 H 0.957800 0.446100 1.025100
H210 H 0.938200 0.682200 1.057300
H211 H 0.914600 0.315400 0.871000
H212 H 0.941100 0.258800 0.947900
H213 H 0.854400 0.830700 0.974500
H214 H 0.783900 0.576400 0.766500
H215 H 0.816200 0.412800 0.787200
H216 H 0.793100 0.744600 0.860900
C217 C 0.837590 0.543000 0.872780
C218 C 0.826410 0.684000 0.893840
C219 C 0.887880 0.452700 0.922640
C220 C 0.862990 0.736000 0.961650
C221 C 0.794900 0.488700 0.798190
C222 C 0.912840 0.647200 1.011160
C223 C 0.904360 0.298600 0.905700
C224 C 0.924650 0.506300 0.991610
C225 C 0.749050 0.314870 0.866080
C226 C 0.797900 0.216140 0.903050
C227 C 1.115230 0.506800 0.863340
C228 C 1.066680 0.476560 0.795080
C229 C 1.166000 0.407200 0.895960
C230 C 0.494820 0.228000 0.809360
C231 C 0.297900 0.283860 0.403050
C232 C 0.249050 0.185130 0.366080
C233 C 0.404360 0.201400 0.405700
C234 C 0.449530 0.209800 0.823830
C235 C 0.575350 -0.006300 1.008390
C236 C 0.294900 0.011300 0.298190
C237 C 0.587160 -0.147200 0.988840
C238 C 0.637010 -0.236000 1.038350
C239 C 0.387880 0.047300 0.422640
C240 C 0.337590 -0.043000 0.372780
C241 C 0.326410 -0.184000 0.393840
C242 C 0.673590 -0.184000 1.106160
C243 C 0.362990 -0.236000 0.461650
C244 C 0.662410 -0.043000 1.127220
C245 C 0.412840 -0.147200 0.511160
C246 C 0.612120 0.047300 1.077360
C247 C 0.424650 -0.006300 0.491610
C248 C 0.705100 0.011300 1.201810
C249 C 1.167770 0.279700 0.859850
C250 C 0.595640 0.201400 1.094300
C251 C 1.119580 0.248900 0.792510
C252 C 0.750950 0.185130 1.133920
C253 C 0.202100 0.216140 0.596950
C254 C 0.250950 0.314870 0.633920
C255 C 0.095640 0.298600 0.594300
C256 C 0.702100 0.283860 1.096950
C257 C 0.446090 0.315800 0.867510
C258 C 0.205100 0.488700 0.701810
C259 C 0.486840 0.436700 0.896370
C260 C 0.531730 0.456800 0.881450
C261 C 0.112120 0.452700 0.577360
C262 C 0.162410 0.543000 0.627220
C263 C 0.173590 0.684000 0.606160
C264 C 0.924650 0.506300 -0.008390
C265 C 0.137010 0.736000 0.538350
C266 C 0.912840 0.647200 0.011160
C267 C 0.087160 0.647200 0.488840
C268 C 0.862990 0.736000 -0.038350
C269 C 0.075350 0.506300 0.508390
C270 C 0.826410 0.684000 -0.106160
C271 C 0.615230 0.006800 0.863340
C272 C 0.005180 0.272000 0.190640
C273 C 0.050470 0.290200 0.176170
C274 C 0.837590 0.543000 -0.127220
C275 C 0.053910 0.184200 0.132490
C276 C 0.887880 0.452700 -0.077360
C277 C 0.013160 0.063300 0.103630
C278 C 0.794900 0.488700 -0.201810
C279 C -0.031730 0.043200 0.118550
C280 C 0.904360 0.298600 -0.094300
C281 C -0.035670 0.146900 0.162170
C282 C 0.749050 0.314870 -0.133920
C283 C 0.066680 0.523440 0.295080
C284 C 0.068680 0.654300 0.259570
C285 C 0.797900 0.216140 -0.096950
C286 C 0.119580 0.751100 0.292510
C287 C 0.535670 0.353100 0.837830
C288 C 0.167770 0.720300 0.359850
C289 C 0.433320 -0.023440 0.704920
C290 C 0.166000 0.592800 0.395960
C291 C 0.575350 -0.006300 0.008390
C292 C 0.115230 0.493200 0.363340
C293 C 0.587160 -0.147200 -0.011160
C294 C -0.005180 0.272000 0.309360
C295 C -0.050470 0.290200 0.323830
C296 C 0.637010 -0.236000 0.038350
C297 C -0.053910 0.184200 0.367510
C298 C 0.673590 -0.184000 0.106160
C299 C -0.013160 0.063300 0.396370
C300 C 0.662410 -0.043000 0.127220
C301 C 0.031730 0.043200 0.381450
C302 C 0.612120 0.047300 0.077360
C303 C 0.035670 0.146900 0.337830
C304 C 0.705100 0.011300 0.201810
C305 C -0.066680 0.523440 0.204920
C306 C -0.068680 0.654300 0.240430
C307 C 0.595640 0.201400 0.094300
C308 C -0.119580 0.751100 0.207490
C309 C 0.750950 0.185130 0.133920
C310 C -0.167770 0.720300 0.140150
C311 C 0.702100 0.283860 0.096950
C312 C -0.166000 0.592800 0.104040
C313 C 0.431320 -0.154300 0.740430
C314 C -0.115230 0.493200 0.136660
C315 C 0.380420 -0.251100 0.707490
C316 C 0.964330 0.853100 0.662170
C317 C 1.005180 0.272000 0.190640
C318 C 1.050470 0.290200 0.176170
C319 C 0.332230 -0.220300 0.640150
C320 C 1.053910 0.184200 0.132490
C321 C 0.575350 1.006300 0.508390
C322 C 1.013160 0.063300 0.103630
C323 C 0.587160 1.147200 0.488840
C324 C 0.968270 0.043200 0.118550
C325 C 0.637010 1.236000 0.538350
C326 C 0.964330 0.146900 0.162170
C327 C 0.673590 1.184000 0.606160
C328 C 1.066680 0.523440 0.295080
C329 C 1.068680 0.654300 0.259570
C330 C 0.662410 1.043000 0.627220
C331 C 1.119580 0.751100 0.292510
C332 C 0.612120 0.952700 0.577360
C333 C 1.167770 0.720300 0.359850
C334 C 0.705100 0.988700 0.701810
C335 C 1.166000 0.592800 0.395960
C336 C 0.595640 0.798600 0.594300
C337 C 1.115230 0.493200 0.363340
C338 C 0.750950 0.814870 0.633920
C339 C 0.994820 0.272000 0.309360
C340 C 0.949530 0.290200 0.323830
C341 C 0.702100 0.716140 0.596950
C342 C 0.946090 0.184200 0.367510
C343 C 0.334000 -0.092800 0.604040
C344 C 0.986840 0.063300 0.396370
C345 C 0.384770 0.006800 0.636660
C346 C 1.031730 0.043200 0.381450
C347 C 0.924650 0.493700 0.491610
C348 C 1.035670 0.146900 0.337830
C349 C 0.912840 0.352800 0.511160
C350 C 0.933320 0.523440 0.204920
C351 C 0.931320 0.654300 0.240430
C352 C 0.862990 0.264000 0.461650
C353 C 0.880420 0.751100 0.207490
C354 C 0.826410 0.316000 0.393840
C355 C 0.832230 0.720300 0.140150
C356 C 0.837590 0.457000 0.372780
C357 C 0.834000 0.592800 0.104040
C358 C 0.887880 0.547300 0.422640
C359 C 0.884770 0.493200 0.136660
C360 C 0.794900 0.511300 0.298190
C361 C 0.666000 -0.092800 0.895960
C362 C 0.505180 0.772000 0.190640
C363 C 0.550470 0.790200 0.176170
C364 C 0.904360 0.701400 0.405700
C365 C 0.553910 0.684200 0.132490
C366 C 0.749050 0.685130 0.366080
C367 C 0.513160 0.563300 0.103630
C368 C 0.797900 0.783860 0.403050
C369 C 0.468270 0.543200 0.118550
C370 C 0.505180 0.228000 0.690640
C371 C 0.464330 0.646900 0.162170
C372 C 0.550470 0.209800 0.676170
C373 C 0.566680 1.023440 0.295080
C374 C 0.568680 1.154300 0.259570
C375 C 0.553910 0.315800 0.632490
C376 C 0.619580 1.251100 0.292510
C377 C 0.424650 1.006300 0.991610
C378 C 0.667770 1.220300 0.359850
C379 C 0.412840 1.147200 1.011160
C380 C 0.666000 1.092800 0.395960
C381 C 0.362990 1.236000 0.961650
C382 C 0.615230 0.993200 0.363340
C383 C 0.326410 1.184000 0.893840
C384 C 0.494820 0.772000 0.309360
C385 C 0.449530 0.790200 0.323830
C386 C 0.337590 1.043000 0.872780
C387 C 0.446090 0.684200 0.367510
C388 C 0.387880 0.952700 0.922640
C389 C 0.486840 0.563300 0.396370
C390 C 0.294900 0.988700 0.798190
C391 C 0.531730 0.543200 0.381450
C392 C 0.404360 0.798600 0.905700
C393 C 0.535670 0.646900 0.337830
C394 C 0.249050 0.814870 0.866080
C395 C 0.433320 1.023440 0.204920
C396 C 0.431320 1.154300 0.240430
C397 C 0.297900 0.716140 0.903050
C398 C 0.380420 1.251100 0.207490
C399 C 0.513160 0.436700 0.603630
C400 C 0.332230 1.220300 0.140150
C401 C 0.468270 0.456800 0.618550
C402 C 0.334000 1.092800 0.104040
C403 C 0.075350 0.493700 1.008390
C404 C 0.384770 0.993200 0.136660
C405 C 0.087160 0.352800 0.988840
C406 C 0.968270 0.956800 0.618550
C407 C -0.005180 0.728000 0.809360
C408 C -0.050470 0.709800 0.823830
C409 C 0.137010 0.264000 1.038350
C410 C -0.053910 0.815800 0.867510
C411 C 0.173590 0.316000 1.106160
C412 C -0.013160 0.936700 0.896370
C413 C 0.162410 0.457000 1.127220
C414 C 0.031730 0.956800 0.881450
C415 C 0.112120 0.547300 1.077360
C416 C 0.035670 0.853100 0.837830
C417 C 0.205100 0.511300 1.201810
C418 C -0.066680 0.476560 0.704920
C419 C -0.068680 0.345700 0.740430
C420 C 0.095640 0.701400 1.094300
C421 C -0.119580 0.248900 0.707490
C422 C 0.250950 0.685130 1.133920
C423 C -0.167770 0.279700 0.640150
C424 C 0.202100 0.783860 1.096950
C425 C -0.166000 0.407200 0.604040
C426 C 0.464330 0.353100 0.662170
C427 C -0.115230 0.506800 0.636660
C428 C 0.566680 -0.023440 0.795080
C429 C 0.005180 0.728000 0.690640
C430 C 0.050470 0.709800 0.676170
C431 C 0.568680 -0.154300 0.759570
C432 C 0.053910 0.815800 0.632490
C433 C 0.424650 1.006300 -0.008390
C434 C 0.013160 0.936700 0.603630
C435 C 0.412840 1.147200 0.011160
C436 C -0.031730 0.956800 0.618550
C437 C 0.362990 1.236000 -0.038350
C438 C -0.035670 0.853100 0.662170
C439 C 0.326410 1.184000 -0.106160
C440 C 0.066680 0.476560 0.795080
C441 C 0.068680 0.345700 0.759570
C442 C 0.337590 1.043000 -0.127220
C443 C 0.119580 0.248900 0.792510
C444 C 0.387880 0.952700 -0.077360
C445 C 0.167770 0.279700 0.859850
C446 C 0.294900 0.988700 -0.201810
C447 C 0.166000 0.407200 0.895960
C448 C 0.404360 0.798600 -0.094300
C449 C 0.115230 0.506800 0.863340
C450 C 0.249050 0.814870 -0.133920
C451 C 0.202100 0.783860 0.096950
C452 C 0.994820 0.728000 0.809360
C453 C 0.949530 0.709800 0.823830
C454 C 0.297900 0.716140 -0.096950
C455 C 0.946090 0.815800 0.867510
C456 C 0.619580 -0.251100 0.792510
C457 C 0.986840 0.936700 0.896370
C458 C 0.667770 -0.220300 0.859850
C459 C 1.031730 0.956800 0.881450
C460 C 0.075350 0.493700 0.008390
C461 C 1.035670 0.853100 0.837830
C462 C 0.087160 0.352800 -0.011160
C463 C 0.933320 0.476560 0.704920
C464 C 0.931320 0.345700 0.740430
C465 C 0.137010 0.264000 0.038350
C466 C 0.880420 0.248900 0.707490
C467 C 0.173590 0.316000 0.106160
C468 C 0.832230 0.279700 0.640150
C469 C 0.162410 0.457000 0.127220
C470 C 0.834000 0.407200 0.604040
C471 C 0.112120 0.547300 0.077360
C472 C 0.884770 0.506800 0.636660
C473 C 0.205100 0.511300 0.201810
C474 C 1.005180 0.728000 0.690640
C475 C 1.050470 0.709800 0.676170
C476 C 0.095640 0.701400 0.094300
C477 C 1.053910 0.815800 0.632490
C478 C 0.250950 0.685130 0.133920
C479 C 1.013160 0.936700 0.603630
C480 C 1.068680 0.345700 0.759570
P481 P 0.500000 0.899240 0.250000
P482 P 1.000000 0.399240 0.250000
P483 P 0.000000 0.399240 0.250000
P484 P 0.500000 0.100760 0.750000
P485 P 0.000000 0.600760 0.750000
P486 P 1.000000 0.600760 0.750000
S487 S 0.276160 0.400630 0.715990
S488 S 0.156850 0.149470 0.628050
S489 S 0.292920 0.370380 0.598930
S490 S 0.181540 0.152930 0.514510
S491 S 0.223840 0.099370 0.284010
S492 S 0.343150 0.350530 0.371950
S493 S 0.207080 0.129620 0.401070
S494 S 0.318460 0.347070 0.485490
S495 S 0.181540 0.847070 0.014510
S496 S 0.723840 0.400630 0.784010
S497 S 0.843150 0.149470 0.871950
S498 S 0.707080 0.370380 0.901070
S499 S 0.818460 0.152930 0.985490
S500 S 0.776160 0.099370 1.215990
S501 S 0.656850 0.350530 1.128050
S502 S 0.792920 0.129620 1.098930
S503 S 0.681540 0.347070 1.014510
S504 S 0.292920 0.629620 0.098930
S505 S 0.723840 0.400630 -0.215990
S506 S 0.843150 0.149470 -0.128050
S507 S 0.707080 0.370380 -0.098930
S508 S 0.818460 0.152930 -0.014510
S509 S 0.776160 0.099370 0.215990
S510 S 0.656850 0.350530 0.128050
S511 S 0.792920 0.129620 0.098930
S512 S 0.681540 0.347070 0.014510
S513 S 0.156850 0.850530 0.128050
S514 S 0.776160 0.900630 0.715990
S515 S 0.656850 0.649470 0.628050
S516 S 0.792920 0.870380 0.598930
S517 S 0.681540 0.652930 0.514510
S518 S 0.723840 0.599370 0.284010
S519 S 0.843150 0.850530 0.371950
S520 S 0.707080 0.629620 0.401070
S521 S 0.818460 0.847070 0.485490
S522 S 0.276160 0.599370 0.215990
S523 S 0.223840 0.900630 0.784010
S524 S 0.343150 0.649470 0.871950
S525 S 0.207080 0.870380 0.901070
S526 S 0.318460 0.652930 0.985490
S527 S 0.276160 0.599370 1.215990
S528 S 0.156850 0.850530 1.128050
S529 S 0.292920 0.629620 1.098930
S530 S 0.181540 0.847070 1.014510
S531 S 0.318460 0.652930 -0.014510
S532 S 0.223840 0.900630 -0.215990
S533 S 0.343150 0.649470 -0.128050
S534 S 0.207080 0.870380 -0.098930
Ni535 Ni 0.750000 0.750000 0.500000
Ni536 Ni 0.750000 0.250000 0.000000
Ni537 Ni 0.750000 0.250000 1.000000
Ni538 Ni 0.250000 0.250000 0.500000
Ni539 Ni 0.250000 0.750000 0.000000
Ni540 Ni 0.250000 0.750000 1.000000

#END
