./ACIJIF_from_POSCAR.cif_generated_by_CrystalShift
_symmetry_cell_setting triclinic
_symmetry_space_group_name_H-M 'P 1'
loop_
_symmetry_equiv_pos_site_id
_symmetry_equiv_pos_as_xyz
1 x,y,z
_cell_length_a 10.644300
_cell_length_b 15.059300
_cell_length_c 12.869900
_cell_angle_alpha 90.000000
_cell_angle_beta 91.498000
_cell_angle_gamma 90.000000
_cell_volume 2062.284668
loop_
_atom_site_label
_atom_site_type_symbol
_atom_site_fract_x
_atom_site_fract_y
_atom_site_fract_z
H1 H 0.360000 -0.045900 0.338800
H2 H 0.507400 -0.153000 0.291400
H3 H 0.537700 -0.184300 0.116100
H4 H 0.420100 -0.110100 -0.012500
H5 H 0.522600 0.689400 0.223900
H6 H 0.272500 -0.003100 0.033500
H7 H 0.722900 0.746900 0.205500
H8 H 0.040400 0.175500 0.077600
H9 H 0.900700 0.661200 0.248200
H10 H 0.085100 0.300000 -0.024000
H11 H 0.879500 0.517900 0.311700
H12 H 0.286500 0.361000 -0.019100
H13 H 0.445100 0.296800 0.082900
H14 H 0.712500 0.387700 0.370300
H15 H 0.402800 0.171300 0.183500
H16 H 0.115500 -0.012600 0.408700
H17 H 0.137100 0.020000 0.585800
H18 H 0.210300 0.719300 0.160600
H19 H 0.231700 0.152800 0.639600
H20 H 0.194300 0.752700 -0.017100
H21 H 0.305700 0.252700 0.517100
H22 H 0.268300 0.652800 -0.139600
H23 H 0.289700 0.219300 0.339400
H24 H 0.362900 0.520000 -0.085800
H25 H -0.212500 -0.112300 0.129700
H26 H 0.384500 0.487400 0.091300
H27 H -0.379500 0.017900 0.188300
H28 H -0.400700 0.161200 0.251800
H29 H 0.097200 0.671300 0.316500
H30 H -0.222900 0.246900 0.294500
H31 H 0.054900 0.796800 0.417100
H32 H -0.022600 0.189400 0.276100
H33 H 0.213500 0.861000 0.519100
H34 H 0.860000 0.545900 0.838800
H35 H 0.414900 0.800000 0.524000
H36 H 1.007400 0.653000 0.791400
H37 H 0.459600 0.675500 0.422400
H38 H 1.037700 0.684300 0.616100
H39 H 0.920100 0.610100 0.487500
H40 H 0.227500 0.496900 0.466500
H41 H 0.772500 0.503100 0.533500
H42 H 0.079900 0.389900 0.512500
H43 H 0.540400 0.324500 0.577600
H44 H -0.037700 0.315700 0.383900
H45 H 0.585100 0.200000 0.476000
H46 H -0.007400 0.347000 0.208600
H47 H 0.786500 0.139000 0.480900
H48 H 0.140000 0.454100 0.161200
H49 H 0.945100 0.203200 0.582900
H50 H 0.902800 0.328700 0.683500
H51 H 0.615500 0.512600 0.908700
H52 H 0.637100 0.480000 1.085800
H53 H 1.022600 0.810600 0.723900
H54 H 0.731700 0.347200 1.139600
H55 H 1.222900 0.753100 0.705500
H56 H 0.805700 0.247300 1.017100
H57 H 1.400700 0.838800 0.748200
H58 H 0.789700 0.280700 0.839400
H59 H 1.379500 0.982100 0.811700
H60 H 0.287500 0.612300 0.629700
H61 H 0.120500 0.482100 0.688300
H62 H 1.212500 1.112300 0.870300
H63 H 0.099300 0.338800 0.751800
H64 H 0.277100 0.253100 0.794500
H65 H 0.477400 0.310600 0.776100
H66 H 0.710300 0.780700 0.660600
H67 H 0.640000 1.045900 0.661200
H68 H 0.694300 0.747300 0.482900
H69 H 0.492600 1.153000 0.708600
H70 H 0.768300 0.847200 0.360400
H71 H 0.462300 1.184300 0.883900
H72 H 0.862900 0.980000 0.414200
H73 H 0.579900 1.110100 1.012500
H74 H 0.884500 1.012600 0.591300
H75 H 0.727500 1.003100 0.966500
H76 H 0.959600 0.824500 0.922400
H77 H 0.597200 0.828700 0.816500
H78 H 0.914900 0.700000 1.024000
H79 H 0.554900 0.703200 0.917100
H80 H 0.713500 0.639000 1.019100
C81 C 0.730970 0.690100 0.978550
C82 C 0.850890 0.725960 0.981040
C83 C 0.637050 0.727880 0.917860
C84 C 0.877450 0.799860 0.920700
C85 C 0.662340 0.802100 0.857680
C86 C 0.698030 1.014260 0.809090
C87 C 0.679880 1.033460 0.914080
C88 C 0.783510 0.837590 0.857900
C89 C 0.592190 1.096890 0.941300
C90 C 0.844280 0.959140 0.569450
C91 C 0.522500 1.141060 0.864920
C92 C 0.832470 0.939480 0.464260
C93 C 0.540310 1.122380 0.760740
C94 C 0.776280 0.860720 0.432400
C95 C 0.627970 1.058830 0.732480
C96 C 0.731750 0.801600 0.505180
C97 C 0.463550 0.521540 0.302360
C98 C 0.536450 0.478460 0.697640
C99 C 0.422360 0.432100 0.717480
C100 C 0.406040 0.345570 0.757270
C101 C 0.741510 0.821200 0.610950
C102 C 0.287210 0.311740 0.768800
C103 C 0.797350 0.900730 0.643500
C104 C 0.180780 0.362990 0.742950
C105 C 0.459690 -0.122380 0.239260
C106 C 0.193240 0.447870 0.704890
C107 C 1.152420 1.068950 0.848820
C108 C 0.314070 0.484260 0.690470
C109 C 0.347580 0.568950 0.651180
C110 C 1.185930 0.984260 0.809530
C111 C 0.577640 0.567900 0.282520
C112 C 0.702650 0.400730 0.856500
C113 C 0.758490 0.321200 0.889050
C114 C 1.306760 0.947870 0.795110
C115 C 0.768250 0.301600 0.994820
C116 C 1.319220 0.862990 0.757050
C117 C 0.723720 0.360720 1.067600
C118 C 1.212790 0.811740 0.731200
C119 C 0.667530 0.439480 1.035740
C120 C 1.093960 0.845570 0.742730
C121 C 0.655720 0.459140 0.930550
C122 C 1.077640 0.932100 0.782520
C123 C 0.716490 0.337590 0.642100
C124 C 0.837660 0.302100 0.642320
C125 C 0.963550 0.978460 0.802360
C126 C 0.862950 0.227880 0.582140
C127 C 0.477500 -0.141060 0.135080
C128 C 0.769030 0.190100 0.521450
C129 C 0.127970 0.441170 0.232480
C130 C 0.649110 0.225960 0.518960
C131 C 0.040310 0.377620 0.260740
C132 C 0.622550 0.299860 0.579300
C133 C 0.022500 0.358940 0.364920
C134 C 0.801970 0.514260 0.690910
C135 C 0.820120 0.533460 0.585920
C136 C 0.092190 0.403110 0.441300
C137 C 0.907810 0.596890 0.558700
C138 C 0.179880 0.466540 0.414080
C139 C 0.977500 0.641060 0.635080
C140 C 0.198030 0.485740 0.309090
C141 C 0.959690 0.622380 0.739260
C142 C 0.377450 0.700140 0.420700
C143 C 0.872030 0.558830 0.767520
C144 C 0.350890 0.774040 0.481040
C145 C 0.593960 0.654430 0.242730
C146 C 0.036450 0.021540 0.197640
C147 C -0.077640 0.067900 0.217480
C148 C -0.093960 0.154430 0.257270
C149 C 0.230970 0.809900 0.478550
C150 C -0.212790 0.188260 0.268800
C151 C 0.137050 0.772120 0.417860
C152 C -0.319220 0.137010 0.242950
C153 C 0.162340 0.697900 0.357680
C154 C -0.306760 0.052130 0.204890
C155 C 0.283510 0.662410 0.357900
C156 C -0.185930 0.015740 0.190470
C157 C -0.152420 -0.068950 0.151180
C158 C 0.344280 0.540860 0.069450
C159 C 0.407810 -0.096890 0.058700
C160 C 0.202650 0.099270 0.356500
C161 C 0.258490 0.178800 0.389050
C162 C 0.332470 0.560520 -0.035740
C163 C 0.268250 0.198400 0.494820
C164 C 0.276280 0.639280 -0.067600
C165 C 0.223720 0.139280 0.567600
C166 C 0.231750 0.698400 0.005180
C167 C 0.167530 0.060520 0.535740
C168 C 0.241510 0.678800 0.110950
C169 C 0.155720 0.040860 0.430550
C170 C 0.297350 0.599270 0.143500
C171 C 0.216490 0.162410 0.142100
C172 C 0.337660 0.197900 0.142320
C173 C 0.712790 0.688260 0.231200
C174 C 0.362950 0.272120 0.082140
C175 C 0.652420 0.431050 0.348820
C176 C 0.269030 0.309900 0.021450
C177 C 0.685930 0.515740 0.309530
C178 C 0.149110 0.274040 0.018960
C179 C 0.806760 0.552130 0.295110
C180 C 0.122550 0.200140 0.079300
C181 C 0.819220 0.637010 0.257050
C182 C 0.301970 -0.014260 0.190910
C183 C 0.320120 -0.033460 0.085920
C184 C 0.372030 -0.058830 0.267520
P185 P 0.006940 -0.085430 0.146280
P186 P 0.993060 1.085430 0.853720
P187 P 0.683570 0.433546 0.721240
P188 P 0.816430 0.933546 0.778760
P189 P 0.506940 0.585430 0.646280
P190 P 0.183570 0.066454 0.221240
P191 P 0.316430 0.566454 0.278760
P192 P 0.493060 0.414570 0.353720

#END
