./ACIKIG_from_POSCAR.cif_generated_by_CrystalShift
_symmetry_cell_setting triclinic
_symmetry_space_group_name_H-M 'P 1'
loop_
_symmetry_equiv_pos_site_id
_symmetry_equiv_pos_as_xyz
1 x,y,z
_cell_length_a 11.047000
_cell_length_b 11.395000
_cell_length_c 17.025000
_cell_angle_alpha 90.000000
_cell_angle_beta 90.700000
_cell_angle_gamma 90.000000
_cell_volume 2142.956678
loop_
_atom_site_label
_atom_site_type_symbol
_atom_site_fract_x
_atom_site_fract_y
_atom_site_fract_z
H1 H 0.303200 1.783000 0.962600
H2 H 0.457500 -0.056300 0.011400
H3 H 1.244600 1.347000 0.696700
H4 H 0.661100 0.038700 0.050300
H5 H 0.575500 -0.031100 0.106300
H6 H 0.552600 0.102700 0.090500
H7 H 0.542500 0.056300 -0.011400
H8 H 1.152300 1.414600 0.749300
H9 H 0.338900 -0.038700 -0.050300
H10 H 0.424500 0.031100 -0.106300
H11 H 0.447400 -0.102700 -0.090500
H12 H 1.405300 1.352900 0.984800
H13 H 0.457500 -0.056300 1.011400
H14 H 1.510400 1.396700 0.931200
H15 H 0.661100 0.038700 1.050300
H16 H 0.575500 -0.031100 1.106300
H17 H 0.552600 0.102700 1.090500
H18 H 0.542500 0.056300 0.988600
H19 H 1.486400 1.261900 0.940700
H20 H 0.338900 -0.038700 0.949700
H21 H 0.424500 0.031100 0.893700
H22 H 0.447400 -0.102700 0.909500
H23 H 0.255400 0.847000 0.803300
H24 H 0.457500 0.943700 0.011400
H25 H 0.803200 -0.283000 0.462600
H26 H 0.661100 1.038700 0.050300
H27 H 0.575500 0.968900 0.106300
H28 H 0.552600 1.102700 0.090500
H29 H 0.542500 1.056300 -0.011400
H30 H 1.682600 1.427600 0.725700
H31 H 0.338900 0.961300 -0.050300
H32 H 0.424500 1.031100 -0.106300
H33 H 0.447400 0.897300 -0.090500
H34 H 0.347700 0.914600 0.750700
H35 H 0.457500 0.943700 1.011400
H36 H 1.876600 1.434100 0.674900
H37 H 0.661100 1.038700 1.050300
H38 H 0.575500 0.968900 1.106300
H39 H 0.552600 1.102700 1.090500
H40 H 0.542500 1.056300 0.988600
H41 H 1.971700 1.263700 0.636200
H42 H 0.338900 0.961300 0.949700
H43 H 0.424500 1.031100 0.893700
H44 H 0.447400 0.897300 0.909500
H45 H 1.873500 1.085900 0.646700
H46 H 0.042500 0.443700 0.488600
H47 H 1.677800 1.077400 0.694800
H48 H -0.161100 0.538700 0.449700
H49 H -0.075500 0.468900 0.393700
H50 H -0.052600 0.602700 0.409500
H51 H -0.042500 0.556300 0.511400
H52 H 1.106700 1.504400 1.031800
H53 H 0.161100 0.461300 0.550300
H54 H 0.075500 0.531100 0.606300
H55 H 0.052600 0.397300 0.590500
H56 H 0.094700 0.852900 0.515200
H57 H 1.042500 0.443700 0.488600
H58 H 1.116400 1.795900 1.163600
H59 H 0.838900 0.538700 0.449700
H60 H 0.924500 0.468900 0.393700
H61 H 0.947400 0.602700 0.409500
H62 H 0.957500 0.556300 0.511400
H63 H 1.044100 1.609400 1.141400
H64 H 1.161100 0.461300 0.550300
H65 H 1.075500 0.531100 0.606300
H66 H 1.052600 0.397300 0.590500
H67 H -0.151900 -0.277000 0.252500
H68 H -0.010400 0.896700 0.568800
H69 H 1.242500 1.882900 1.074700
H70 H 1.303200 1.783000 0.962600
H71 H 1.151900 1.277000 0.747500
H72 H 1.188200 1.284100 1.008000
H73 H -0.303200 -0.783000 0.037400
H74 H 1.061000 1.156700 1.070700
H75 H -0.242500 -0.882900 -0.074700
H76 H 1.053200 0.961300 0.874900
H77 H -0.044100 -0.609400 -0.141400
H78 H 1.176600 1.096200 0.817400
H79 H -0.116400 -0.795900 -0.163600
H80 H 0.742500 -0.382900 0.574700
H81 H -0.106700 -0.504400 -0.031800
H82 H 0.544100 -0.109400 0.641400
H83 H 0.755400 0.653000 1.303300
H84 H -0.677800 -0.077400 0.305200
H85 H 0.847700 0.585400 1.250700
H86 H -0.873500 -0.085900 0.353300
H87 H 0.594700 0.647100 1.015200
H88 H -0.971700 -0.263700 0.363800
H89 H 0.489600 0.603300 1.068800
H90 H -0.876600 -0.434100 0.325100
H91 H 0.513600 0.738100 1.059300
H92 H -0.682600 -0.427600 0.274300
H93 H 0.811800 0.715900 0.992000
H94 H 0.939000 0.843300 0.929300
H95 H -0.176600 -0.096200 0.182600
H96 H 0.946800 1.038700 1.125100
H97 H -0.053200 0.038700 0.125100
H98 H 0.823400 0.903800 1.182600
H99 H -0.061000 -0.156700 -0.070700
H100 H 0.317400 0.572400 1.274300
H101 H -0.188200 -0.284100 -0.008000
H102 H 0.013600 0.761900 0.559300
H103 H 0.123400 0.565900 1.325100
H104 H -0.486400 -0.261900 0.059300
H105 H -0.510400 -0.396700 0.068800
H106 H -0.405300 -0.352900 0.015200
H107 H 0.028300 0.736300 1.363800
H108 H -0.152300 -0.414600 0.250700
H109 H -0.244600 -0.347000 0.303300
H110 H 0.126500 0.914100 1.353300
H111 H -0.182600 0.927600 0.774300
H112 H 0.322200 0.922600 1.305200
H113 H 0.893300 0.495600 0.968200
H114 H 0.883600 0.204100 0.836400
H115 H 0.955900 0.390600 0.858600
H116 H 0.757500 0.117100 0.925300
H117 H 0.696800 0.217000 1.037400
H118 H 0.176600 0.096200 -0.182600
H119 H 0.616400 -0.295900 0.663600
H120 H 0.053200 -0.038700 -0.125100
H121 H 0.848100 0.723000 1.252500
H122 H 0.061000 0.156700 0.070700
H123 H 0.606700 -0.004400 0.531800
H124 H 0.188200 0.284100 0.008000
H125 H 1.244600 1.347000 -0.303300
H126 H 0.151900 0.277000 -0.252500
H127 H -0.376600 0.934100 0.825100
H128 H 1.152300 1.414600 -0.250700
H129 H 1.405300 1.352900 -0.015200
H130 H 1.510400 1.396700 -0.068800
H131 H 1.486400 1.261900 -0.059300
H132 H 0.303200 0.783000 -0.037400
H133 H 1.682600 1.427600 -0.274300
H134 H 0.242500 0.882900 0.074700
H135 H 1.876600 1.434100 -0.325100
H136 H 0.044100 0.609400 0.141400
H137 H 1.971700 1.263700 -0.363800
H138 H 0.116400 0.795900 0.163600
H139 H 1.873500 1.085900 -0.353300
H140 H 0.106700 0.504400 0.031800
H141 H 1.677800 1.077400 -0.305200
H142 H 1.106700 1.504400 0.031800
H143 H 0.677800 0.077400 -0.305200
H144 H 1.116400 1.795900 0.163600
H145 H 0.873500 0.085900 -0.353300
H146 H 1.044100 1.609400 0.141400
H147 H 0.971700 0.263700 -0.363800
H148 H 1.242500 1.882900 0.074700
H149 H 0.876600 0.434100 -0.325100
H150 H 1.303200 1.783000 -0.037400
H151 H 0.682600 0.427600 -0.274300
H152 H 1.177800 0.422600 0.194800
H153 H 1.151900 1.277000 -0.252500
H154 H 0.486400 0.261900 -0.059300
H155 H 0.510400 0.396700 -0.068800
H156 H 0.405300 0.352900 -0.015200
H157 H 1.188200 1.284100 0.008000
H158 H 0.152300 0.414600 -0.250700
H159 H 0.244600 0.347000 -0.303300
H160 H -0.471700 0.763700 0.863800
H161 H 1.061000 1.156700 0.070700
H162 H -0.373500 0.585900 0.853300
H163 H 1.053200 0.961300 -0.125100
H164 H 1.176600 1.096200 -0.182600
H165 H -0.151900 -0.277000 1.252500
H166 H 1.373500 0.414100 0.146700
H167 H 0.755400 0.653000 0.303300
H168 H 0.847700 0.585400 0.250700
H169 H 0.594700 0.647100 0.015200
H170 H 0.489600 0.603300 0.068800
H171 H -0.303200 -0.783000 1.037400
H172 H 0.513600 0.738100 0.059300
H173 H -0.242500 -0.882900 0.925300
H174 H 1.471700 0.236300 0.136200
H175 H -0.044100 -0.609400 0.858600
H176 H 0.811800 0.715900 -0.008000
H177 H -0.116400 -0.795900 0.836400
H178 H 0.939000 0.843300 -0.070700
H179 H -0.106700 -0.504400 0.968200
H180 H 0.946800 1.038700 0.125100
H181 H 0.823400 0.903800 0.182600
H182 H -0.677800 -0.077400 1.305200
H183 H 0.317400 0.572400 0.274300
H184 H -0.873500 -0.085900 1.353300
H185 H 0.123400 0.565900 0.325100
H186 H -0.971700 -0.263700 1.363800
H187 H 0.028300 0.736300 0.363800
H188 H -0.876600 -0.434100 1.325100
H189 H 0.126500 0.914100 0.353300
H190 H -0.682600 -0.427600 1.274300
H191 H 0.322200 0.922600 0.305200
H192 H 0.893300 0.495600 -0.031800
H193 H -0.176600 -0.096200 1.182600
H194 H 0.883600 0.204100 -0.163600
H195 H -0.053200 0.038700 1.125100
H196 H 0.955900 0.390600 -0.141400
H197 H -0.061000 -0.156700 0.929300
H198 H 0.757500 0.117100 -0.074700
H199 H -0.188200 -0.284100 0.992000
H200 H -0.177800 0.577400 0.805200
H201 H 0.696800 0.217000 0.037400
H202 H -0.486400 -0.261900 1.059300
H203 H -0.510400 -0.396700 1.068800
H204 H -0.405300 -0.352900 1.015200
H205 H 0.848100 0.723000 0.252500
H206 H -0.152300 -0.414600 1.250700
H207 H -0.244600 -0.347000 1.303300
H208 H 1.376600 0.065900 0.174900
H209 H 1.182600 0.072400 0.225700
H210 H 0.393300 1.004400 0.468200
H211 H 1.244600 0.347000 0.696700
H212 H 1.152300 0.414600 0.749300
H213 H 1.405300 0.352900 0.984800
H214 H 1.510400 0.396700 0.931200
H215 H 1.486400 0.261900 0.940700
H216 H 0.176600 0.096200 0.817400
H217 H 1.682600 0.427600 0.725700
H218 H 0.053200 -0.038700 0.874900
H219 H 1.876600 0.434100 0.674900
H220 H 0.061000 0.156700 1.070700
H221 H 1.971700 0.263700 0.636200
H222 H 0.188200 0.284100 1.008000
H223 H 1.873500 0.085900 0.646700
H224 H 0.151900 0.277000 0.747500
H225 H 1.677800 0.077400 0.694800
H226 H 1.106700 0.504400 1.031800
H227 H 1.116400 0.795900 1.163600
H228 H 1.044100 0.609400 1.141400
H229 H 1.242500 0.882900 1.074700
H230 H 0.303200 0.783000 0.962600
H231 H 1.303200 0.783000 0.962600
H232 H 0.242500 0.882900 1.074700
H233 H 1.151900 0.277000 0.747500
H234 H 0.044100 0.609400 1.141400
H235 H 1.188200 0.284100 1.008000
H236 H 0.116400 0.795900 1.163600
H237 H 1.061000 0.156700 1.070700
H238 H 0.106700 0.504400 1.031800
H239 H 1.053200 -0.038700 0.874900
H240 H 1.176600 0.096200 0.817400
H241 H 0.677800 0.077400 0.694800
H242 H 0.676600 0.403800 0.317400
H243 H 0.873500 0.085900 0.646700
H244 H 0.553200 0.538700 0.374900
H245 H 0.971700 0.263700 0.636200
H246 H 0.755400 -0.347000 1.303300
H247 H 0.876600 0.434100 0.674900
H248 H 0.847700 -0.414600 1.250700
H249 H 0.682600 0.427600 0.725700
H250 H 0.383600 1.295900 0.336400
H251 H 0.594700 -0.352900 1.015200
H252 H 0.486400 0.261900 0.940700
H253 H 0.510400 0.396700 0.931200
H254 H 0.405300 0.352900 0.984800
H255 H 0.489600 -0.396700 1.068800
H256 H 0.152300 0.414600 0.749300
H257 H 0.244600 0.347000 0.696700
H258 H 0.513600 -0.261900 1.059300
H259 H 0.455900 1.109400 0.358600
H260 H 0.811800 -0.284100 0.992000
H261 H 0.939000 -0.156700 0.929300
H262 H 0.946800 0.038700 1.125100
H263 H -0.151900 0.723000 0.252500
H264 H 0.257500 1.382900 0.425300
H265 H 0.823400 -0.096200 1.182600
H266 H 0.317400 -0.427600 1.274300
H267 H 0.123400 -0.434100 1.325100
H268 H 0.028300 -0.263700 1.363800
H269 H -0.303200 0.217000 0.037400
H270 H 0.126500 -0.085900 1.353300
H271 H -0.242500 0.117100 -0.074700
H272 H 0.322200 -0.077400 1.305200
H273 H -0.044100 0.390600 -0.141400
H274 H 0.893300 -0.504400 0.968200
H275 H -0.116400 0.204100 -0.163600
H276 H 0.883600 -0.795900 0.836400
H277 H -0.106700 0.495600 -0.031800
H278 H 0.955900 -0.609400 0.858600
H279 H 0.757500 -0.882900 0.925300
H280 H -0.677800 0.922600 0.305200
H281 H 0.696800 -0.783000 1.037400
H282 H -0.873500 0.914100 0.353300
H283 H 0.561000 0.343300 0.570700
H284 H -0.971700 0.736300 0.363800
H285 H 0.848100 -0.277000 1.252500
H286 H -0.876600 0.565900 0.325100
H287 H 0.688200 0.215900 0.508000
H288 H -0.682600 0.572400 0.274300
H289 H 1.244600 0.347000 -0.303300
H290 H 1.152300 0.414600 -0.250700
H291 H -0.176600 0.903800 0.182600
H292 H 1.405300 0.352900 -0.015200
H293 H -0.053200 1.038700 0.125100
H294 H 1.510400 0.396700 -0.068800
H295 H -0.061000 0.843300 -0.070700
H296 H 1.486400 0.261900 -0.059300
H297 H -0.188200 0.715900 -0.008000
H298 H 0.986400 0.238100 0.440700
H299 H 1.682600 0.427600 -0.274300
H300 H -0.486400 0.738100 0.059300
H301 H -0.510400 0.603300 0.068800
H302 H -0.405300 0.647100 0.015200
H303 H 1.876600 0.434100 -0.325100
H304 H -0.152300 0.585400 0.250700
H305 H -0.244600 0.653000 0.303300
H306 H 0.196800 1.283000 0.537400
H307 H 1.971700 0.263700 -0.363800
H308 H 1.873500 0.085900 -0.353300
H309 H 1.677800 0.077400 -0.305200
H310 H 1.106700 0.504400 0.031800
H311 H 1.116400 0.795900 0.163600
H312 H 1.044100 0.609400 0.141400
H313 H 1.242500 0.882900 0.074700
H314 H 0.176600 1.096200 -0.182600
H315 H 1.303200 0.783000 -0.037400
H316 H 0.053200 0.961300 -0.125100
H317 H 1.010400 0.103300 0.431200
H318 H 0.061000 1.156700 0.070700
H319 H 1.151900 0.277000 -0.252500
H320 H 0.188200 1.284100 0.008000
H321 H 1.188200 0.284100 0.008000
H322 H 0.151900 1.277000 -0.252500
H323 H 1.061000 0.156700 0.070700
H324 H 1.053200 -0.038700 -0.125100
H325 H 1.176600 0.096200 -0.182600
H326 H 0.905300 0.147100 0.484800
H327 H 0.652300 0.085400 0.249300
H328 H 0.303200 1.783000 -0.037400
H329 H 0.755400 -0.347000 0.303300
H330 H 0.242500 1.882900 0.074700
H331 H 0.847700 -0.414600 0.250700
H332 H 0.044100 1.609400 0.141400
H333 H 0.594700 -0.352900 0.015200
H334 H 0.116400 1.795900 0.163600
H335 H 0.489600 -0.396700 0.068800
H336 H 0.106700 1.504400 0.031800
H337 H 0.513600 -0.261900 0.059300
H338 H 0.744600 0.153000 0.196700
H339 H 0.677800 1.077400 -0.305200
H340 H 0.811800 -0.284100 -0.008000
H341 H 0.873500 1.085900 -0.353300
H342 H 0.939000 -0.156700 -0.070700
H343 H 0.971700 1.263700 -0.363800
H344 H 0.946800 0.038700 0.125100
H345 H 0.876600 1.434100 -0.325100
H346 H 0.823400 -0.096200 0.182600
H347 H 0.682600 1.427600 -0.274300
H348 H 0.317400 -0.427600 0.274300
H349 H 0.123400 -0.434100 0.325100
H350 H 0.486400 1.261900 -0.059300
H351 H 0.510400 1.396700 -0.068800
H352 H 0.405300 1.352900 -0.015200
H353 H 0.028300 -0.263700 0.363800
H354 H 0.152300 1.414600 -0.250700
H355 H 0.244600 1.347000 -0.303300
H356 H 0.348100 0.777000 0.752500
H357 H 0.126500 -0.085900 0.353300
H358 H 0.311800 0.784100 0.492000
H359 H 0.322200 -0.077400 0.305200
H360 H 0.893300 -0.504400 -0.031800
H361 H -0.151900 0.723000 1.252500
H362 H 0.883600 -0.795900 -0.163600
H363 H 0.955900 -0.609400 -0.141400
H364 H 0.757500 -0.882900 -0.074700
H365 H 0.696800 -0.783000 0.037400
H366 H 0.848100 -0.277000 0.252500
H367 H -0.303200 0.217000 1.037400
H368 H 0.244600 1.347000 0.696700
H369 H -0.242500 0.117100 0.925300
H370 H 0.152300 1.414600 0.749300
H371 H -0.044100 0.390600 0.858600
H372 H 0.405300 1.352900 0.984800
H373 H -0.116400 0.204100 0.836400
H374 H 0.510400 1.396700 0.931200
H375 H -0.106700 0.495600 0.968200
H376 H 0.486400 1.261900 0.940700
H377 H 0.682600 1.427600 0.725700
H378 H -0.677800 0.922600 1.305200
H379 H 0.876600 1.434100 0.674900
H380 H -0.873500 0.914100 1.353300
H381 H 0.971700 1.263700 0.636200
H382 H -0.971700 0.736300 1.363800
H383 H 0.873500 1.085900 0.646700
H384 H -0.876600 0.565900 1.325100
H385 H 0.677800 1.077400 0.694800
H386 H -0.682600 0.572400 1.274300
H387 H 0.106700 1.504400 1.031800
H388 H 0.116400 1.795900 1.163600
H389 H -0.176600 0.903800 1.182600
H390 H 0.044100 1.609400 1.141400
H391 H -0.053200 1.038700 1.125100
H392 H 0.242500 1.882900 1.074700
H393 H -0.061000 0.843300 0.929300
H394 H 0.651900 0.223000 0.247500
H395 H -0.188200 0.715900 0.992000
H396 H 0.439000 0.656700 0.429300
H397 H 0.323400 0.596200 0.682600
H398 H -0.486400 0.738100 1.059300
H399 H -0.510400 0.603300 1.068800
H400 H -0.405300 0.647100 1.015200
H401 H 0.151900 1.277000 0.747500
H402 H -0.152300 0.585400 1.250700
H403 H -0.244600 0.653000 1.303300
H404 H 0.188200 1.284100 1.008000
H405 H 0.446800 0.461300 0.625100
H406 H 0.061000 1.156700 1.070700
H407 H 0.053200 0.961300 0.874900
H408 H 0.176600 1.096200 0.817400
C409 C 0.281650 -0.148760 0.308330
C410 C 0.041800 1.041660 0.980610
C411 C 0.153950 1.107910 0.869290
C412 C 0.752770 -0.247340 0.498910
C413 C 0.078990 1.026480 0.903440
C414 C 0.579200 0.030200 0.067700
C415 C 0.083990 1.141590 1.019300
C416 C 0.421010 0.526480 0.596560
C417 C 0.160270 1.218380 0.980920
C418 C 0.416010 0.641590 0.480700
C419 C 0.420800 -0.030200 -0.067700
C420 C -0.202000 0.654270 1.254530
C421 C -0.449100 0.662110 1.062500
C422 C 1.202000 1.345730 0.745470
C423 C 0.579200 0.030200 1.067700
C424 C 0.212360 1.633250 0.988150
C425 C 0.252770 1.747340 0.998910
C426 C -0.160270 0.781620 1.019080
C427 C 0.215500 1.806740 1.065740
C428 C -0.083990 0.858410 0.980700
C429 C 0.097300 1.643300 1.106110
C430 C -0.078990 0.973520 1.096560
C431 C 0.139400 1.755000 1.118890
C432 C -0.153950 0.892090 1.130710
C433 C 0.134160 1.580490 1.040390
C434 C -0.041800 0.958340 1.019390
C435 C 0.663630 1.251740 0.716210
C436 C 0.718350 1.148760 0.691670
C437 C -0.720980 0.640900 1.290100
C438 C 0.834840 1.154360 0.662310
C439 C -0.836820 0.637420 1.320460
C440 C 0.893770 1.260600 0.656100
C441 C -0.893770 0.739400 1.343900
C442 C 0.836820 1.362580 0.679540
C443 C -0.834840 0.845640 1.337690
C444 C 0.720980 1.359100 0.709900
C445 C -0.718350 0.851240 1.308330
C446 C 0.346050 0.607910 0.630710
C447 C 0.449100 1.337890 0.937500
C448 C -0.663630 0.748260 1.283790
C449 C -0.134160 0.419510 0.959610
C450 C -0.139400 0.245000 0.881110
C451 C 0.202000 1.345730 0.745470
C452 C -0.097300 0.356700 0.893890
C453 C -0.215500 0.193260 0.934260
C454 C 0.458200 0.541660 0.519390
C455 C 0.420800 -0.030200 0.932300
C456 C 1.449100 1.337890 0.937500
C457 C 0.579200 1.030200 0.067700
C458 C 0.420800 0.969800 -0.067700
C459 C -0.252770 0.252660 1.001090
C460 C 1.720980 1.359100 0.709900
C461 C 0.579200 1.030200 1.067700
C462 C 1.836820 1.362580 0.679540
C463 C 0.787640 -0.633250 0.011850
C464 C 0.747230 -0.747340 0.001090
C465 C -0.212360 0.366750 1.011850
C466 C 0.784500 -0.806740 -0.065740
C467 C 0.420800 0.969800 0.932300
C468 C 0.902700 -0.643300 -0.106110
C469 C 1.893770 1.260600 0.656100
C470 C 0.860600 -0.755000 -0.118890
C471 C 0.339730 0.718380 0.519080
C472 C 0.865840 -0.580490 -0.040390
C473 C 0.298000 0.845730 0.754530
C474 C 0.336370 -0.251740 0.283790
C475 C 1.834840 1.154360 0.662310
C476 C -0.079200 0.530200 0.432300
C477 C 0.165160 -0.154360 0.337690
C478 C 1.718350 1.148760 0.691670
C479 C 0.106230 -0.260600 0.343900
C480 C 0.202000 1.345730 -0.254530
C481 C 0.163180 -0.362580 0.320460
C482 C 0.449100 1.337890 -0.062500
C483 C 0.279020 -0.359100 0.290100
C484 C 1.663630 1.251740 0.716210
C485 C 0.958200 -0.041660 0.019390
C486 C 0.846050 -0.107910 0.130710
C487 C 0.720980 1.359100 -0.290100
C488 C 0.921010 -0.026480 0.096560
C489 C 0.836820 1.362580 -0.320460
C490 C 0.916010 -0.141590 -0.019300
C491 C 0.893770 1.260600 -0.343900
C492 C 0.839730 -0.218380 0.019080
C493 C 0.834840 1.154360 -0.337690
C494 C 0.718350 1.148760 -0.308330
C495 C 0.550900 -0.337890 0.062500
C496 C 0.663630 1.251740 -0.283790
C497 C 0.134160 1.580490 0.040390
C498 C 0.139400 1.755000 0.118890
C499 C 0.798000 -0.345730 0.254530
C500 C 0.097300 1.643300 0.106110
C501 C 0.215500 1.806740 0.065740
C502 C 0.252770 1.747340 -0.001090
C503 C 0.702000 0.154270 0.245470
C504 C 0.212360 1.633250 -0.011850
C505 C 0.079200 0.469800 0.567700
C506 C 1.134160 1.580490 1.040390
C507 C 0.920800 0.530200 0.432300
C508 C 1.041800 0.041660 -0.019390
C509 C 1.153950 0.107910 -0.130710
C510 C 1.139400 1.755000 1.118890
C511 C 1.078990 0.026480 -0.096560
C512 C 1.079200 0.469800 0.567700
C513 C 1.083990 0.141590 0.019300
C514 C 1.097300 1.643300 1.106110
C515 C 1.160270 0.218380 -0.019080
C516 C 1.215500 1.806740 1.065740
C517 C 1.252770 1.747340 0.998910
C518 C 0.160270 1.218380 -0.019080
C519 C 0.083990 1.141590 0.019300
C520 C 1.212360 1.633250 0.988150
C521 C 0.715500 -0.306740 0.565740
C522 C 1.212360 0.633250 -0.011850
C523 C 1.252770 0.747340 -0.001090
C524 C 0.078990 1.026480 -0.096560
C525 C 1.215500 0.806740 0.065740
C526 C 0.153950 1.107910 -0.130710
C527 C 1.097300 0.643300 0.106110
C528 C 0.041800 1.041660 -0.019390
C529 C 1.139400 0.755000 0.118890
C530 C -0.212360 -0.633250 0.011850
C531 C 1.134160 0.580490 0.040390
C532 C -0.252770 -0.747340 0.001090
C533 C 1.663630 0.251740 -0.283790
C534 C 1.718350 0.148760 -0.308330
C535 C 1.160270 1.218380 0.980920
C536 C 1.834840 0.154360 -0.337690
C537 C 0.287640 1.133250 0.511850
C538 C 1.893770 0.260600 -0.343900
C539 C 0.247230 1.247340 0.501090
C540 C 1.836820 0.362580 -0.320460
C541 C -0.202000 0.654270 0.254530
C542 C 1.720980 0.359100 -0.290100
C543 C -0.449100 0.662110 0.062500
C544 C 0.284500 1.306740 0.434260
C545 C 1.449100 0.337890 -0.062500
C546 C -0.160270 0.781620 0.019080
C547 C -0.083990 0.858410 -0.019300
C548 C -0.078990 0.973520 0.096560
C549 C 1.202000 0.345730 -0.254530
C550 C -0.153950 0.892090 0.130710
C551 C -0.041800 0.958340 0.019390
C552 C 0.949100 0.162110 0.437500
C553 C -0.720980 0.640900 0.290100
C554 C 0.660270 0.281620 0.480920
C555 C -0.215500 -0.806740 -0.065740
C556 C 1.083990 1.141590 1.019300
C557 C -0.836820 0.637420 0.320460
C558 C -0.893770 0.739400 0.343900
C559 C -0.097300 -0.643300 -0.106110
C560 C 1.078990 1.026480 0.903440
C561 C 0.787640 -0.633250 1.011850
C562 C 0.747230 -0.747340 1.001090
C563 C -0.834840 0.845640 0.337690
C564 C 0.784500 -0.806740 0.934260
C565 C -0.718350 0.851240 0.308330
C566 C 0.902700 -0.643300 0.893890
C567 C -0.663630 0.748260 0.283790
C568 C 0.860600 -0.755000 0.881110
C569 C -0.134160 0.419510 -0.040390
C570 C 0.865840 -0.580490 0.959610
C571 C -0.139400 0.245000 -0.118890
C572 C 0.336370 -0.251740 1.283790
C573 C 0.281650 -0.148760 1.308330
C574 C -0.097300 0.356700 -0.106110
C575 C 0.165160 -0.154360 1.337690
C576 C -0.215500 0.193260 -0.065740
C577 C 0.106230 -0.260600 1.343900
C578 C -0.252770 0.252660 0.001090
C579 C 0.163180 -0.362580 1.320460
C580 C -0.212360 0.366750 0.011850
C581 C 0.279020 -0.359100 1.290100
C582 C -0.139400 -0.755000 -0.118890
C583 C 0.958200 -0.041660 1.019390
C584 C 0.846050 -0.107910 1.130710
C585 C 1.153950 1.107910 0.869290
C586 C 0.921010 -0.026480 1.096560
C587 C 1.041800 1.041660 0.980610
C588 C 0.916010 -0.141590 0.980700
C589 C -0.134160 -0.580490 -0.040390
C590 C 0.839730 -0.218380 1.019080
C591 C 0.402700 1.143300 0.393890
C592 C 0.583990 0.358410 0.519300
C593 C 0.550900 -0.337890 1.062500
C594 C 0.360600 1.255000 0.381110
C595 C 0.202000 0.345730 0.745470
C596 C 0.449100 0.337890 0.937500
C597 C 0.798000 -0.345730 1.254530
C598 C 0.720980 0.359100 0.709900
C599 C 0.836820 0.362580 0.679540
C600 C 0.893770 0.260600 0.656100
C601 C 0.578990 0.473520 0.403440
C602 C 0.834840 0.154360 0.662310
C603 C 0.597300 -0.143300 0.606110
C604 C -0.663630 -0.251740 0.283790
C605 C -0.718350 -0.148760 0.308330
C606 C 1.041800 0.041660 0.980610
C607 C 1.153950 0.107910 0.869290
C608 C 0.718350 0.148760 0.691670
C609 C 1.078990 0.026480 0.903440
C610 C 0.663630 0.251740 0.716210
C611 C 1.083990 0.141590 1.019300
C612 C 0.134160 0.580490 1.040390
C613 C 1.160270 0.218380 0.980920
C614 C 0.139400 0.755000 1.118890
C615 C -0.834840 -0.154360 0.337690
C616 C 0.097300 0.643300 1.106110
C617 C 0.653950 0.392090 0.369290
C618 C 0.798000 0.654270 1.254530
C619 C -0.893770 -0.260600 0.343900
C620 C 1.212360 0.633250 0.988150
C621 C 1.252770 0.747340 0.998910
C622 C 0.215500 0.806740 1.065740
C623 C 1.215500 0.806740 1.065740
C624 C 0.252770 0.747340 0.998910
C625 C 1.097300 0.643300 1.106110
C626 C 0.212360 0.633250 0.988150
C627 C 1.139400 0.755000 1.118890
C628 C 0.712360 -0.133250 0.488150
C629 C 1.134160 0.580490 1.040390
C630 C -0.836820 -0.362580 0.320460
C631 C 1.663630 0.251740 0.716210
C632 C 1.718350 0.148760 0.691670
C633 C 0.365840 1.080490 0.459610
C634 C 1.834840 0.154360 0.662310
C635 C -0.720980 -0.359100 0.290100
C636 C 1.893770 0.260600 0.656100
C637 C 0.160270 0.218380 0.980920
C638 C 1.836820 0.362580 0.679540
C639 C 0.083990 0.141590 1.019300
C640 C 1.720980 0.359100 0.709900
C641 C 0.078990 0.026480 0.903440
C642 C 0.541800 0.458340 0.480610
C643 C 1.449100 0.337890 0.937500
C644 C 0.153950 0.107910 0.869290
C645 C 0.041800 0.041660 0.980610
C646 C 0.550900 0.662110 1.062500
C647 C 1.202000 0.345730 0.745470
C648 C 0.639400 -0.255000 0.618890
C649 C -0.041800 -0.041660 0.019390
C650 C -0.163630 0.751740 0.783790
C651 C 1.220980 0.140900 0.209900
C652 C -0.218350 0.648760 0.808330
C653 C 0.839730 0.781620 1.019080
C654 C -0.153950 -0.107910 0.130710
C655 C -0.202000 -0.345730 1.254530
C656 C 1.336820 0.137420 0.179540
C657 C 0.916010 0.858410 0.980700
C658 C -0.078990 -0.026480 0.096560
C659 C 0.787640 0.366750 0.011850
C660 C 0.747230 0.252660 0.001090
C661 C -0.449100 -0.337890 1.062500
C662 C 0.784500 0.193260 -0.065740
C663 C -0.160270 -0.218380 1.019080
C664 C 0.902700 0.356700 -0.106110
C665 C -0.083990 -0.141590 0.980700
C666 C 0.860600 0.245000 -0.118890
C667 C -0.078990 -0.026480 1.096560
C668 C 0.865840 0.419510 -0.040390
C669 C -0.153950 -0.107910 1.130710
C670 C 0.336370 0.748260 0.283790
C671 C 0.281650 0.851240 0.308330
C672 C -0.041800 -0.041660 1.019390
C673 C 0.165160 0.845640 0.337690
C674 C -0.720980 -0.359100 1.290100
C675 C 0.106230 0.739400 0.343900
C676 C -0.836820 -0.362580 1.320460
C677 C 0.163180 0.637420 0.320460
C678 C -0.893770 -0.260600 1.343900
C679 C 0.279020 0.640900 0.290100
C680 C -0.834840 -0.154360 1.337690
C681 C 0.958200 0.958340 0.019390
C682 C 0.846050 0.892090 0.130710
C683 C -0.718350 -0.148760 1.308330
C684 C 0.921010 0.973520 0.096560
C685 C -0.663630 -0.251740 1.283790
C686 C 0.916010 0.858410 -0.019300
C687 C -0.134160 -0.580490 0.959610
C688 C 0.839730 0.781620 0.019080
C689 C -0.139400 -0.755000 0.881110
C690 C -0.097300 -0.643300 0.893890
C691 C 0.550900 0.662110 0.062500
C692 C -0.215500 -0.806740 0.934260
C693 C -0.252770 -0.747340 1.001090
C694 C -0.212360 -0.633250 1.011850
C695 C 0.798000 0.654270 0.254530
C696 C 0.921010 0.973520 1.096560
C697 C -0.083990 -0.141590 -0.019300
C698 C 1.393770 0.239400 0.156100
C699 C -0.334840 0.654360 0.837690
C700 C 1.334840 0.345640 0.162310
C701 C 0.846050 0.892090 1.130710
C702 C 0.958200 0.958340 1.019390
C703 C -0.160270 -0.218380 0.019080
C704 C 1.041800 1.041660 -0.019390
C705 C 1.153950 1.107910 -0.130710
C706 C 0.279020 0.640900 1.290100
C707 C 1.078990 1.026480 -0.096560
C708 C -0.449100 -0.337890 0.062500
C709 C 1.083990 1.141590 0.019300
C710 C -0.393770 0.760600 0.843900
C711 C 1.160270 1.218380 -0.019080
C712 C 0.202000 0.345730 -0.254530
C713 C 0.163180 0.637420 1.320460
C714 C 0.449100 0.337890 -0.062500
C715 C -0.336820 0.862580 0.820460
C716 C -0.202000 -0.345730 0.254530
C717 C 0.106230 0.739400 1.343900
C718 C 1.212360 1.633250 -0.011850
C719 C 1.252770 1.747340 -0.001090
C720 C 0.720980 0.359100 -0.290100
C721 C 1.215500 1.806740 0.065740
C722 C 0.836820 0.362580 -0.320460
C723 C 1.097300 1.643300 0.106110
C724 C 0.893770 0.260600 -0.343900
C725 C 1.139400 1.755000 0.118890
C726 C 0.834840 0.154360 -0.337690
C727 C 1.134160 1.580490 0.040390
C728 C 0.718350 0.148760 -0.308330
C729 C 1.663630 1.251740 -0.283790
C730 C 1.718350 1.148760 -0.308330
C731 C 0.663630 0.251740 -0.283790
C732 C 1.834840 1.154360 -0.337690
C733 C 0.134160 0.580490 0.040390
C734 C 1.893770 1.260600 -0.343900
C735 C 0.139400 0.755000 0.118890
C736 C 1.836820 1.362580 -0.320460
C737 C 0.097300 0.643300 0.106110
C738 C 1.720980 1.359100 -0.290100
C739 C 0.215500 0.806740 0.065740
C740 C 1.218350 0.351240 0.191670
C741 C 1.449100 1.337890 -0.062500
C742 C 0.252770 0.747340 -0.001090
C743 C 0.212360 0.633250 -0.011850
C744 C 0.050900 0.837890 0.562500
C745 C 1.202000 1.345730 -0.254530
C746 C 0.165160 0.845640 1.337690
C747 C -0.220980 0.859100 0.790100
C748 C 1.163630 0.248260 0.216210
C749 C 0.160270 0.218380 -0.019080
C750 C 0.634160 -0.080490 0.540390
C751 C 0.281650 0.851240 1.308330
C752 C 0.336370 0.748260 1.283790
C753 C 0.083990 0.141590 0.019300
C754 C 0.078990 0.026480 -0.096560
C755 C 0.865840 0.419510 0.959610
C756 C 0.860600 0.245000 0.881110
C757 C 0.787640 0.366750 1.011850
C758 C 0.747230 0.252660 1.001090
C759 C 0.153950 0.107910 -0.130710
C760 C 0.784500 0.193260 0.934260
C761 C 0.041800 0.041660 -0.019390
C762 C 0.902700 0.356700 0.893890
N763 N -0.504910 -0.150050 0.224450
N764 N 0.661710 0.393610 1.119930
N765 N -0.544610 -0.249050 0.250300
N766 N 0.747380 0.435080 1.077730
N767 N -0.195870 -0.203000 0.093100
N768 N 1.504910 1.150050 -0.224450
N769 N 1.544610 1.249050 -0.250300
N770 N 0.195870 0.203000 -0.093100
N771 N 0.252620 0.564920 -0.077730
N772 N 0.338290 0.606390 -0.119930
N773 N 1.338290 1.606390 -0.119930
N774 N 1.252620 1.564920 -0.077730
N775 N 1.195870 1.203000 -0.093100
N776 N 0.544610 0.249050 -0.250300
N777 N 0.504910 0.150050 -0.224450
N778 N 0.495090 0.849950 0.224450
N779 N 0.455390 0.750950 0.250300
N780 N 0.804130 0.797000 0.093100
N781 N -0.252620 -0.564920 1.077730
N782 N -0.338290 -0.606390 1.119930
N783 N 0.661710 0.393610 0.119930
N784 N 0.747380 0.435080 0.077730
N785 N 1.504910 0.150050 0.775550
N786 N 1.544610 0.249050 0.749700
N787 N -0.195870 -0.203000 1.093100
N788 N -0.544610 -0.249050 1.250300
N789 N -0.504910 -0.150050 1.224450
N790 N 0.195870 0.203000 0.906900
N791 N 0.252620 0.564920 0.922270
N792 N 1.338290 0.606390 0.880070
N793 N 1.252620 0.564920 0.922270
N794 N 1.195870 0.203000 0.906900
N795 N 0.495090 -0.150050 1.224450
N796 N 0.455390 -0.249050 1.250300
N797 N 0.804130 -0.203000 1.093100
N798 N 0.544610 0.249050 0.749700
N799 N 0.804130 0.797000 1.093100
N800 N 0.455390 0.750950 1.250300
N801 N 0.495090 0.849950 1.224450
N802 N 0.504910 0.150050 0.775550
N803 N -0.252620 0.435080 0.077730
N804 N -0.338290 0.393610 0.119930
N805 N 0.661710 -0.606390 1.119930
N806 N 0.747380 -0.564920 1.077730
N807 N 1.504910 0.150050 -0.224450
N808 N 1.544610 0.249050 -0.250300
N809 N -0.195870 0.797000 0.093100
N810 N -0.544610 0.750950 0.250300
N811 N 1.195870 1.203000 0.906900
N812 N -0.504910 0.849950 0.224450
N813 N 1.338290 0.606390 -0.119930
N814 N 1.252620 1.564920 0.922270
N815 N 1.338290 1.606390 0.880070
N816 N 1.252620 0.564920 -0.077730
N817 N 1.195870 0.203000 -0.093100
N818 N -0.338290 -0.606390 0.119930
N819 N 0.195870 1.203000 -0.093100
N820 N -0.252620 -0.564920 0.077730
N821 N 0.161710 1.106390 0.619930
N822 N 0.252620 1.564920 -0.077730
N823 N 0.338290 1.606390 -0.119930
N824 N 0.495090 -0.150050 0.224450
N825 N 0.455390 -0.249050 0.250300
N826 N 0.804130 -0.203000 0.093100
N827 N 0.247380 1.064920 0.577730
N828 N 0.304130 0.703000 0.593100
N829 N 0.544610 1.249050 -0.250300
N830 N -0.004910 0.650050 0.724450
N831 N 0.504910 1.150050 -0.224450
N832 N -0.252620 0.435080 1.077730
N833 N -0.338290 0.393610 1.119930
N834 N 0.661710 -0.606390 0.119930
N835 N 0.747380 -0.564920 0.077730
N836 N 0.695870 0.297000 0.406900
N837 N 0.504910 1.150050 0.775550
N838 N 0.544610 1.249050 0.749700
N839 N 1.044610 0.250950 0.249700
N840 N 1.004910 0.349950 0.275550
N841 N 0.338290 1.606390 0.880070
N842 N -0.044610 0.749050 0.750300
N843 N 0.252620 1.564920 0.922270
N844 N 0.195870 1.203000 0.906900
N845 N -0.195870 0.797000 1.093100
N846 N -0.544610 0.750950 1.250300
N847 N 0.338290 0.606390 0.880070
N848 N 0.838290 -0.106390 0.380070
N849 N 1.544610 1.249050 0.749700
N850 N 1.504910 1.150050 0.775550
N851 N -0.504910 0.849950 1.224450
N852 N 0.752620 -0.064920 0.422270
O853 O 0.703070 0.038400 0.410200
O854 O 1.399290 1.156930 0.806430
O855 O 1.484640 1.348260 0.754350
O856 O 1.372100 1.536060 0.824330
O857 O 0.500000 0.000000 1.000000
O858 O 1.203070 1.461600 0.910200
O859 O 0.600710 0.843070 1.193570
O860 O 0.515360 0.651740 1.245650
O861 O 0.627900 0.463940 1.175670
O862 O 0.100710 0.656930 0.693570
O863 O 0.796930 0.538400 1.089800
O864 O 1.399290 1.156930 -0.193570
O865 O 1.484640 1.348260 -0.245650
O866 O 1.372100 1.536060 -0.175670
O867 O 0.015360 0.848260 0.745650
O868 O 1.203070 1.461600 -0.089800
O869 O 0.600710 0.843070 0.193570
O870 O 0.515360 0.651740 0.245650
O871 O 0.627900 0.463940 0.175670
O872 O 0.127900 1.036060 0.675670
O873 O 0.796930 0.538400 0.089800
O874 O 1.399290 0.156930 0.806430
O875 O 1.484640 0.348260 0.754350
O876 O 1.372100 0.536060 0.824330
O877 O 0.500000 1.000000 0.000000
O878 O 1.203070 0.461600 0.910200
O879 O 0.600710 -0.156930 1.193570
O880 O 0.515360 -0.348260 1.245650
O881 O 0.627900 -0.536060 1.175670
O882 O 0.500000 1.000000 1.000000
O883 O 0.796930 -0.461600 1.089800
O884 O 1.399290 0.156930 -0.193570
O885 O 1.484640 0.348260 -0.245650
O886 O 0.000000 0.500000 0.500000
O887 O 1.372100 0.536060 -0.175670
O888 O 1.000000 0.500000 0.500000
O889 O 1.203070 0.461600 -0.089800
O890 O 0.600710 -0.156930 0.193570
O891 O 0.515360 -0.348260 0.245650
O892 O 0.627900 -0.536060 0.175670
O893 O -0.203070 -0.461600 0.089800
O894 O 0.872100 -0.036060 0.324330
O895 O 0.984640 0.151740 0.254350
O896 O 0.899290 0.343070 0.306430
O897 O 0.796930 -0.461600 0.089800
O898 O 0.399290 1.156930 0.806430
O899 O 0.484640 1.348260 0.754350
O900 O 0.372100 1.536060 0.824330
O901 O 0.500000 0.000000 0.000000
O902 O 0.203070 1.461600 0.910200
O903 O -0.399290 0.843070 1.193570
O904 O -0.484640 0.651740 1.245650
O905 O -0.372100 0.463940 1.175670
O906 O -0.372100 -0.536060 0.175670
O907 O -0.203070 0.538400 1.089800
O908 O 0.399290 1.156930 -0.193570
O909 O 0.484640 1.348260 -0.245650
O910 O 0.372100 1.536060 -0.175670
O911 O 0.296930 0.961600 0.589800
O912 O -0.484640 -0.348260 0.245650
O913 O 0.203070 1.461600 -0.089800
O914 O -0.399290 0.843070 0.193570
O915 O -0.484640 0.651740 0.245650
O916 O -0.372100 0.463940 0.175670
O917 O -0.399290 -0.156930 0.193570
O918 O -0.203070 0.538400 0.089800
O919 O 0.399290 0.156930 0.806430
O920 O 0.484640 0.348260 0.754350
O921 O 0.372100 0.536060 0.824330
O922 O 0.203070 0.461600 -0.089800
O923 O 0.203070 0.461600 0.910200
O924 O -0.399290 -0.156930 1.193570
O925 O -0.484640 -0.348260 1.245650
O926 O -0.372100 -0.536060 1.175670
O927 O 0.372100 0.536060 -0.175670
O928 O -0.203070 -0.461600 1.089800
O929 O 0.399290 0.156930 -0.193570
O930 O 0.484640 0.348260 -0.245650
Sn931 Sn -0.327863 -0.342631 1.160139
Sn932 Sn 0.327863 0.342631 -0.160139
Sn933 Sn 0.327863 0.342631 0.839861
Sn934 Sn -0.327863 0.657369 0.160139
Sn935 Sn 0.327863 1.342631 -0.160139
Sn936 Sn 0.172137 0.842631 0.660139
Sn937 Sn -0.327863 0.657369 1.160139
Sn938 Sn -0.327863 -0.342631 0.160139
Sn939 Sn 0.672137 -0.342631 0.160139
Sn940 Sn 1.327863 0.342631 -0.160139
Sn941 Sn 0.827863 0.157369 0.339861
Sn942 Sn 0.672137 -0.342631 1.160139
Sn943 Sn 1.327863 0.342631 0.839861
Sn944 Sn 0.672137 0.657369 0.160139
Sn945 Sn 1.327863 1.342631 -0.160139
Sn946 Sn 0.672137 0.657369 1.160139
Sn947 Sn 1.327863 1.342631 0.839861
Sn948 Sn 0.327863 1.342631 0.839861

#END
