./ACILEF_from_POSCAR.cif_generated_by_CrystalShift
_symmetry_cell_setting triclinic
_symmetry_space_group_name_H-M 'P 1'
loop_
_symmetry_equiv_pos_site_id
_symmetry_equiv_pos_as_xyz
1 x,y,z
_cell_length_a 5.797200
_cell_length_b 11.688200
_cell_length_c 17.040000
_cell_angle_alpha 102.170000
_cell_angle_beta 93.736000
_cell_angle_gamma 99.151000
_cell_volume 1108.456286
loop_
_atom_site_label
_atom_site_type_symbol
_atom_site_fract_x
_atom_site_fract_y
_atom_site_fract_z
H1 H 0.755000 0.230500 0.966400
H2 H -0.158800 -0.140700 0.807200
H3 H 0.743300 0.927500 0.290000
H4 H 0.713900 0.995800 0.377400
H5 H 0.554300 1.009900 0.303400
H6 H -0.361900 -0.073700 0.788100
H7 H 0.878900 0.344400 0.940900
H8 H -0.254900 0.622600 0.514300
H9 H -0.397300 0.653800 0.442600
H10 H -0.203600 0.751100 0.498400
H11 H 0.740200 0.357100 1.017300
H12 H 0.867900 0.726400 0.182600
H13 H 0.984200 0.645800 0.222500
H14 H 0.201600 0.315400 0.283500
H15 H 0.506300 0.879800 0.049500
H16 H -0.092600 0.184000 0.311700
H17 H 0.187300 0.489300 0.059900
H18 H -0.372900 0.250500 0.390000
H19 H 0.206700 0.312200 0.092900
H20 H -0.351100 0.449000 0.437400
H21 H 0.132100 0.273600 0.817400
H22 H -0.013500 0.849600 0.456400
H23 H 0.015800 0.354200 0.777500
H24 H 0.493700 0.120200 0.950500
H25 H 0.374600 0.506000 0.287000
H26 H 0.290800 0.612200 0.332900
H27 H 0.812700 0.510700 0.940100
H28 H 0.535300 0.294900 0.169200
H29 H 0.825700 0.450100 0.213100
H30 H 0.259800 0.642900 -0.017300
H31 H 0.256700 0.072500 0.710000
H32 H 0.286100 0.004200 0.622600
H33 H 0.445700 -0.009900 0.696600
H34 H 0.121100 0.655600 0.059100
H35 H 0.245000 0.769500 0.033600
H36 H 1.254900 0.377400 0.485700
H37 H 1.397300 0.346200 0.557400
H38 H 1.203600 0.248900 0.501600
H39 H 1.292300 1.080400 0.122800
H40 H 1.158800 1.140700 0.192800
H41 H 1.361900 1.073700 0.211900
H42 H 0.798400 0.684600 0.716500
H43 H 0.174300 0.549900 0.786900
H44 H 1.092600 0.816000 0.688300
H45 H -0.292300 -0.080400 0.877200
H46 H 1.372900 0.749500 0.610000
H47 H 0.709200 0.387800 0.667100
H48 H 1.351100 0.551000 0.562600
H49 H 0.793300 0.687800 0.907100
H50 H 1.013500 0.150400 0.543600
H51 H 0.625400 0.494000 0.713000
H52 H 0.464700 0.705100 0.830800
C53 C 0.670700 0.623700 0.889600
C54 C 1.237700 0.577100 0.594700
C55 C 0.476800 0.633000 0.844100
C56 C 1.086100 0.734900 0.668600
C57 C 0.802800 0.967300 0.099300
C58 C 1.233800 1.074100 0.173400
C59 C 0.912600 0.656300 0.685700
C60 C 0.897200 0.534800 0.659300
C61 C 1.065200 0.493200 0.611370
C62 C 0.471300 0.688400 0.086710
C63 C 0.255500 0.689100 0.036100
C64 C 1.246800 0.332000 0.526600
C65 C 1.069100 0.367900 0.580590
C66 C 0.367300 0.044300 0.674400
C67 C 0.493900 0.580700 0.114470
C68 C 0.688900 0.569300 0.163500
C69 C 0.695600 0.459300 0.181700
C70 C 0.756400 0.098200 0.599500
C71 C 0.523200 0.367000 0.155900
C72 C 0.679800 0.517300 0.909000
C73 C 0.329300 0.376300 0.110400
C74 C -0.237700 0.422900 0.405300
C75 C 0.320200 0.482700 0.091000
C76 C -0.251800 0.304100 0.377600
C77 C 0.304400 0.540700 0.818300
C78 C -0.086100 0.265100 0.331400
C79 C 0.311100 0.430700 0.836500
C80 C 0.506100 0.419300 0.885530
C81 C 0.087400 0.343700 0.314300
C82 C 0.102800 0.465200 0.340700
C83 C -0.065200 0.506800 0.388630
C84 C -0.246800 0.668000 0.473400
C85 C 0.197200 0.032700 0.900700
C86 C -0.233800 -0.074100 0.826600
C87 C -0.069100 0.632100 0.419410
C88 C 0.632700 0.955700 0.325600
C89 C 1.251800 0.695900 0.622400
C90 C 0.528700 0.311600 0.913290
C91 C 0.744500 0.310900 0.963900
C92 C 0.243600 0.901800 0.400500
N93 N 0.914300 0.174900 0.575750
N94 N 0.082800 0.707200 0.397170
N95 N 0.868100 0.657500 0.193010
N96 N 0.639600 0.775300 0.106920
N97 N 0.628200 0.875800 0.079700
N98 N 0.131900 0.342500 0.806990
N99 N 0.360400 0.224700 0.893080
N100 N 0.723200 0.463700 0.682560
N101 N 0.917200 0.292800 0.602830
N102 N 0.085700 0.825100 0.424250
N103 N 0.276800 0.536300 0.317440
N104 N 0.371800 0.124200 0.920300
S105 S 0.424260 0.834440 0.336500
S106 S 0.741160 -0.045230 0.570670
S107 S 0.575740 0.165560 0.663500
S108 S 0.797140 1.090370 0.069790
S109 S 1.029550 0.941440 0.160150
S110 S 0.258840 1.045230 0.429330
S111 S 0.202860 -0.090370 0.930210
S112 S -0.029550 0.058560 0.839850

#END
