./ACIMAB_from_POSCAR.cif_generated_by_CrystalShift
_symmetry_cell_setting triclinic
_symmetry_space_group_name_H-M 'P 1'
loop_
_symmetry_equiv_pos_site_id
_symmetry_equiv_pos_as_xyz
1 x,y,z
_cell_length_a 13.995100
_cell_length_b 8.199000
_cell_length_c 20.937900
_cell_angle_alpha 90.000000
_cell_angle_beta 98.350000
_cell_angle_gamma 90.000000
_cell_volume 2377.068368
loop_
_atom_site_label
_atom_site_type_symbol
_atom_site_fract_x
_atom_site_fract_y
_atom_site_fract_z
H1 H 0.733700 -0.439500 0.582400
H2 H 0.212700 0.823600 0.732200
H3 H 0.116300 0.873500 0.685400
H4 H 0.215300 0.849000 0.656700
H5 H 0.089000 1.522200 0.776500
H6 H 0.521100 0.791200 0.227500
H7 H 0.055700 1.354300 0.805400
H8 H 0.647600 0.911600 0.181000
H9 H 0.152200 1.442900 0.838600
H10 H 0.441000 1.368800 0.680200
H11 H 0.266300 0.060500 -0.082400
H12 H 0.371000 1.378400 0.612700
H13 H 0.370600 1.521900 0.664400
H14 H 0.102400 1.106800 0.758900
H15 H 0.252000 1.515500 0.732200
H16 H 0.017700 0.309200 0.075800
H17 H 0.381100 0.902800 0.716600
H18 H 0.329000 1.586200 0.519400
H19 H 0.109600 -0.156200 0.077500
H20 H 0.268600 1.720700 0.551900
H21 H 0.243400 1.682800 0.476400
H22 H 0.211600 0.496200 0.035800
H23 H 0.097100 0.520300 0.029100
H24 H 0.145500 0.466000 -0.032200
H25 H -0.070800 1.388500 0.623500
H26 H -0.000500 -0.019000 0.162900
H27 H -0.066200 -0.071000 0.097000
H28 H -0.070800 0.111500 0.123500
H29 H -0.066200 1.571000 0.597000
H30 H 0.243400 -0.182800 -0.023600
H31 H 0.268600 -0.220700 0.051900
H32 H 0.329000 -0.086200 0.019400
H33 H -0.000500 1.519000 0.662900
H34 H 0.381100 0.597200 0.216600
H35 H 0.145500 1.034000 0.467800
H36 H 0.097100 0.979700 0.529100
H37 H 0.211600 1.003800 0.535800
H38 H 0.109600 1.656200 0.577500
H39 H 0.252000 -0.015500 0.232200
H40 H 0.017700 1.190800 0.575800
H41 H 0.266300 1.439500 0.417600
H42 H 0.102400 0.393200 0.258900
H43 H 0.647600 0.588400 0.681000
H44 H 0.521100 0.708800 0.727500
H45 H 0.370600 -0.021900 0.164400
H46 H 0.371000 0.121600 0.112700
H47 H 0.441000 0.131200 0.180200
H48 H 0.787300 1.176400 0.267800
H49 H 0.152200 0.057100 0.338600
H50 H 0.055700 0.145700 0.305400
H51 H 0.089000 -0.022200 0.276500
H52 H 0.883700 1.126500 0.314600
H53 H 0.215300 0.651000 0.156700
H54 H 0.116300 0.626500 0.185400
H55 H 0.212700 0.676400 0.232200
H56 H 0.784700 1.151000 0.343300
H57 H 0.911000 0.477800 0.223500
H58 H 0.944300 0.645700 0.194600
H59 H 0.847800 0.557100 0.161400
H60 H 0.559000 0.631200 0.319800
H61 H 0.478900 0.208800 -0.227500
H62 H 0.629000 0.621600 0.387300
H63 H 0.352400 0.088400 -0.181000
H64 H 0.629400 0.478100 0.335600
H65 H 0.897600 0.893200 0.241100
H66 H 0.733700 0.939500 0.082400
H67 H 0.748000 0.484500 0.267800
H68 H 0.618900 1.097200 0.283400
H69 H 0.671000 0.413800 0.480600
H70 H 0.731400 0.279300 0.448100
H71 H 0.982300 0.690800 -0.075800
H72 H 0.756600 0.317200 0.523600
H73 H 1.070800 0.611500 0.376500
H74 H 0.890400 1.156200 -0.077500
H75 H 1.066200 0.429000 0.403000
H76 H 1.000500 0.481000 0.337100
H77 H 0.788400 0.503800 -0.035800
H78 H 0.902900 0.479700 -0.029100
H79 H 0.854500 0.534000 0.032200
H80 H 0.854500 0.966000 0.532200
H81 H 1.000500 1.019000 -0.162900
H82 H 1.066200 1.071000 -0.097000
H83 H 1.070800 0.888500 -0.123500
H84 H 0.902900 1.020300 0.470900
H85 H 0.756600 1.182800 0.023600
H86 H 0.731400 1.220700 -0.051900
H87 H 0.671000 1.086200 -0.019400
H88 H 0.788400 0.996200 0.464200
H89 H 0.618900 0.402800 -0.216600
H90 H 0.890400 0.343800 0.422500
H91 H 0.982300 0.809200 0.424200
H92 H 0.733700 0.560500 0.582400
H93 H 0.352400 1.411600 0.319000
H94 H 0.748000 1.015500 -0.232200
H95 H 0.478900 1.291200 0.272500
H96 H 0.212700 -0.176400 0.732200
H97 H 0.897600 0.606800 -0.258900
H98 H 0.116300 -0.126500 0.685400
H99 H 0.215300 -0.151000 0.656700
H100 H 0.629400 1.021900 -0.164400
H101 H 0.629000 0.878400 -0.112700
H102 H 0.559000 0.868800 -0.180200
H103 H 0.089000 0.522200 0.776500
H104 H 0.847800 0.942900 -0.338600
H105 H 0.944300 0.854300 -0.305400
H106 H 0.911000 1.022200 -0.276500
H107 H 0.055700 0.354300 0.805400
H108 H 0.784700 0.349000 -0.156700
H109 H 0.883700 0.373500 -0.185400
H110 H 0.787300 0.323600 -0.232200
H111 H 0.152200 0.442900 0.838600
H112 H 0.441000 0.368800 0.680200
H113 H 0.371000 0.378400 0.612700
H114 H 0.370600 0.521900 0.664400
H115 H 0.102400 0.106800 0.758900
H116 H 0.521100 0.791200 1.227500
H117 H 0.252000 0.515500 0.732200
H118 H 0.647600 0.911600 1.181000
H119 H 0.381100 -0.097200 0.716600
H120 H 0.329000 0.586200 0.519400
H121 H 0.266300 0.060500 0.917600
H122 H 0.268600 0.720700 0.551900
H123 H 0.243400 0.682800 0.476400
H124 H -0.070800 0.388500 0.623500
H125 H -0.066200 0.571000 0.597000
H126 H 0.017700 0.309200 1.075800
H127 H -0.000500 0.519000 0.662900
H128 H 0.145500 0.034000 0.467800
H129 H 0.109600 -0.156200 1.077500
H130 H 0.097100 -0.020300 0.529100
H131 H 0.211600 0.003800 0.535800
H132 H 0.211600 0.496200 1.035800
H133 H 0.097100 0.520300 1.029100
H134 H 0.145500 0.466000 0.967800
H135 H 0.109600 0.656200 0.577500
H136 H -0.000500 -0.019000 1.162900
H137 H -0.066200 -0.071000 1.097000
H138 H -0.070800 0.111500 1.123500
H139 H 0.017700 0.190800 0.575800
H140 H 0.243400 -0.182800 0.976400
H141 H 0.268600 -0.220700 1.051900
H142 H 0.329000 -0.086200 1.019400
H143 H 0.266300 0.439500 0.417600
H144 H 0.381100 0.597200 1.216600
H145 H 0.647600 -0.411600 0.681000
H146 H 0.521100 -0.291200 0.727500
H147 H 0.787300 0.176400 0.267800
H148 H 0.883700 0.126500 0.314600
H149 H 0.252000 -0.015500 1.232200
H150 H 0.784700 0.151000 0.343300
H151 H 0.911000 -0.522200 0.223500
H152 H 0.102400 0.393200 1.258900
H153 H 0.944300 -0.354300 0.194600
H154 H 0.847800 -0.442900 0.161400
H155 H 0.370600 -0.021900 1.164400
H156 H 0.371000 0.121600 1.112700
H157 H 0.441000 0.131200 1.180200
H158 H 0.559000 -0.368800 0.319800
H159 H 0.152200 0.057100 1.338600
H160 H 0.055700 0.145700 1.305400
H161 H 0.089000 -0.022200 1.276500
H162 H 0.629000 -0.378400 0.387300
H163 H 0.215300 0.651000 1.156700
H164 H 0.116300 0.626500 1.185400
H165 H 0.212700 0.676400 1.232200
H166 H 0.629400 -0.521900 0.335600
H167 H 0.897600 -0.106800 0.241100
H168 H 0.748000 -0.515500 0.267800
H169 H 0.618900 0.097200 0.283400
H170 H 0.671000 -0.586200 0.480600
H171 H 0.478900 0.208800 0.772500
H172 H 0.731400 -0.720700 0.448100
H173 H 0.352400 0.088400 0.819000
H174 H 0.756600 -0.682800 0.523600
H175 H 1.070800 -0.388500 0.376500
H176 H 0.733700 0.939500 1.082400
H177 H 1.066200 -0.571000 0.403000
H178 H 1.000500 -0.519000 0.337100
H179 H 0.854500 -0.034000 0.532200
H180 H 0.902900 0.020300 0.470900
H181 H 0.982300 0.690800 0.924200
H182 H 0.788400 -0.003800 0.464200
H183 H 0.890400 -0.656200 0.422500
H184 H 0.890400 1.156200 0.922500
H185 H 0.982300 -0.190800 0.424200
H186 H 0.352400 0.411600 0.319000
H187 H 0.788400 0.503800 0.964200
H188 H 0.902900 0.479700 0.970900
H189 H 0.854500 0.534000 1.032200
H190 H 0.478900 0.291200 0.272500
H191 H 1.000500 1.019000 0.837100
H192 H 1.066200 1.071000 0.903000
H193 H 1.070800 0.888500 0.876500
H194 H 0.787300 0.323600 0.767800
H195 H 0.756600 1.182800 1.023600
H196 H 0.731400 1.220700 0.948100
H197 H 0.671000 1.086200 0.980600
H198 H 0.883700 0.373500 0.814600
H199 H 0.618900 0.402800 0.783400
H200 H 0.784700 0.349000 0.843300
H201 H 0.911000 1.022200 0.723500
H202 H 0.944300 0.854300 0.694600
H203 H 0.847800 0.942900 0.661400
H204 H 0.748000 1.015500 0.767800
H205 H 0.559000 0.868800 0.819800
H206 H 0.629000 0.878400 0.887300
H207 H 0.897600 0.606800 0.741100
H208 H 0.629400 1.021900 0.835600
B209 B 0.357300 0.713600 0.862100
B210 B 0.642700 0.213600 0.637900
B211 B 0.357300 0.786400 0.362100
B212 B 0.642700 0.286400 0.137900
C213 C 0.888500 0.919500 0.702500
C214 C 0.758200 0.901700 0.774200
C215 C 0.700100 0.816500 0.811790
C216 C 0.830500 0.825400 0.745900
C217 C 0.813400 0.387200 0.806000
C218 C 0.846200 0.659100 0.758100
C219 C 0.602500 0.436800 0.823790
C220 C 0.735000 1.135200 0.981100
C221 C 0.789400 0.566800 0.794060
C222 C 0.713400 0.646100 0.818510
C223 C 0.471500 0.655400 0.147680
C224 C 0.528500 0.155400 0.352320
C225 C 0.469100 0.265300 0.315250
C226 C 1.028600 0.982200 0.880300
C227 C 0.395400 0.335900 0.342360
C228 C 0.851100 0.544100 0.985300
C229 C 0.613700 -0.292300 0.594940
C230 C 0.696300 -0.349900 0.564100
C231 C 0.186600 0.887200 0.694000
C232 C 0.530900 0.765300 0.184750
C233 C 0.797100 -0.338900 0.483470
C234 C 0.862400 -0.221000 0.467800
C235 C 0.937600 -0.269700 0.435000
C236 C 0.806000 1.004900 0.966880
C237 C 0.948400 -0.432800 0.417800
C238 C 0.882900 -0.545500 0.434100
C239 C 0.882900 1.045500 0.934100
C240 C 0.806000 -0.504900 0.466880
C241 C 0.851100 -0.044100 0.485300
C242 C 0.948400 0.932800 0.917800
C243 C 0.937600 0.769700 0.935000
C244 C 0.862400 0.721000 0.967800
C245 C 1.028600 -0.482200 0.380300
C246 C 0.797100 0.838900 0.983470
C247 C 0.604600 0.835900 0.157640
C248 C 0.696300 0.849900 1.064100
C249 C 0.735000 -0.635200 0.481100
C250 C 0.613700 0.792300 1.094940
C251 C 0.395400 0.164100 0.842360
C252 C 0.469100 0.234700 0.815250
C253 C 0.602500 0.063200 0.323790
C254 C 0.528500 0.344600 0.852320
C255 C 0.386300 0.207700 -0.094940
C256 C 0.713400 -0.146100 0.318510
C257 C 0.700100 -0.316500 0.311790
C258 C 0.758200 -0.401700 0.274200
C259 C 0.111500 1.419500 0.797500
C260 C 0.830500 -0.325400 0.245900
C261 C 0.846200 -0.159100 0.258100
C262 C 0.303700 0.150100 -0.064100
C263 C 0.789400 -0.066800 0.294060
C264 C 0.622600 -0.404000 0.341200
C265 C 0.202900 0.161100 0.016530
C266 C 0.186600 0.612800 1.194000
C267 C 0.111500 0.080500 1.297500
C268 C 0.888500 -0.419500 0.202500
C269 C 0.377400 0.096000 1.158800
C270 C 0.210600 0.433200 1.205940
C271 C 0.153800 0.340900 1.241900
C272 C 0.813400 0.112800 0.306000
C273 C 0.169500 0.174600 1.254100
C274 C 0.241800 0.098300 1.225800
C275 C 0.299900 0.183500 1.188210
C276 C 0.377400 1.404000 0.658800
C277 C 0.210600 1.066800 0.705940
C278 C 0.137600 0.279000 0.032200
C279 C 0.471500 -0.155400 0.647680
C280 C 0.530900 -0.265300 0.684750
C281 C 0.286600 0.353900 1.181490
C282 C 0.604600 -0.335900 0.657640
C283 C 0.153800 1.159100 0.741900
C284 C 0.386300 0.292300 0.405060
C285 C 0.303700 0.349900 0.435900
C286 C 0.397500 0.563200 1.176210
C287 C 0.169500 1.325400 0.754100
C288 C 0.202900 0.338900 0.516530
C289 C 0.137600 0.221000 0.532200
C290 C 0.062400 0.269700 0.565000
C291 C 0.265000 -0.135200 1.018900
C292 C 0.051600 0.432800 0.582200
C293 C 0.117100 0.545500 0.565900
C294 C -0.028600 0.017800 1.119700
C295 C 0.194000 0.504900 0.533120
C296 C 0.148900 0.044100 0.514700
C297 C 0.148900 0.455900 1.014700
C298 C 0.194000 -0.004900 1.033120
C299 C 0.117100 -0.045500 1.065900
C300 C -0.028600 0.482200 0.619700
C301 C 0.051600 0.067200 1.082200
C302 C 0.062400 0.230300 1.065000
C303 C 0.137600 0.279000 1.032200
C304 C 0.265000 0.635200 0.518900
C305 C 0.202900 0.161100 1.016530
C306 C 0.062400 0.230300 0.065000
C307 C 0.303700 0.150100 0.935900
C308 C 0.397500 -0.063200 0.676210
C309 C 0.386300 0.207700 0.905060
C310 C 0.241800 1.401700 0.725800
C311 C 0.286600 0.146100 0.681490
C312 C 0.299900 0.316500 0.688210
C313 C 0.241800 0.401700 0.725800
C314 C 0.604600 0.835900 1.157640
C315 C 0.169500 0.325400 0.754100
C316 C 0.153800 0.159100 0.741900
C317 C 0.530900 0.765300 1.184750
C318 C 0.210600 0.066800 0.705940
C319 C 0.377400 0.404000 0.658800
C320 C 0.471500 0.655400 1.147680
C321 C 0.299900 1.316500 0.688210
C322 C 0.286600 1.146100 0.681490
C323 C 0.111500 0.419500 0.797500
C324 C 0.051600 0.067200 0.082200
C325 C 0.813400 0.387200 -0.194000
C326 C 0.888500 0.919500 -0.297500
C327 C 0.186600 -0.112800 0.694000
C328 C 0.622600 0.904000 -0.158800
C329 C 0.789400 0.566800 -0.205940
C330 C 0.846200 0.659100 -0.241900
C331 C 0.397500 0.936800 0.676210
C332 C 0.117100 -0.045500 0.065900
C333 C 0.194000 -0.004900 0.033120
C334 C 0.528500 1.155400 0.352320
C335 C 0.469100 1.265300 0.315250
C336 C 0.830500 0.825400 -0.254100
C337 C 0.395400 1.335900 0.342360
C338 C 0.758200 0.901700 -0.225800
C339 C 0.613700 0.707700 0.594940
C340 C 0.696300 0.650100 0.564100
C341 C 0.700100 0.816500 -0.188210
C342 C 0.148900 0.455900 0.014700
C343 C 0.797100 0.661100 0.483470
C344 C 0.862400 0.779000 0.467800
C345 C 0.937600 0.730300 0.435000
C346 C 0.713400 0.646100 -0.181490
C347 C 0.948400 0.567200 0.417800
C348 C 0.882900 0.454500 0.434100
C349 C 0.265000 1.635200 0.518900
C350 C 0.806000 0.495100 0.466880
C351 C 0.851100 0.955900 0.485300
C352 C 0.602500 0.436800 -0.176210
C353 C 0.735000 1.135200 -0.018900
C354 C 1.028600 0.982200 -0.119700
C355 C 1.028600 0.517800 0.380300
C356 C 0.851100 0.544100 -0.014700
C357 C 0.806000 1.004900 -0.033120
C358 C 0.882900 1.045500 -0.065900
C359 C 0.735000 0.364800 0.481100
C360 C 0.948400 0.932800 -0.082200
C361 C 0.937600 0.769700 -0.065000
C362 C 0.862400 0.721000 -0.032200
C363 C 0.602500 1.063200 0.323790
C364 C 0.797100 0.838900 -0.016530
C365 C -0.028600 0.017800 0.119700
C366 C 0.713400 0.853900 0.318510
C367 C 0.700100 0.683500 0.311790
C368 C 0.758200 0.598300 0.274200
C369 C 0.265000 -0.135200 0.018900
C370 C 0.830500 0.674600 0.245900
C371 C 0.846200 0.840900 0.258100
C372 C 0.696300 0.849900 0.064100
C373 C 0.789400 0.933200 0.294060
C374 C 0.622600 0.596000 0.341200
C375 C 0.613700 0.792300 0.094940
C376 C 0.395400 0.164100 -0.157640
C377 C 0.469100 0.234700 -0.184750
C378 C 0.888500 0.580500 0.202500
C379 C 0.528500 0.344600 -0.147680
C380 C 0.397500 0.563200 0.176210
C381 C -0.028600 1.482200 0.619700
C382 C 0.813400 1.112800 0.306000
C383 C 0.286600 0.353900 0.181490
C384 C 0.186600 0.612800 0.194000
C385 C 0.111500 0.080500 0.297500
C386 C 0.299900 0.183500 0.188210
C387 C 0.148900 1.044100 0.514700
C388 C 0.194000 1.504900 0.533120
C389 C 0.471500 0.844600 0.647680
C390 C 0.530900 0.734700 0.684750
C391 C 0.377400 0.096000 0.158800
C392 C 0.604600 0.664100 0.657640
C393 C 0.210600 0.433200 0.205940
C394 C 0.386300 1.292300 0.405060
C395 C 0.303700 1.349900 0.435900
C396 C 0.153800 0.340900 0.241900
C397 C 0.241800 0.098300 0.225800
C398 C 0.202900 1.338900 0.516530
C399 C 0.137600 1.221000 0.532200
C400 C 0.062400 1.269700 0.565000
C401 C 0.169500 0.174600 0.254100
C402 C 0.051600 1.432800 0.582200
C403 C 0.117100 1.545500 0.565900
C404 C 0.622600 0.904000 0.841200
N405 N 0.479300 0.875400 0.585250
N406 N 0.450700 1.193900 0.441440
N407 N 0.645500 0.562100 0.852010
N408 N 0.549300 -0.193900 0.558560
N409 N 0.354500 0.437900 0.147990
N410 N 0.549300 0.693900 0.058560
N411 N 0.520700 0.375400 -0.085250
N412 N 0.718100 0.781000 0.013380
N413 N 0.645500 0.937900 0.352010
N414 N 0.645500 0.562100 -0.147990
N415 N 0.718100 0.719000 0.513380
N416 N 0.520700 1.124600 0.414750
N417 N 0.549300 0.806100 0.558560
N418 N 0.450700 0.306100 -0.058560
N419 N 0.479300 0.624600 0.085250
N420 N 0.354500 1.062100 0.647990
N421 N 0.450700 0.306100 0.941440
N422 N 0.479300 0.624600 1.085250
N423 N 0.354500 0.062100 0.647990
N424 N 0.281900 0.219000 0.986620
N425 N 0.281900 0.281000 0.486620
N426 N 0.354500 0.437900 1.147990
N427 N 0.479300 -0.124600 0.585250
N428 N 0.450700 0.193900 0.441440
N429 N 0.520700 0.124600 0.414750
N430 N 0.718100 -0.281000 0.513380
N431 N 0.281900 0.219000 -0.013380
N432 N 0.549300 0.693900 1.058560
N433 N 0.520700 0.375400 0.914750
N434 N 0.645500 -0.062100 0.352010
N435 N 0.718100 0.781000 1.013380
N436 N 0.281900 1.281000 0.486620
F437 F 0.720610 0.320400 0.651940
F438 F 0.279390 0.820400 0.848060
F439 F 0.674800 0.065300 0.617450
F440 F 0.399790 0.689400 0.805850
F441 F 0.600210 0.189400 0.694150
F442 F 0.574340 0.218300 0.090240
F443 F 0.674800 0.434700 0.117450
F444 F 0.600210 0.310600 0.194150
F445 F 0.720610 0.179600 0.151940
F446 F 0.325200 0.565300 0.882550
F447 F 0.425660 0.718300 0.409760
F448 F 0.325200 0.934700 0.382550
F449 F 0.399790 0.810600 0.305850
F450 F 0.279390 0.679600 0.348060
F451 F 0.574340 0.281700 0.590240
F452 F 0.425660 0.781700 0.909760
Ag453 Ag 0.599610 0.899030 0.461369
Ag454 Ag 0.400390 0.100970 0.538631
Ag455 Ag 0.599610 -0.100970 0.461369
Ag456 Ag 0.599610 0.600970 0.961369
Ag457 Ag 0.400390 0.399030 1.038631
Ag458 Ag 0.599610 0.600970 -0.038631
Ag459 Ag 0.400390 0.399030 0.038631
Ag460 Ag 0.400390 1.100970 0.538631

#END
