./ACINDN_from_POSCAR.cif_generated_by_CrystalShift
_symmetry_cell_setting triclinic
_symmetry_space_group_name_H-M 'P 1'
loop_
_symmetry_equiv_pos_site_id
_symmetry_equiv_pos_as_xyz
1 x,y,z
_cell_length_a 5.305000
_cell_length_b 7.314000
_cell_length_c 23.214000
_cell_angle_alpha 90.000000
_cell_angle_beta 94.940000
_cell_angle_gamma 90.000000
_cell_volume 897.375275
loop_
_atom_site_label
_atom_site_type_symbol
_atom_site_fract_x
_atom_site_fract_y
_atom_site_fract_z
H1 H 0.236000 -0.359000 0.032000
H2 H 0.382000 -0.474000 0.056000
H3 H 1.118000 0.026000 0.444000
H4 H 1.264000 0.207000 0.398000
H5 H 0.236000 -0.293000 0.102000
H6 H 0.712000 0.398000 0.477000
H7 H 1.178000 0.765000 0.276000
H8 H 0.941000 1.050000 0.258000
H9 H 0.623000 1.137000 0.314000
H10 H 0.526000 0.911000 0.384000
H11 H 0.974000 0.411000 0.116000
H12 H 0.764000 1.359000 0.968000
H13 H 0.788000 -0.102000 0.023000
H14 H 0.618000 1.474000 0.944000
H15 H 0.474000 0.089000 0.616000
H16 H 0.377000 -0.137000 0.686000
H17 H 0.059000 -0.050000 0.742000
H18 H -0.178000 0.235000 0.724000
H19 H 0.288000 0.602000 0.523000
H20 H -0.264000 0.793000 0.602000
H21 H -0.118000 0.974000 0.556000
H22 H -0.264000 0.859000 0.532000
H23 H 0.764000 1.293000 0.898000
H24 H 0.322000 0.265000 0.224000
H25 H 0.212000 1.102000 0.977000
H26 H 0.678000 0.735000 0.776000
H27 H 0.559000 0.550000 0.242000
H28 H 0.441000 0.450000 0.758000
H29 H 0.123000 0.363000 0.814000
H30 H 0.026000 0.589000 0.884000
H31 H 0.877000 0.637000 0.186000
H32 H 1.264000 0.141000 0.468000
C33 C 0.280100 0.767600 0.871100
C34 C 0.477000 0.813300 0.837800
C35 C 0.537900 0.693300 0.794500
C36 C 0.675200 1.341200 0.933500
C37 C 0.404600 0.534900 0.786100
C38 C 0.207800 0.489600 0.819700
C39 C 0.148200 0.609200 0.862800
C40 C 0.255900 0.915200 0.913800
C41 C 0.444400 1.053300 0.904800
C42 C 0.585700 0.992300 0.855600
C43 C -0.175200 0.841200 0.566500
C44 C 0.020500 0.700600 0.561000
C45 C 1.085700 0.507700 0.355600
C46 C 0.219900 0.267600 0.628900
C47 C 0.944400 0.446700 0.404800
C48 C 0.755900 0.584800 0.413800
C49 C 0.324800 -0.341200 0.066500
C50 C 0.648200 0.890800 0.362800
C51 C 0.707800 1.010400 0.319700
C52 C 0.904600 0.965100 0.286100
C53 C 1.037900 0.806700 0.294500
C54 C 0.977000 0.686700 0.337800
C55 C 0.780100 0.732400 0.371100
C56 C 0.979500 0.299400 0.439000
C57 C 0.520500 -0.200600 0.061000
C58 C 1.175200 0.158800 0.433500
C59 C 0.023000 0.313300 0.662200
C60 C -0.037900 0.193300 0.705500
C61 C 0.095400 0.034900 0.713900
C62 C 0.292200 -0.010400 0.680300
C63 C 0.351800 0.109200 0.637200
C64 C 0.244100 0.415200 0.586200
C65 C 0.055600 0.553300 0.595200
C66 C 0.479500 1.200600 0.939000
C67 C 0.414300 0.007700 0.144400
C68 C 0.719900 0.232400 0.128900
C69 C 0.555600 -0.053300 0.095200
C70 C 0.744100 0.084800 0.086200
C71 C 0.523000 0.186700 0.162200
C72 C 0.851800 0.390800 0.137200
C73 C 0.792200 0.510400 0.180300
C74 C 0.595400 0.465100 0.213900
C75 C 0.462100 0.306700 0.205500
C76 C -0.085700 0.492300 0.644400
O77 O 0.243800 -0.070700 0.165900
O78 O 0.833600 0.269300 0.483000
O79 O 0.666400 -0.230700 0.017000
O80 O 0.600900 0.580300 0.450700
O81 O 1.256200 0.429300 0.334100
O82 O 0.333600 1.230700 0.983000
O83 O 0.100900 0.919700 0.950700
O84 O 0.756200 1.070700 0.834100
O85 O 0.166400 0.730700 0.517000
O86 O 0.399100 0.419700 0.549300
O87 O -0.256200 0.570700 0.665900
O88 O 0.899100 0.080300 0.049300

#END
