./ACIPOR_from_POSCAR.cif_generated_by_CrystalShift
_symmetry_cell_setting triclinic
_symmetry_space_group_name_H-M 'P 1'
loop_
_symmetry_equiv_pos_site_id
_symmetry_equiv_pos_as_xyz
1 x,y,z
_cell_length_a 10.024500
_cell_length_b 12.779700
_cell_length_c 19.037000
_cell_angle_alpha 90.000000
_cell_angle_beta 90.000000
_cell_angle_gamma 90.000000
_cell_volume 2438.832024
loop_
_atom_site_label
_atom_site_type_symbol
_atom_site_fract_x
_atom_site_fract_y
_atom_site_fract_z
H1 H 0.093700 -0.144100 0.104800
H2 H 0.212500 0.734400 -0.018100
H3 H 0.983100 0.343600 0.919000
H4 H 0.334600 0.653900 -0.022500
H5 H 1.011400 0.166400 0.941200
H6 H 0.315500 0.388300 0.473500
H7 H 0.827500 0.054900 0.944300
H8 H 0.287500 0.265600 0.481900
H9 H 0.613600 0.124600 0.929400
H10 H 0.165400 0.346100 0.477500
H11 H 0.585500 0.302500 0.908400
H12 H 0.684500 0.888300 1.026500
H13 H 0.712500 0.765600 1.018100
H14 H 0.956500 0.537900 0.993300
H15 H 0.834600 0.846100 1.022500
H16 H 0.948200 0.605300 1.106400
H17 H 0.815500 0.111700 0.526500
H18 H 0.742700 0.628500 1.162700
H19 H 0.787500 0.234400 0.518100
H20 H 0.546800 0.581100 1.104200
H21 H 0.665400 0.153900 0.522500
H22 H 0.556000 0.514200 0.991300
H23 H 0.249200 0.702500 0.241500
H24 H 0.222400 0.906000 0.385200
H25 H 0.628800 0.374100 0.787700
H26 H 0.208300 0.737600 0.443900
H27 H 0.461000 0.427600 0.712100
H28 H 0.226700 0.606200 0.351100
H29 H 0.359400 0.590600 0.726200
H30 H 0.248500 0.886400 0.261100
H31 H 0.425900 0.698300 0.819200
H32 H 0.250800 0.297500 0.741500
H33 H 0.593700 0.644100 0.895200
H34 H 0.277600 0.094000 0.885200
H35 H 0.291700 0.262400 0.943900
H36 H 0.891100 0.665600 0.896700
H37 H 0.273300 0.393800 0.851100
H38 H 1.038000 0.746600 0.821000
H39 H 0.251500 0.113600 0.761100
H40 H 1.130800 0.653700 0.726700
H41 H 0.749200 0.797500 0.758500
H42 H 1.076800 0.477400 0.712700
H43 H 0.722400 0.594000 0.614800
H44 H 0.925700 0.396900 0.788000
H45 H 0.708300 0.762400 0.556100
H46 H 0.726700 0.893800 0.648900
H47 H 0.748500 0.613600 0.738900
H48 H 0.516900 0.656400 0.419000
H49 H 0.750800 0.202500 0.258500
H50 H 0.488600 0.833600 0.441200
H51 H 0.777600 0.406000 0.114800
H52 H 0.672500 0.945100 0.444300
H53 H 0.791700 0.237600 0.056100
H54 H 0.886400 0.875400 0.429400
H55 H 0.773300 0.106200 0.148900
H56 H 0.914500 0.697500 0.408400
H57 H 0.751500 0.386400 0.238900
H58 H 0.074300 0.896900 0.712000
H59 H 0.543500 0.462100 0.493300
H60 H -0.076800 0.977400 0.787300
H61 H 0.551800 0.394700 0.606400
H62 H -0.130800 1.153700 0.773300
H63 H 0.757300 0.371500 0.662700
H64 H -0.038000 1.246600 0.679000
H65 H 0.953200 0.418900 0.604200
H66 H 0.108900 1.165600 0.603300
H67 H 0.944000 0.485800 0.491300
H68 H 0.406300 1.144100 0.604800
H69 H 0.574100 1.198300 0.680800
H70 H 0.871200 0.625900 0.287700
H71 H 0.640600 1.090600 0.773800
H72 H 1.039000 0.572400 0.212100
H73 H 0.539000 0.927600 0.787900
H74 H 1.140600 0.409400 0.226200
H75 H 0.371200 0.874100 0.712300
H76 H 1.074100 0.301700 0.319200
H77 H 0.444000 1.014200 0.508700
H78 H 0.906300 0.355900 0.395200
H79 H 0.453200 1.081100 0.395800
H80 H 0.257300 1.128500 0.337300
H81 H 0.608900 0.334400 0.396700
H82 H 0.051800 1.105300 0.393600
H83 H 0.462000 0.253400 0.321000
H84 H 0.043500 1.037900 0.506700
H85 H 0.369200 0.346300 0.226700
H86 H 0.414500 0.802500 0.591600
H87 H 0.423200 0.522600 0.212700
H88 H 0.386400 0.624600 0.570600
H89 H 0.574300 0.603100 0.288000
H90 H 0.172500 0.554900 0.555700
H91 H -0.011400 0.666400 0.558800
H92 H 0.016900 0.843600 0.581000
H93 H 0.483100 0.156400 0.081000
H94 H 0.425700 0.103100 0.212000
H95 H 0.511400 0.333600 0.058800
H96 H 0.576800 0.022600 0.287300
H97 H 0.327500 0.445100 0.055700
H98 H 0.630800 -0.153700 0.273300
H99 H 0.113600 0.375400 0.070600
H100 H 0.538000 -0.246600 0.179000
H101 H 0.085500 0.197500 0.091600
H102 H 0.391100 -0.165600 0.103300
H103 H 0.184500 0.611700 -0.026500
H104 H 0.456500 -0.037900 0.006700
H105 H -0.074100 -0.198300 0.180800
H106 H 0.448200 -0.105300 -0.106400
H107 H -0.140600 -0.090600 0.273800
H108 H 0.242700 -0.128500 -0.162700
H109 H -0.039000 0.072400 0.287900
H110 H 0.046800 -0.081100 -0.104200
H111 H 0.128800 0.125900 0.212300
H112 H 0.056000 -0.014200 0.008700
B113 B 0.764200 0.471040 0.897740
B114 B 0.235800 0.971040 0.602260
B115 B 0.735800 0.528960 0.397740
B116 B 0.264200 0.028960 0.102260
C117 C 0.130700 -0.073070 -0.081660
C118 C -0.072600 -0.068500 0.242350
C119 C 0.246400 -0.100730 -0.116470
C120 C -0.032900 -0.132100 0.187520
C121 C 0.367700 -0.087310 -0.082940
C122 C 0.067800 -0.099130 0.142100
C123 C 0.372050 -0.047530 -0.015010
C124 C 0.387590 -0.021440 0.148310
C125 C 0.427000 -0.126150 0.141140
C126 C 0.257030 -0.021110 0.022640
C127 C 0.515400 -0.175200 0.186190
C128 C 0.173200 0.224370 0.085830
C129 C 0.571000 -0.120370 0.241680
C130 C 0.189500 0.331010 0.072960
C131 C 0.537900 -0.016580 0.250170
C132 C 0.315800 0.372250 0.063660
C133 C 0.447460 0.031630 0.204610
C134 C 0.424300 0.306500 0.066170
C135 C -0.011900 0.027600 0.250700
C136 C 0.218790 0.844570 0.590520
C137 C 0.093300 0.799720 0.579410
C138 C 0.406700 0.200280 0.079410
C139 C 0.075700 0.693500 0.566170
C140 C 0.281210 0.155430 0.090520
C141 C 0.184200 0.627750 0.563660
C142 C 0.136810 -0.033590 -0.013930
C143 C 0.310500 0.668990 0.572960
C144 C 0.552540 0.531630 0.295390
C145 C 0.326800 0.775630 0.585830
C146 C 0.462100 0.483420 0.249830
C147 C 0.088380 0.059480 0.205150
C148 C 0.127950 1.047530 0.484990
C149 C 0.429000 0.379630 0.258320
C150 C 0.132300 1.087310 0.417060
C151 C 0.484600 0.324800 0.313810
C152 C 0.253600 1.100730 0.383530
C153 C 0.573000 0.373850 0.358860
C154 C 0.369300 1.073070 0.418340
C155 C 0.612410 0.478560 0.351690
C156 C 0.363190 1.033590 0.486070
C157 C 0.932200 0.400870 0.357900
C158 C 0.367720 1.002490 0.649150
C159 C 0.411620 0.940520 0.705150
C160 C 1.032900 0.367900 0.312480
C161 C 0.511900 0.972400 0.750700
C162 C 1.072600 0.431500 0.257650
C163 C 0.572600 1.068500 0.742350
C164 C 1.011900 0.527600 0.249300
C165 C 0.532900 1.132100 0.687520
C166 C 0.911620 0.559480 0.294850
C167 C 0.432200 1.099130 0.642100
C168 C 0.867720 0.497510 0.350850
C169 C 0.112410 1.021440 0.648310
C170 C 0.073000 1.126150 0.641140
C171 C 0.863190 0.466410 0.513930
C172 C -0.015400 1.175200 0.686190
C173 C 0.869300 0.426930 0.581660
C174 C -0.071000 1.120370 0.741680
C175 C 0.753600 0.399270 0.616470
C176 C -0.037900 1.016580 0.750170
C177 C 0.632300 0.412690 0.582940
C178 C 0.052540 0.968370 0.704610
C179 C 0.627950 0.452470 0.515010
C180 C 0.242970 1.021110 0.522640
C181 C 0.759500 0.332490 0.204850
C182 C 0.742970 0.478890 0.477360
C183 C 0.771600 0.179970 0.154910
C184 C 0.826800 0.724370 0.414170
C185 C 0.781300 0.250540 0.104920
C186 C 0.810500 0.831010 0.427040
C187 C 0.906700 0.299720 0.920590
C188 C 0.684200 0.872250 0.436340
C189 C 0.924300 0.193500 0.933830
C190 C 0.575700 0.806500 0.433830
C191 C 0.740500 0.667510 0.704850
C192 C 0.593300 0.700280 0.420590
C193 C 0.728400 0.820030 0.654910
C194 C 0.718790 0.655430 0.409480
C195 C 0.718700 0.749460 0.604920
C196 C 0.132280 -0.002490 0.149150
C197 C 0.243400 0.664100 -0.005290
C198 C 0.947460 0.468370 0.795390
C199 C 0.241200 0.652940 0.070290
C200 C 1.037900 0.516580 0.749830
C201 C 0.259500 0.167510 0.795150
C202 C 1.071000 0.620370 0.758320
C203 C 0.271600 0.320030 0.845090
C204 C 1.015400 0.675200 0.813810
C205 C 0.281300 0.249460 0.895080
C206 C 0.927000 0.626150 0.858860
C207 C 0.815800 0.127750 0.936340
C208 C 0.887590 0.521440 0.851690
C209 C 0.689500 0.168990 0.927040
C210 C 0.567800 0.599130 0.857900
C211 C 0.240500 0.832490 0.295150
C212 C 0.467100 0.632100 0.812480
C213 C 0.228400 0.679970 0.345090
C214 C 0.427400 0.568500 0.757650
C215 C 0.218700 0.750540 0.395080
C216 C 0.488100 0.472400 0.749300
C217 C 0.673200 0.275630 0.914170
C218 C 0.588380 0.440520 0.794850
C219 C 0.256600 0.335900 0.494710
C220 C 0.632280 0.502490 0.850850
C221 C 0.258800 0.347060 0.570290
C222 C 0.758800 0.152940 0.429710
C223 C 0.756600 0.164100 0.505290
C224 C 0.636810 0.533590 1.013930
C225 C 0.630700 0.573070 1.081660
C226 C 0.746400 0.600730 1.116470
C227 C 0.757030 0.521110 0.977360
C228 C 0.741200 0.847060 0.929710
C229 C 0.743400 0.835900 1.005290
C230 C 0.867700 0.587310 1.082940
C231 C 0.872050 0.547530 1.015010
C232 C 0.781210 0.344570 0.909480
N233 N 0.259100 0.354800 0.629600
N234 N 0.759100 0.145200 0.370400
N235 N 0.241380 0.731960 0.283090
N236 N 0.226280 0.845280 0.363520
N237 N 0.258620 0.268040 0.783090
N238 N 0.273720 0.154720 0.863520
N239 N 0.240900 0.645200 0.129600
N240 N 0.741380 0.768040 0.716910
N241 N 0.726280 0.654720 0.636480
N242 N 0.758620 0.231960 0.216910
N243 N 0.773720 0.345280 0.136480
N244 N 0.740900 0.854800 0.870400

#END
