
#######################################################################
#
#                 Cambridge Crystallographic Data Centre
#                                CCDC 
#
#######################################################################
#
# If this CIF has been generated from an entry in the Cambridge 
# Structural Database, then it will include bibliographic, chemical, 
# crystal, experimental, refinement or atomic coordinate data resulting 
# from the CCDC's data processing and validation procedures.
#
#######################################################################

data_ACIREL
_symmetry_cell_setting           triclinic
_symmetry_space_group_name_H-M   'P -1'
_symmetry_Int_Tables_number      2
_space_group_name_Hall           '-P 1'
loop_
_symmetry_equiv_pos_site_id
_symmetry_equiv_pos_as_xyz
1 x,y,z
2 -x,-y,-z
_cell_length_a                   4.5306(10)
_cell_length_b                   8.2058(18)
_cell_length_c                   11.009(2)
_cell_angle_alpha                73.492(2)
_cell_angle_beta                 82.107(3)
_cell_angle_gamma                75.042(3)
_cell_volume                     378.211
loop_
_atom_site_label
_atom_site_type_symbol
_atom_site_fract_x
_atom_site_fract_y
_atom_site_fract_z
I1 I 0.31187(9) 0.23854(5) 0.57271(3)
C1 C 0.0834(13) 0.2018(7) 0.3317(6)
H1 H 0.0039 0.1056 0.3748
C2 C 0.2283(12) 0.2926(7) 0.3838(5)
C3 C 0.3018(15) 0.4236(7) 0.2832(6)
H2 H 0.4018 0.5057 0.2906
C4 C -0.0163(13) 0.2219(8) 0.1082(6)
H3 H -0.1026 0.3229 0.0419
H4 H -0.1745 0.1583 0.1442
C5 C 0.2474(12) 0.1065(7) 0.0517(5)
C6 C 0.3405(13) -0.0706(7) 0.1089(5)
H5 H 0.2337 -0.1196 0.1828
C7 C 0.5879(14) -0.1760(8) 0.0589(6)
H6 H 0.6449 -0.2944 0.0994
N1 N 0.0801(11) 0.2800(6) 0.2068(5)
N2 N 0.2130(12) 0.4187(6) 0.1745(5)
I1A I 0.68813(9) -0.23854(5) -0.57271(3)
C1A C 0.9166(13) -0.2018(7) -0.3317(6)
H1A H 0.9961 -0.1056 -0.3748
C2A C 0.7717(12) -0.2926(7) -0.3838(5)
C3A C 0.6982(15) -0.4236(7) -0.2832(6)
H2A H 0.5982 -0.5057 -0.2906
C4A C 1.0163(13) -0.2219(8) -0.1082(6)
H3A H 1.1026 -0.3229 -0.0419
H4A H 1.1745 -0.1583 -0.1442
C5A C 0.7526(12) -0.1065(7) -0.0517(5)
C6A C 0.6595(13) 0.0706(7) -0.1089(5)
H5A H 0.7663 0.1196 -0.1828
C7A C 0.4121(14) 0.1760(8) -0.0589(6)
H6A H 0.3551 0.2944 -0.0994
N1A N 0.9199(11) -0.2800(6) -0.2068(5)
N2A N 0.7870(12) -0.4187(6) -0.1745(5)
I1 I 0.31187(9) 0.23854(5) 1.57271(3)
C1 C 0.0834(13) 0.2018(7) 1.3317(6)
H1 H 0.0039 0.1056 1.3748
C2 C 0.2283(12) 0.2926(7) 1.3838(5)
C3 C 0.3018(15) 0.4236(7) 1.2832(6)
H2 H 0.4018 0.5057 1.2906
C4 C -0.0163(13) 0.2219(8) 1.1082(6)
H3 H -0.1026 0.3229 1.0419
H4 H -0.1745 0.1583 1.1442
C5 C 0.2474(12) 0.1065(7) 1.0517(5)
C6 C 0.3405(13) -0.0706(7) 1.1089(5)
H5 H 0.2337 -0.1196 1.1828
C7 C 0.5879(14) -0.1760(8) 1.0589(6)
H6 H 0.6449 -0.2944 1.0994
N1 N 0.0801(11) 0.2800(6) 1.2068(5)
N2 N 0.2130(12) 0.4187(6) 1.1745(5)
I1A I 0.68813(9) -0.23854(5) 0.42729(3)
C1A C 0.9166(13) -0.2018(7) 0.6683(6)
H1A H 0.9961 -0.1056 0.6252
C2A C 0.7717(12) -0.2926(7) 0.6162(5)
C3A C 0.6982(15) -0.4236(7) 0.7168(6)
H2A H 0.5982 -0.5057 0.7094
C4A C 1.0163(13) -0.2219(8) 0.8918(6)
H3A H 1.1026 -0.3229 0.9581
H4A H 1.1745 -0.1583 0.8558
C5A C 0.7526(12) -0.1065(7) 0.9483(5)
C6A C 0.6595(13) 0.0706(7) 0.8911(5)
H5A H 0.7663 0.1196 0.8172
C7A C 0.4121(14) 0.1760(8) 0.9411(6)
H6A H 0.3551 0.2944 0.9006
N1A N 0.9199(11) -0.2800(6) 0.7932(5)
N2A N 0.7870(12) -0.4187(6) 0.8255(5)
I1 I 0.31187(9) 1.23854(5) 0.57271(3)
C1 C 0.0834(13) 1.2018(7) 0.3317(6)
H1 H 0.0039 1.1056 0.3748
C2 C 0.2283(12) 1.2926(7) 0.3838(5)
C3 C 0.3018(15) 1.4236(7) 0.2832(6)
H2 H 0.4018 1.5057 0.2906
C4 C -0.0163(13) 1.2219(8) 0.1082(6)
H3 H -0.1026 1.3229 0.0419
H4 H -0.1745 1.1583 0.1442
C5 C 0.2474(12) 1.1065(7) 0.0517(5)
C6 C 0.3405(13) 0.9294(7) 0.1089(5)
H5 H 0.2337 0.8804 0.1828
C7 C 0.5879(14) 0.8240(8) 0.0589(6)
H6 H 0.6449 0.7056 0.0994
N1 N 0.0801(11) 1.2800(6) 0.2068(5)
N2 N 0.2130(12) 1.4187(6) 0.1745(5)
I1A I 0.68813(9) 0.76146(5) -0.57271(3)
C1A C 0.9166(13) 0.7982(7) -0.3317(6)
H1A H 0.9961 0.8944 -0.3748
C2A C 0.7717(12) 0.7074(7) -0.3838(5)
C3A C 0.6982(15) 0.5764(7) -0.2832(6)
H2A H 0.5982 0.4943 -0.2906
C4A C 1.0163(13) 0.7781(8) -0.1082(6)
H3A H 1.1026 0.6771 -0.0419
H4A H 1.1745 0.8417 -0.1442
C5A C 0.7526(12) 0.8935(7) -0.0517(5)
C6A C 0.6595(13) 1.0706(7) -0.1089(5)
H5A H 0.7663 1.1196 -0.1828
C7A C 0.4121(14) 1.1760(8) -0.0589(6)
H6A H 0.3551 1.2944 -0.0994
N1A N 0.9199(11) 0.7200(6) -0.2068(5)
N2A N 0.7870(12) 0.5813(6) -0.1745(5)
I1 I 0.31187(9) 1.23854(5) 1.57271(3)
C1 C 0.0834(13) 1.2018(7) 1.3317(6)
H1 H 0.0039 1.1056 1.3748
C2 C 0.2283(12) 1.2926(7) 1.3838(5)
C3 C 0.3018(15) 1.4236(7) 1.2832(6)
H2 H 0.4018 1.5057 1.2906
C4 C -0.0163(13) 1.2219(8) 1.1082(6)
H3 H -0.1026 1.3229 1.0419
H4 H -0.1745 1.1583 1.1442
C5 C 0.2474(12) 1.1065(7) 1.0517(5)
C6 C 0.3405(13) 0.9294(7) 1.1089(5)
H5 H 0.2337 0.8804 1.1828
C7 C 0.5879(14) 0.8240(8) 1.0589(6)
H6 H 0.6449 0.7056 1.0994
N1 N 0.0801(11) 1.2800(6) 1.2068(5)
N2 N 0.2130(12) 1.4187(6) 1.1745(5)
I1A I 0.68813(9) 0.76146(5) 0.42729(3)
C1A C 0.9166(13) 0.7982(7) 0.6683(6)
H1A H 0.9961 0.8944 0.6252
C2A C 0.7717(12) 0.7074(7) 0.6162(5)
C3A C 0.6982(15) 0.5764(7) 0.7168(6)
H2A H 0.5982 0.4943 0.7094
C4A C 1.0163(13) 0.7781(8) 0.8918(6)
H3A H 1.1026 0.6771 0.9581
H4A H 1.1745 0.8417 0.8558
C5A C 0.7526(12) 0.8935(7) 0.9483(5)
C6A C 0.6595(13) 1.0706(7) 0.8911(5)
H5A H 0.7663 1.1196 0.8172
C7A C 0.4121(14) 1.1760(8) 0.9411(6)
H6A H 0.3551 1.2944 0.9006
N1A N 0.9199(11) 0.7200(6) 0.7932(5)
N2A N 0.7870(12) 0.5813(6) 0.8255(5)

#END
