
#######################################################################
#
#                 Cambridge Crystallographic Data Centre
#                                CCDC 
#
#######################################################################
#
# If this CIF has been generated from an entry in the Cambridge 
# Structural Database, then it will include bibliographic, chemical, 
# crystal, experimental, refinement or atomic coordinate data resulting 
# from the CCDC's data processing and validation procedures.
#
#######################################################################

data_ACISAI
_symmetry_cell_setting           monoclinic
_symmetry_space_group_name_H-M   'P 21/c'
_symmetry_Int_Tables_number      14
_space_group_name_Hall           '-P 2ybc'
loop_
_symmetry_equiv_pos_site_id
_symmetry_equiv_pos_as_xyz
1 x,y,z
2 -x,1/2+y,1/2-z
3 -x,-y,-z
4 x,1/2-y,1/2+z
_cell_length_a                   11.151(2)
_cell_length_b                   4.5954(9)
_cell_length_c                   14.707(3)
_cell_angle_alpha                90
_cell_angle_beta                 106.20(3)
_cell_angle_gamma                90
_cell_volume                     723.711
loop_
_atom_site_label
_atom_site_type_symbol
_atom_site_fract_x
_atom_site_fract_y
_atom_site_fract_z
C1 C 0.0583(2) 0.0513(5) 0.09390(16)
H1 H 0.0984 0.0852 0.1575
C2 C -0.0533(2) 0.1893(5) 0.05189(16)
C3 C -0.1114(2) 0.1368(5) -0.04268(16)
H2 H -0.1866 0.2284 -0.0721
C4 C -0.1105(2) 0.3917(5) 0.10897(18)
H3 H -0.0471 0.4502 0.1658
H4 H -0.1405 0.5654 0.0721
C5 C -0.3003(2) -0.0361(6) 0.21097(17)
H5 H -0.3135 -0.1750 0.2531
C6 C -0.3942(2) 0.1082(5) 0.14487(15)
C7 C -0.3356(2) 0.2939(5) 0.09792(16)
H6 H -0.3733 0.4218 0.0494
N1 N -0.21462(17) 0.2538(4) 0.13572(13)
N2 N -0.18929(19) 0.0501(5) 0.20603(14)
N3 N -0.52490(19) 0.0782(5) 0.12930(15)
O1 O -0.56337(17) -0.1030(5) 0.17508(14)
O2 O -0.59483(18) 0.2365(5) 0.07121(15)
C1B C -0.0583(2) -0.0513(5) -0.09390(16)
H1B H -0.0984 -0.0852 -0.1575
C2B C 0.0533(2) -0.1893(5) -0.05189(16)
C3B C 0.1114(2) -0.1368(5) 0.04268(16)
H2B H 0.1866 -0.2284 0.0721
C4B C 0.1105(2) -0.3917(5) -0.10897(18)
H3B H 0.0471 -0.4502 -0.1658
H4B H 0.1405 -0.5654 -0.0721
C5B C 0.3003(2) 0.0361(6) -0.21097(17)
H5B H 0.3135 0.1750 -0.2531
C6B C 0.3942(2) -0.1082(5) -0.14487(15)
C7B C 0.3356(2) -0.2939(5) -0.09792(16)
H6B H 0.3733 -0.4218 -0.0494
N1B N 0.21462(17) -0.2538(4) -0.13572(13)
N2B N 0.18929(19) -0.0501(5) -0.20603(14)
N3B N 0.52490(19) -0.0782(5) -0.12930(15)
O1B O 0.56337(17) 0.1030(5) -0.17508(14)
O2B O 0.59483(18) -0.2365(5) -0.07121(15)
C1 C 0.0583(2) 0.0513(5) 1.09390(16)
H1 H 0.0984 0.0852 1.1575
C2 C -0.0533(2) 0.1893(5) 1.05189(16)
C3 C -0.1114(2) 0.1368(5) 0.95732(16)
H2 H -0.1866 0.2284 0.9279
C4 C -0.1105(2) 0.3917(5) 1.10897(18)
H3 H -0.0471 0.4502 1.1658
H4 H -0.1405 0.5654 1.0721
C5 C -0.3003(2) -0.0361(6) 1.21097(17)
H5 H -0.3135 -0.1750 1.2531
C6 C -0.3942(2) 0.1082(5) 1.14487(15)
C7 C -0.3356(2) 0.2939(5) 1.09792(16)
H6 H -0.3733 0.4218 1.0494
N1 N -0.21462(17) 0.2538(4) 1.13572(13)
N2 N -0.18929(19) 0.0501(5) 1.20603(14)
N3 N -0.52490(19) 0.0782(5) 1.12930(15)
O1 O -0.56337(17) -0.1030(5) 1.17508(14)
O2 O -0.59483(18) 0.2365(5) 1.07121(15)
C1B C -0.0583(2) -0.0513(5) 0.90610(16)
H1B H -0.0984 -0.0852 0.8425
C2B C 0.0533(2) -0.1893(5) 0.94811(16)
C3B C 0.1114(2) -0.1368(5) 1.04268(16)
H2B H 0.1866 -0.2284 1.0721
C4B C 0.1105(2) -0.3917(5) 0.89103(18)
H3B H 0.0471 -0.4502 0.8342
H4B H 0.1405 -0.5654 0.9279
C5B C 0.3003(2) 0.0361(6) 0.78903(17)
H5B H 0.3135 0.1750 0.7469
C6B C 0.3942(2) -0.1082(5) 0.85513(15)
C7B C 0.3356(2) -0.2939(5) 0.90208(16)
H6B H 0.3733 -0.4218 0.9506
N1B N 0.21462(17) -0.2538(4) 0.86428(13)
N2B N 0.18929(19) -0.0501(5) 0.79397(14)
N3B N 0.52490(19) -0.0782(5) 0.87070(15)
O1B O 0.56337(17) 0.1030(5) 0.82492(14)
O2B O 0.59483(18) -0.2365(5) 0.92879(15)
C1 C 0.0583(2) 1.0513(5) 0.09390(16)
H1 H 0.0984 1.0852 0.1575
C2 C -0.0533(2) 1.1893(5) 0.05189(16)
C3 C -0.1114(2) 1.1368(5) -0.04268(16)
H2 H -0.1866 1.2284 -0.0721
C4 C -0.1105(2) 1.3917(5) 0.10897(18)
H3 H -0.0471 1.4502 0.1658
H4 H -0.1405 1.5654 0.0721
C5 C -0.3003(2) 0.9639(6) 0.21097(17)
H5 H -0.3135 0.8250 0.2531
C6 C -0.3942(2) 1.1082(5) 0.14487(15)
C7 C -0.3356(2) 1.2939(5) 0.09792(16)
H6 H -0.3733 1.4218 0.0494
N1 N -0.21462(17) 1.2538(4) 0.13572(13)
N2 N -0.18929(19) 1.0501(5) 0.20603(14)
N3 N -0.52490(19) 1.0782(5) 0.12930(15)
O1 O -0.56337(17) 0.8970(5) 0.17508(14)
O2 O -0.59483(18) 1.2365(5) 0.07121(15)
C1B C -0.0583(2) 0.9487(5) -0.09390(16)
H1B H -0.0984 0.9148 -0.1575
C2B C 0.0533(2) 0.8107(5) -0.05189(16)
C3B C 0.1114(2) 0.8632(5) 0.04268(16)
H2B H 0.1866 0.7716 0.0721
C4B C 0.1105(2) 0.6083(5) -0.10897(18)
H3B H 0.0471 0.5498 -0.1658
H4B H 0.1405 0.4346 -0.0721
C5B C 0.3003(2) 1.0361(6) -0.21097(17)
H5B H 0.3135 1.1750 -0.2531
C6B C 0.3942(2) 0.8918(5) -0.14487(15)
C7B C 0.3356(2) 0.7061(5) -0.09792(16)
H6B H 0.3733 0.5782 -0.0494
N1B N 0.21462(17) 0.7462(4) -0.13572(13)
N2B N 0.18929(19) 0.9499(5) -0.20603(14)
N3B N 0.52490(19) 0.9218(5) -0.12930(15)
O1B O 0.56337(17) 1.1030(5) -0.17508(14)
O2B O 0.59483(18) 0.7635(5) -0.07121(15)
C1 C 0.0583(2) 1.0513(5) 1.09390(16)
H1 H 0.0984 1.0852 1.1575
C2 C -0.0533(2) 1.1893(5) 1.05189(16)
C3 C -0.1114(2) 1.1368(5) 0.95732(16)
H2 H -0.1866 1.2284 0.9279
C4 C -0.1105(2) 1.3917(5) 1.10897(18)
H3 H -0.0471 1.4502 1.1658
H4 H -0.1405 1.5654 1.0721
C5 C -0.3003(2) 0.9639(6) 1.21097(17)
H5 H -0.3135 0.8250 1.2531
C6 C -0.3942(2) 1.1082(5) 1.14487(15)
C7 C -0.3356(2) 1.2939(5) 1.09792(16)
H6 H -0.3733 1.4218 1.0494
N1 N -0.21462(17) 1.2538(4) 1.13572(13)
N2 N -0.18929(19) 1.0501(5) 1.20603(14)
N3 N -0.52490(19) 1.0782(5) 1.12930(15)
O1 O -0.56337(17) 0.8970(5) 1.17508(14)
O2 O -0.59483(18) 1.2365(5) 1.07121(15)
C1B C -0.0583(2) 0.9487(5) 0.90610(16)
H1B H -0.0984 0.9148 0.8425
C2B C 0.0533(2) 0.8107(5) 0.94811(16)
C3B C 0.1114(2) 0.8632(5) 1.04268(16)
H2B H 0.1866 0.7716 1.0721
C4B C 0.1105(2) 0.6083(5) 0.89103(18)
H3B H 0.0471 0.5498 0.8342
H4B H 0.1405 0.4346 0.9279
C5B C 0.3003(2) 1.0361(6) 0.78903(17)
H5B H 0.3135 1.1750 0.7469
C6B C 0.3942(2) 0.8918(5) 0.85513(15)
C7B C 0.3356(2) 0.7061(5) 0.90208(16)
H6B H 0.3733 0.5782 0.9506
N1B N 0.21462(17) 0.7462(4) 0.86428(13)
N2B N 0.18929(19) 0.9499(5) 0.79397(14)
N3B N 0.52490(19) 0.9218(5) 0.87070(15)
O1B O 0.56337(17) 1.1030(5) 0.82492(14)
O2B O 0.59483(18) 0.7635(5) 0.92879(15)
C1 C 1.0583(2) 0.0513(5) 0.09390(16)
H1 H 1.0984 0.0852 0.1575
C2 C 0.9467(2) 0.1893(5) 0.05189(16)
C3 C 0.8886(2) 0.1368(5) -0.04268(16)
H2 H 0.8134 0.2284 -0.0721
C4 C 0.8895(2) 0.3917(5) 0.10897(18)
H3 H 0.9529 0.4502 0.1658
H4 H 0.8595 0.5654 0.0721
C5 C 0.6997(2) -0.0361(6) 0.21097(17)
H5 H 0.6865 -0.1750 0.2531
C6 C 0.6058(2) 0.1082(5) 0.14487(15)
C7 C 0.6644(2) 0.2939(5) 0.09792(16)
H6 H 0.6267 0.4218 0.0494
N1 N 0.78538(17) 0.2538(4) 0.13572(13)
N2 N 0.81071(19) 0.0501(5) 0.20603(14)
N3 N 0.47510(19) 0.0782(5) 0.12930(15)
O1 O 0.43663(17) -0.1030(5) 0.17508(14)
O2 O 0.40517(18) 0.2365(5) 0.07121(15)
C1B C 0.9417(2) -0.0513(5) -0.09390(16)
H1B H 0.9016 -0.0852 -0.1575
C2B C 1.0533(2) -0.1893(5) -0.05189(16)
C3B C 1.1114(2) -0.1368(5) 0.04268(16)
H2B H 1.1866 -0.2284 0.0721
C4B C 1.1105(2) -0.3917(5) -0.10897(18)
H3B H 1.0471 -0.4502 -0.1658
H4B H 1.1405 -0.5654 -0.0721
C5B C 1.3003(2) 0.0361(6) -0.21097(17)
H5B H 1.3135 0.1750 -0.2531
C6B C 1.3942(2) -0.1082(5) -0.14487(15)
C7B C 1.3356(2) -0.2939(5) -0.09792(16)
H6B H 1.3733 -0.4218 -0.0494
N1B N 1.21462(17) -0.2538(4) -0.13572(13)
N2B N 1.18929(19) -0.0501(5) -0.20603(14)
N3B N 1.52490(19) -0.0782(5) -0.12930(15)
O1B O 1.56337(17) 0.1030(5) -0.17508(14)
O2B O 1.59483(18) -0.2365(5) -0.07121(15)
C1 C 1.0583(2) 0.0513(5) 1.09390(16)
H1 H 1.0984 0.0852 1.1575
C2 C 0.9467(2) 0.1893(5) 1.05189(16)
C3 C 0.8886(2) 0.1368(5) 0.95732(16)
H2 H 0.8134 0.2284 0.9279
C4 C 0.8895(2) 0.3917(5) 1.10897(18)
H3 H 0.9529 0.4502 1.1658
H4 H 0.8595 0.5654 1.0721
C5 C 0.6997(2) -0.0361(6) 1.21097(17)
H5 H 0.6865 -0.1750 1.2531
C6 C 0.6058(2) 0.1082(5) 1.14487(15)
C7 C 0.6644(2) 0.2939(5) 1.09792(16)
H6 H 0.6267 0.4218 1.0494
N1 N 0.78538(17) 0.2538(4) 1.13572(13)
N2 N 0.81071(19) 0.0501(5) 1.20603(14)
N3 N 0.47510(19) 0.0782(5) 1.12930(15)
O1 O 0.43663(17) -0.1030(5) 1.17508(14)
O2 O 0.40517(18) 0.2365(5) 1.07121(15)
C1B C 0.9417(2) -0.0513(5) 0.90610(16)
H1B H 0.9016 -0.0852 0.8425
C2B C 1.0533(2) -0.1893(5) 0.94811(16)
C3B C 1.1114(2) -0.1368(5) 1.04268(16)
H2B H 1.1866 -0.2284 1.0721
C4B C 1.1105(2) -0.3917(5) 0.89103(18)
H3B H 1.0471 -0.4502 0.8342
H4B H 1.1405 -0.5654 0.9279
C5B C 1.3003(2) 0.0361(6) 0.78903(17)
H5B H 1.3135 0.1750 0.7469
C6B C 1.3942(2) -0.1082(5) 0.85513(15)
C7B C 1.3356(2) -0.2939(5) 0.90208(16)
H6B H 1.3733 -0.4218 0.9506
N1B N 1.21462(17) -0.2538(4) 0.86428(13)
N2B N 1.18929(19) -0.0501(5) 0.79397(14)
N3B N 1.52490(19) -0.0782(5) 0.87070(15)
O1B O 1.56337(17) 0.1030(5) 0.82492(14)
O2B O 1.59483(18) -0.2365(5) 0.92879(15)
C1 C 1.0583(2) 1.0513(5) 0.09390(16)
H1 H 1.0984 1.0852 0.1575
C2 C 0.9467(2) 1.1893(5) 0.05189(16)
C3 C 0.8886(2) 1.1368(5) -0.04268(16)
H2 H 0.8134 1.2284 -0.0721
C4 C 0.8895(2) 1.3917(5) 0.10897(18)
H3 H 0.9529 1.4502 0.1658
H4 H 0.8595 1.5654 0.0721
C5 C 0.6997(2) 0.9639(6) 0.21097(17)
H5 H 0.6865 0.8250 0.2531
C6 C 0.6058(2) 1.1082(5) 0.14487(15)
C7 C 0.6644(2) 1.2939(5) 0.09792(16)
H6 H 0.6267 1.4218 0.0494
N1 N 0.78538(17) 1.2538(4) 0.13572(13)
N2 N 0.81071(19) 1.0501(5) 0.20603(14)
N3 N 0.47510(19) 1.0782(5) 0.12930(15)
O1 O 0.43663(17) 0.8970(5) 0.17508(14)
O2 O 0.40517(18) 1.2365(5) 0.07121(15)
C1B C 0.9417(2) 0.9487(5) -0.09390(16)
H1B H 0.9016 0.9148 -0.1575
C2B C 1.0533(2) 0.8107(5) -0.05189(16)
C3B C 1.1114(2) 0.8632(5) 0.04268(16)
H2B H 1.1866 0.7716 0.0721
C4B C 1.1105(2) 0.6083(5) -0.10897(18)
H3B H 1.0471 0.5498 -0.1658
H4B H 1.1405 0.4346 -0.0721
C5B C 1.3003(2) 1.0361(6) -0.21097(17)
H5B H 1.3135 1.1750 -0.2531
C6B C 1.3942(2) 0.8918(5) -0.14487(15)
C7B C 1.3356(2) 0.7061(5) -0.09792(16)
H6B H 1.3733 0.5782 -0.0494
N1B N 1.21462(17) 0.7462(4) -0.13572(13)
N2B N 1.18929(19) 0.9499(5) -0.20603(14)
N3B N 1.52490(19) 0.9218(5) -0.12930(15)
O1B O 1.56337(17) 1.1030(5) -0.17508(14)
O2B O 1.59483(18) 0.7635(5) -0.07121(15)
C1 C 1.0583(2) 1.0513(5) 1.09390(16)
H1 H 1.0984 1.0852 1.1575
C2 C 0.9467(2) 1.1893(5) 1.05189(16)
C3 C 0.8886(2) 1.1368(5) 0.95732(16)
H2 H 0.8134 1.2284 0.9279
C4 C 0.8895(2) 1.3917(5) 1.10897(18)
H3 H 0.9529 1.4502 1.1658
H4 H 0.8595 1.5654 1.0721
C5 C 0.6997(2) 0.9639(6) 1.21097(17)
H5 H 0.6865 0.8250 1.2531
C6 C 0.6058(2) 1.1082(5) 1.14487(15)
C7 C 0.6644(2) 1.2939(5) 1.09792(16)
H6 H 0.6267 1.4218 1.0494
N1 N 0.78538(17) 1.2538(4) 1.13572(13)
N2 N 0.81071(19) 1.0501(5) 1.20603(14)
N3 N 0.47510(19) 1.0782(5) 1.12930(15)
O1 O 0.43663(17) 0.8970(5) 1.17508(14)
O2 O 0.40517(18) 1.2365(5) 1.07121(15)
C1B C 0.9417(2) 0.9487(5) 0.90610(16)
H1B H 0.9016 0.9148 0.8425
C2B C 1.0533(2) 0.8107(5) 0.94811(16)
C3B C 1.1114(2) 0.8632(5) 1.04268(16)
H2B H 1.1866 0.7716 1.0721
C4B C 1.1105(2) 0.6083(5) 0.89103(18)
H3B H 1.0471 0.5498 0.8342
H4B H 1.1405 0.4346 0.9279
C5B C 1.3003(2) 1.0361(6) 0.78903(17)
H5B H 1.3135 1.1750 0.7469
C6B C 1.3942(2) 0.8918(5) 0.85513(15)
C7B C 1.3356(2) 0.7061(5) 0.90208(16)
H6B H 1.3733 0.5782 0.9506
N1B N 1.21462(17) 0.7462(4) 0.86428(13)
N2B N 1.18929(19) 0.9499(5) 0.79397(14)
N3B N 1.52490(19) 0.9218(5) 0.87070(15)
O1B O 1.56337(17) 1.1030(5) 0.82492(14)
O2B O 1.59483(18) 0.7635(5) 0.92879(15)
C1 C -0.0583(2) 0.5513(5) 0.40610(16)
H1 H -0.0984 0.5852 0.3425
C2 C 0.0533(2) 0.6893(5) 0.44811(16)
C3 C 0.1114(2) 0.6368(5) 0.54268(16)
H2 H 0.1866 0.7284 0.5721
C4 C 0.1105(2) 0.8917(5) 0.39103(18)
H3 H 0.0471 0.9502 0.3342
H4 H 0.1405 1.0654 0.4279
C5 C 0.3003(2) 0.4639(6) 0.28903(17)
H5 H 0.3135 0.3250 0.2469
C6 C 0.3942(2) 0.6082(5) 0.35513(15)
C7 C 0.3356(2) 0.7939(5) 0.40208(16)
H6 H 0.3733 0.9218 0.4506
N1 N 0.21462(17) 0.7538(4) 0.36428(13)
N2 N 0.18929(19) 0.5501(5) 0.29397(14)
N3 N 0.52490(19) 0.5782(5) 0.37070(15)
O1 O 0.56337(17) 0.3970(5) 0.32492(14)
O2 O 0.59483(18) 0.7365(5) 0.42879(15)
C1B C 0.0583(2) 0.4487(5) 0.59390(16)
H1B H 0.0984 0.4148 0.6575
C2B C -0.0533(2) 0.3107(5) 0.55189(16)
C3B C -0.1114(2) 0.3632(5) 0.45732(16)
H2B H -0.1866 0.2716 0.4279
C4B C -0.1105(2) 0.1083(5) 0.60897(18)
H3B H -0.0471 0.0498 0.6658
H4B H -0.1405 -0.0654 0.5721
C5B C -0.3003(2) 0.5361(6) 0.71097(17)
H5B H -0.3135 0.6750 0.7531
C6B C -0.3942(2) 0.3918(5) 0.64487(15)
C7B C -0.3356(2) 0.2061(5) 0.59792(16)
H6B H -0.3733 0.0782 0.5494
N1B N -0.21462(17) 0.2462(4) 0.63572(13)
N2B N -0.18929(19) 0.4499(5) 0.70603(14)
N3B N -0.52490(19) 0.4218(5) 0.62930(15)
O1B O -0.56337(17) 0.6030(5) 0.67508(14)
O2B O -0.59483(18) 0.2635(5) 0.57121(15)
C1 C 0.9417(2) 0.5513(5) 0.40610(16)
H1 H 0.9016 0.5852 0.3425
C2 C 1.0533(2) 0.6893(5) 0.44811(16)
C3 C 1.1114(2) 0.6368(5) 0.54268(16)
H2 H 1.1866 0.7284 0.5721
C4 C 1.1105(2) 0.8917(5) 0.39103(18)
H3 H 1.0471 0.9502 0.3342
H4 H 1.1405 1.0654 0.4279
C5 C 1.3003(2) 0.4639(6) 0.28903(17)
H5 H 1.3135 0.3250 0.2469
C6 C 1.3942(2) 0.6082(5) 0.35513(15)
C7 C 1.3356(2) 0.7939(5) 0.40208(16)
H6 H 1.3733 0.9218 0.4506
N1 N 1.21462(17) 0.7538(4) 0.36428(13)
N2 N 1.18929(19) 0.5501(5) 0.29397(14)
N3 N 1.52490(19) 0.5782(5) 0.37070(15)
O1 O 1.56337(17) 0.3970(5) 0.32492(14)
O2 O 1.59483(18) 0.7365(5) 0.42879(15)
C1B C 1.0583(2) 0.4487(5) 0.59390(16)
H1B H 1.0984 0.4148 0.6575
C2B C 0.9467(2) 0.3107(5) 0.55189(16)
C3B C 0.8886(2) 0.3632(5) 0.45732(16)
H2B H 0.8134 0.2716 0.4279
C4B C 0.8895(2) 0.1083(5) 0.60897(18)
H3B H 0.9529 0.0498 0.6658
H4B H 0.8595 -0.0654 0.5721
C5B C 0.6997(2) 0.5361(6) 0.71097(17)
H5B H 0.6865 0.6750 0.7531
C6B C 0.6058(2) 0.3918(5) 0.64487(15)
C7B C 0.6644(2) 0.2061(5) 0.59792(16)
H6B H 0.6267 0.0782 0.5494
N1B N 0.78538(17) 0.2462(4) 0.63572(13)
N2B N 0.81071(19) 0.4499(5) 0.70603(14)
N3B N 0.47510(19) 0.4218(5) 0.62930(15)
O1B O 0.43663(17) 0.6030(5) 0.67508(14)
O2B O 0.40517(18) 0.2635(5) 0.57121(15)

#END
