
#######################################################################
#
#                 Cambridge Crystallographic Data Centre
#                                CCDC 
#
#######################################################################
#
# If this CIF has been generated from an entry in the Cambridge 
# Structural Database, then it will include bibliographic, chemical, 
# crystal, experimental, refinement or atomic coordinate data resulting 
# from the CCDC's data processing and validation procedures.
#
#######################################################################

data_ACOBOK01
_symmetry_cell_setting           monoclinic
_symmetry_space_group_name_H-M   'P 21/n'
_symmetry_Int_Tables_number      14
_space_group_name_Hall           '-P 2yn'
loop_
_symmetry_equiv_pos_site_id
_symmetry_equiv_pos_as_xyz
1 x,y,z
2 1/2-x,1/2+y,1/2-z
3 -x,-y,-z
4 1/2+x,1/2-y,1/2+z
_cell_length_a                   11.9803(4)
_cell_length_b                   15.6603(5)
_cell_length_c                   15.3767(6)
_cell_angle_alpha                90
_cell_angle_beta                 99.467(1)
_cell_angle_gamma                90
_cell_volume                     2845.61
loop_
_atom_site_label
_atom_site_type_symbol
_atom_site_fract_x
_atom_site_fract_y
_atom_site_fract_z
Zr1 Zr 0.094731(15) -0.079351(13) 0.069409(13)
H1 H 0.135(4) 0.019(3) 0.136(3)
Si1 Si 0.23538(6) -0.26713(4) -0.06214(5)
Si2 Si 0.41074(4) -0.00265(4) 0.18338(4)
Si3 Si 0.02756(5) 0.00617(4) 0.30284(4)
Si4 Si -0.14879(5) -0.25846(4) 0.04978(4)
O1 O 0.0147(3) 0.0207(2) 0.0191(2)
C1 C 0.30936(16) -0.05542(13) 0.09427(13)
C2 C 0.26264(16) -0.01742(13) 0.01173(13)
H3 H 0.259(2) 0.0404(16) -0.0008(15)
C3 C 0.21979(18) -0.08119(13) -0.04716(13)
H4 H 0.182(2) -0.0709(15) -0.1034(17)
C4 C 0.23656(19) -0.16254(13) -0.00449(14)
C5 C 0.29355(16) -0.14434(13) 0.08219(13)
H5 H 0.3198(19) -0.1885(14) 0.1263(14)
C6 C -0.04331(16) -0.18800(13) 0.11909(12)
C7 C 0.06823(17) -0.21079(13) 0.16100(13)
H6 H 0.1046(19) -0.2588(14) 0.1474(14)
C8 C 0.11062(17) -0.14726(13) 0.22124(13)
H7 H 0.182(2) -0.1486(14) 0.2562(14)
C9 C 0.02805(17) -0.08144(13) 0.22005(13)
C10 C -0.06587(16) -0.10874(13) 0.15687(12)
H8 H -0.134(2) -0.0786(13) 0.1422(15)
C11 C 0.1751(2) -0.35638(16) -0.00444(19)
H9 H 0.2143 -0.3596 0.0567
H10 H 0.1852 -0.4103 -0.0346
H11 H 0.0943 -0.3462 -0.0050
C12 C 0.1541(3) -0.25879(19) -0.17564(18)
H12 H 0.0762 -0.2414 -0.1728
H13 H 0.1536 -0.3144 -0.2050
H14 H 0.1896 -0.2162 -0.2090
C13 C 0.3866(3) -0.2911(2) -0.0651(3)
H15 H 0.4158 -0.2509 -0.1047
H16 H 0.3936 -0.3495 -0.0864
H17 H 0.4304 -0.2856 -0.0056
C14 C 0.5548(2) -0.0320(2) 0.1634(2)
H18 H 0.5661 -0.0102 0.1057
H19 H 0.5628 -0.0942 0.1643
H20 H 0.6116 -0.0069 0.2095
C15 C 0.3946(2) -0.04205(17) 0.29461(15)
H21 H 0.4581 -0.0216 0.3381
H22 H 0.3938 -0.1046 0.2945
H23 H 0.3234 -0.0207 0.3099
C16 C 0.3958(2) 0.11510(15) 0.17539(17)
H24 H 0.3204 0.1316 0.1862
H25 H 0.4057 0.1338 0.1163
H26 H 0.4534 0.1421 0.2195
C17 C 0.1077(2) -0.03282(16) 0.40996(14)
H27 H 0.0744 -0.0865 0.4262
H28 H 0.1039 0.0100 0.4559
H29 H 0.1869 -0.0425 0.4040
C18 C -0.1222(2) 0.02716(17) 0.31541(16)
H30 H -0.1583 -0.0265 0.3282
H31 H -0.1631 0.0516 0.2606
H32 H -0.1239 0.0674 0.3640
C19 C 0.0914(3) 0.10887(18) 0.2736(2)
H33 H 0.0781 0.1532 0.3157
H34 H 0.0565 0.1260 0.2140
H35 H 0.1730 0.1013 0.2757
C20 C -0.29341(19) -0.23015(16) 0.07122(16)
H36 H -0.3103 -0.1707 0.0539
H37 H -0.2964 -0.2371 0.1341
H38 H -0.3493 -0.2678 0.0368
C21 C -0.1471(2) -0.2480(2) -0.07017(15)
H39 H -0.0773 -0.2732 -0.0842
H40 H -0.1504 -0.1874 -0.0865
H41 H -0.2126 -0.2778 -0.1032
C22 C -0.1188(2) -0.37059(16) 0.08577(19)
H42 H -0.1735 -0.4087 0.0508
H43 H -0.1249 -0.3761 0.1483
H44 H -0.0420 -0.3860 0.0772
Zr1B Zr -0.094731(15) 0.079351(13) -0.069409(13)
H1B H -0.135(4) -0.019(3) -0.136(3)
Si1B Si -0.23538(6) 0.26713(4) 0.06214(5)
Si2B Si -0.41074(4) 0.00265(4) -0.18338(4)
Si3B Si -0.02756(5) -0.00617(4) -0.30284(4)
Si4B Si 0.14879(5) 0.25846(4) -0.04978(4)
O1B O -0.0147(3) -0.0207(2) -0.0191(2)
C1B C -0.30936(16) 0.05542(13) -0.09427(13)
C2B C -0.26264(16) 0.01742(13) -0.01173(13)
H3B H -0.259(2) -0.0404(16) 0.0008(15)
C3B C -0.21979(18) 0.08119(13) 0.04716(13)
H4B H -0.182(2) 0.0709(15) 0.1034(17)
C4B C -0.23656(19) 0.16254(13) 0.00449(14)
C5B C -0.29355(16) 0.14434(13) -0.08219(13)
H5B H -0.3198(19) 0.1885(14) -0.1263(14)
C6B C 0.04331(16) 0.18800(13) -0.11909(12)
C7B C -0.06823(17) 0.21079(13) -0.16100(13)
H6B H -0.1046(19) 0.2588(14) -0.1474(14)
C8B C -0.11062(17) 0.14726(13) -0.22124(13)
H7B H -0.182(2) 0.1486(14) -0.2562(14)
C9B C -0.02805(17) 0.08144(13) -0.22005(13)
C10B C 0.06587(16) 0.10874(13) -0.15687(12)
H8B H 0.134(2) 0.0786(13) -0.1422(15)
C11B C -0.1751(2) 0.35638(16) 0.00444(19)
H9B H -0.2143 0.3596 -0.0567
H10B H -0.1852 0.4103 0.0346
H11B H -0.0943 0.3462 0.0050
C12B C -0.1541(3) 0.25879(19) 0.17564(18)
H12B H -0.0762 0.2414 0.1728
H13B H -0.1536 0.3144 0.2050
H14B H -0.1896 0.2162 0.2090
C13B C -0.3866(3) 0.2911(2) 0.0651(3)
H15B H -0.4158 0.2509 0.1047
H16B H -0.3936 0.3495 0.0864
H17B H -0.4304 0.2856 0.0056
C14B C -0.5548(2) 0.0320(2) -0.1634(2)
H18B H -0.5661 0.0102 -0.1057
H19B H -0.5628 0.0942 -0.1643
H20B H -0.6116 0.0069 -0.2095
C15B C -0.3946(2) 0.04205(17) -0.29461(15)
H21B H -0.4581 0.0216 -0.3381
H22B H -0.3938 0.1046 -0.2945
H23B H -0.3234 0.0207 -0.3099
C16B C -0.3958(2) -0.11510(15) -0.17539(17)
H24B H -0.3204 -0.1316 -0.1862
H25B H -0.4057 -0.1338 -0.1163
H26B H -0.4534 -0.1421 -0.2195
C17B C -0.1077(2) 0.03282(16) -0.40996(14)
H27B H -0.0744 0.0865 -0.4262
H28B H -0.1039 -0.0100 -0.4559
H29B H -0.1869 0.0425 -0.4040
C18B C 0.1222(2) -0.02716(17) -0.31541(16)
H30B H 0.1583 0.0265 -0.3282
H31B H 0.1631 -0.0516 -0.2606
H32B H 0.1239 -0.0674 -0.3640
C19B C -0.0914(3) -0.10887(18) -0.2736(2)
H33B H -0.0781 -0.1532 -0.3157
H34B H -0.0565 -0.1260 -0.2140
H35B H -0.1730 -0.1013 -0.2757
C20B C 0.29341(19) 0.23015(16) -0.07122(16)
H36B H 0.3103 0.1707 -0.0539
H37B H 0.2964 0.2371 -0.1341
H38B H 0.3493 0.2678 -0.0368
C21B C 0.1471(2) 0.2480(2) 0.07017(15)
H39B H 0.0773 0.2732 0.0842
H40B H 0.1504 0.1874 0.0865
H41B H 0.2126 0.2778 0.1032
C22B C 0.1188(2) 0.37059(16) -0.08577(19)
H42B H 0.1735 0.4087 -0.0508
H43B H 0.1249 0.3761 -0.1483
H44B H 0.0420 0.3860 -0.0772
Zr1 Zr 0.094731(15) -0.079351(13) 1.069409(13)
H1 H 0.135(4) 0.019(3) 1.136(3)
Si1 Si 0.23538(6) -0.26713(4) 0.93786(5)
Si2 Si 0.41074(4) -0.00265(4) 1.18338(4)
Si3 Si 0.02756(5) 0.00617(4) 1.30284(4)
Si4 Si -0.14879(5) -0.25846(4) 1.04978(4)
O1 O 0.0147(3) 0.0207(2) 1.0191(2)
C1 C 0.30936(16) -0.05542(13) 1.09427(13)
C2 C 0.26264(16) -0.01742(13) 1.01173(13)
H3 H 0.259(2) 0.0404(16) 0.9992(15)
C3 C 0.21979(18) -0.08119(13) 0.95284(13)
H4 H 0.182(2) -0.0709(15) 0.8966(17)
C4 C 0.23656(19) -0.16254(13) 0.99551(14)
C5 C 0.29355(16) -0.14434(13) 1.08219(13)
H5 H 0.3198(19) -0.1885(14) 1.1263(14)
C6 C -0.04331(16) -0.18800(13) 1.11909(12)
C7 C 0.06823(17) -0.21079(13) 1.16100(13)
H6 H 0.1046(19) -0.2588(14) 1.1474(14)
C8 C 0.11062(17) -0.14726(13) 1.22124(13)
H7 H 0.182(2) -0.1486(14) 1.2562(14)
C9 C 0.02805(17) -0.08144(13) 1.22005(13)
C10 C -0.06587(16) -0.10874(13) 1.15687(12)
H8 H -0.134(2) -0.0786(13) 1.1422(15)
C11 C 0.1751(2) -0.35638(16) 0.99556(19)
H9 H 0.2143 -0.3596 1.0567
H10 H 0.1852 -0.4103 0.9654
H11 H 0.0943 -0.3462 0.9950
C12 C 0.1541(3) -0.25879(19) 0.82436(18)
H12 H 0.0762 -0.2414 0.8272
H13 H 0.1536 -0.3144 0.7950
H14 H 0.1896 -0.2162 0.7910
C13 C 0.3866(3) -0.2911(2) 0.9349(3)
H15 H 0.4158 -0.2509 0.8953
H16 H 0.3936 -0.3495 0.9136
H17 H 0.4304 -0.2856 0.9944
C14 C 0.5548(2) -0.0320(2) 1.1634(2)
H18 H 0.5661 -0.0102 1.1057
H19 H 0.5628 -0.0942 1.1643
H20 H 0.6116 -0.0069 1.2095
C15 C 0.3946(2) -0.04205(17) 1.29461(15)
H21 H 0.4581 -0.0216 1.3381
H22 H 0.3938 -0.1046 1.2945
H23 H 0.3234 -0.0207 1.3099
C16 C 0.3958(2) 0.11510(15) 1.17539(17)
H24 H 0.3204 0.1316 1.1862
H25 H 0.4057 0.1338 1.1163
H26 H 0.4534 0.1421 1.2195
C17 C 0.1077(2) -0.03282(16) 1.40996(14)
H27 H 0.0744 -0.0865 1.4262
H28 H 0.1039 0.0100 1.4559
H29 H 0.1869 -0.0425 1.4040
C18 C -0.1222(2) 0.02716(17) 1.31541(16)
H30 H -0.1583 -0.0265 1.3282
H31 H -0.1631 0.0516 1.2606
H32 H -0.1239 0.0674 1.3640
C19 C 0.0914(3) 0.10887(18) 1.2736(2)
H33 H 0.0781 0.1532 1.3157
H34 H 0.0565 0.1260 1.2140
H35 H 0.1730 0.1013 1.2757
C20 C -0.29341(19) -0.23015(16) 1.07122(16)
H36 H -0.3103 -0.1707 1.0539
H37 H -0.2964 -0.2371 1.1341
H38 H -0.3493 -0.2678 1.0368
C21 C -0.1471(2) -0.2480(2) 0.92983(15)
H39 H -0.0773 -0.2732 0.9158
H40 H -0.1504 -0.1874 0.9135
H41 H -0.2126 -0.2778 0.8968
C22 C -0.1188(2) -0.37059(16) 1.08577(19)
H42 H -0.1735 -0.4087 1.0508
H43 H -0.1249 -0.3761 1.1483
H44 H -0.0420 -0.3860 1.0772
Zr1B Zr -0.094731(15) 0.079351(13) 0.930591(13)
H1B H -0.135(4) -0.019(3) 0.864(3)
Si1B Si -0.23538(6) 0.26713(4) 1.06214(5)
Si2B Si -0.41074(4) 0.00265(4) 0.81662(4)
Si3B Si -0.02756(5) -0.00617(4) 0.69716(4)
Si4B Si 0.14879(5) 0.25846(4) 0.95022(4)
O1B O -0.0147(3) -0.0207(2) 0.9809(2)
C1B C -0.30936(16) 0.05542(13) 0.90573(13)
C2B C -0.26264(16) 0.01742(13) 0.98827(13)
H3B H -0.259(2) -0.0404(16) 1.0008(15)
C3B C -0.21979(18) 0.08119(13) 1.04716(13)
H4B H -0.182(2) 0.0709(15) 1.1034(17)
C4B C -0.23656(19) 0.16254(13) 1.00449(14)
C5B C -0.29355(16) 0.14434(13) 0.91781(13)
H5B H -0.3198(19) 0.1885(14) 0.8737(14)
C6B C 0.04331(16) 0.18800(13) 0.88091(12)
C7B C -0.06823(17) 0.21079(13) 0.83900(13)
H6B H -0.1046(19) 0.2588(14) 0.8526(14)
C8B C -0.11062(17) 0.14726(13) 0.77876(13)
H7B H -0.182(2) 0.1486(14) 0.7438(14)
C9B C -0.02805(17) 0.08144(13) 0.77995(13)
C10B C 0.06587(16) 0.10874(13) 0.84313(12)
H8B H 0.134(2) 0.0786(13) 0.8578(15)
C11B C -0.1751(2) 0.35638(16) 1.00444(19)
H9B H -0.2143 0.3596 0.9433
H10B H -0.1852 0.4103 1.0346
H11B H -0.0943 0.3462 1.0050
C12B C -0.1541(3) 0.25879(19) 1.17564(18)
H12B H -0.0762 0.2414 1.1728
H13B H -0.1536 0.3144 1.2050
H14B H -0.1896 0.2162 1.2090
C13B C -0.3866(3) 0.2911(2) 1.0651(3)
H15B H -0.4158 0.2509 1.1047
H16B H -0.3936 0.3495 1.0864
H17B H -0.4304 0.2856 1.0056
C14B C -0.5548(2) 0.0320(2) 0.8366(2)
H18B H -0.5661 0.0102 0.8943
H19B H -0.5628 0.0942 0.8357
H20B H -0.6116 0.0069 0.7905
C15B C -0.3946(2) 0.04205(17) 0.70539(15)
H21B H -0.4581 0.0216 0.6619
H22B H -0.3938 0.1046 0.7055
H23B H -0.3234 0.0207 0.6901
C16B C -0.3958(2) -0.11510(15) 0.82461(17)
H24B H -0.3204 -0.1316 0.8138
H25B H -0.4057 -0.1338 0.8837
H26B H -0.4534 -0.1421 0.7805
C17B C -0.1077(2) 0.03282(16) 0.59004(14)
H27B H -0.0744 0.0865 0.5738
H28B H -0.1039 -0.0100 0.5441
H29B H -0.1869 0.0425 0.5960
C18B C 0.1222(2) -0.02716(17) 0.68459(16)
H30B H 0.1583 0.0265 0.6718
H31B H 0.1631 -0.0516 0.7394
H32B H 0.1239 -0.0674 0.6360
C19B C -0.0914(3) -0.10887(18) 0.7264(2)
H33B H -0.0781 -0.1532 0.6843
H34B H -0.0565 -0.1260 0.7860
H35B H -0.1730 -0.1013 0.7243
C20B C 0.29341(19) 0.23015(16) 0.92878(16)
H36B H 0.3103 0.1707 0.9461
H37B H 0.2964 0.2371 0.8659
H38B H 0.3493 0.2678 0.9632
C21B C 0.1471(2) 0.2480(2) 1.07017(15)
H39B H 0.0773 0.2732 1.0842
H40B H 0.1504 0.1874 1.0865
H41B H 0.2126 0.2778 1.1032
C22B C 0.1188(2) 0.37059(16) 0.91423(19)
H42B H 0.1735 0.4087 0.9492
H43B H 0.1249 0.3761 0.8517
H44B H 0.0420 0.3860 0.9228
Zr1 Zr 0.094731(15) 0.920649(13) 0.069409(13)
H1 H 0.135(4) 1.019(3) 0.136(3)
Si1 Si 0.23538(6) 0.73287(4) -0.06214(5)
Si2 Si 0.41074(4) 0.99735(4) 0.18338(4)
Si3 Si 0.02756(5) 1.00617(4) 0.30284(4)
Si4 Si -0.14879(5) 0.74154(4) 0.04978(4)
O1 O 0.0147(3) 1.0207(2) 0.0191(2)
C1 C 0.30936(16) 0.94458(13) 0.09427(13)
C2 C 0.26264(16) 0.98258(13) 0.01173(13)
H3 H 0.259(2) 1.0404(16) -0.0008(15)
C3 C 0.21979(18) 0.91881(13) -0.04716(13)
H4 H 0.182(2) 0.9291(15) -0.1034(17)
C4 C 0.23656(19) 0.83746(13) -0.00449(14)
C5 C 0.29355(16) 0.85566(13) 0.08219(13)
H5 H 0.3198(19) 0.8115(14) 0.1263(14)
C6 C -0.04331(16) 0.81200(13) 0.11909(12)
C7 C 0.06823(17) 0.78921(13) 0.16100(13)
H6 H 0.1046(19) 0.7412(14) 0.1474(14)
C8 C 0.11062(17) 0.85274(13) 0.22124(13)
H7 H 0.182(2) 0.8514(14) 0.2562(14)
C9 C 0.02805(17) 0.91856(13) 0.22005(13)
C10 C -0.06587(16) 0.89126(13) 0.15687(12)
H8 H -0.134(2) 0.9214(13) 0.1422(15)
C11 C 0.1751(2) 0.64362(16) -0.00444(19)
H9 H 0.2143 0.6404 0.0567
H10 H 0.1852 0.5897 -0.0346
H11 H 0.0943 0.6538 -0.0050
C12 C 0.1541(3) 0.74121(19) -0.17564(18)
H12 H 0.0762 0.7586 -0.1728
H13 H 0.1536 0.6856 -0.2050
H14 H 0.1896 0.7838 -0.2090
C13 C 0.3866(3) 0.7089(2) -0.0651(3)
H15 H 0.4158 0.7491 -0.1047
H16 H 0.3936 0.6505 -0.0864
H17 H 0.4304 0.7144 -0.0056
C14 C 0.5548(2) 0.9680(2) 0.1634(2)
H18 H 0.5661 0.9898 0.1057
H19 H 0.5628 0.9058 0.1643
H20 H 0.6116 0.9931 0.2095
C15 C 0.3946(2) 0.95795(17) 0.29461(15)
H21 H 0.4581 0.9784 0.3381
H22 H 0.3938 0.8954 0.2945
H23 H 0.3234 0.9793 0.3099
C16 C 0.3958(2) 1.11510(15) 0.17539(17)
H24 H 0.3204 1.1316 0.1862
H25 H 0.4057 1.1338 0.1163
H26 H 0.4534 1.1421 0.2195
C17 C 0.1077(2) 0.96718(16) 0.40996(14)
H27 H 0.0744 0.9135 0.4262
H28 H 0.1039 1.0100 0.4559
H29 H 0.1869 0.9575 0.4040
C18 C -0.1222(2) 1.02716(17) 0.31541(16)
H30 H -0.1583 0.9735 0.3282
H31 H -0.1631 1.0516 0.2606
H32 H -0.1239 1.0674 0.3640
C19 C 0.0914(3) 1.10887(18) 0.2736(2)
H33 H 0.0781 1.1532 0.3157
H34 H 0.0565 1.1260 0.2140
H35 H 0.1730 1.1013 0.2757
C20 C -0.29341(19) 0.76985(16) 0.07122(16)
H36 H -0.3103 0.8293 0.0539
H37 H -0.2964 0.7629 0.1341
H38 H -0.3493 0.7322 0.0368
C21 C -0.1471(2) 0.7520(2) -0.07017(15)
H39 H -0.0773 0.7268 -0.0842
H40 H -0.1504 0.8126 -0.0865
H41 H -0.2126 0.7222 -0.1032
C22 C -0.1188(2) 0.62941(16) 0.08577(19)
H42 H -0.1735 0.5913 0.0508
H43 H -0.1249 0.6239 0.1483
H44 H -0.0420 0.6140 0.0772
Zr1B Zr -0.094731(15) 1.079351(13) -0.069409(13)
H1B H -0.135(4) 0.981(3) -0.136(3)
Si1B Si -0.23538(6) 1.26713(4) 0.06214(5)
Si2B Si -0.41074(4) 1.00265(4) -0.18338(4)
Si3B Si -0.02756(5) 0.99383(4) -0.30284(4)
Si4B Si 0.14879(5) 1.25846(4) -0.04978(4)
O1B O -0.0147(3) 0.9793(2) -0.0191(2)
C1B C -0.30936(16) 1.05542(13) -0.09427(13)
C2B C -0.26264(16) 1.01742(13) -0.01173(13)
H3B H -0.259(2) 0.9596(16) 0.0008(15)
C3B C -0.21979(18) 1.08119(13) 0.04716(13)
H4B H -0.182(2) 1.0709(15) 0.1034(17)
C4B C -0.23656(19) 1.16254(13) 0.00449(14)
C5B C -0.29355(16) 1.14434(13) -0.08219(13)
H5B H -0.3198(19) 1.1885(14) -0.1263(14)
C6B C 0.04331(16) 1.18800(13) -0.11909(12)
C7B C -0.06823(17) 1.21079(13) -0.16100(13)
H6B H -0.1046(19) 1.2588(14) -0.1474(14)
C8B C -0.11062(17) 1.14726(13) -0.22124(13)
H7B H -0.182(2) 1.1486(14) -0.2562(14)
C9B C -0.02805(17) 1.08144(13) -0.22005(13)
C10B C 0.06587(16) 1.10874(13) -0.15687(12)
H8B H 0.134(2) 1.0786(13) -0.1422(15)
C11B C -0.1751(2) 1.35638(16) 0.00444(19)
H9B H -0.2143 1.3596 -0.0567
H10B H -0.1852 1.4103 0.0346
H11B H -0.0943 1.3462 0.0050
C12B C -0.1541(3) 1.25879(19) 0.17564(18)
H12B H -0.0762 1.2414 0.1728
H13B H -0.1536 1.3144 0.2050
H14B H -0.1896 1.2162 0.2090
C13B C -0.3866(3) 1.2911(2) 0.0651(3)
H15B H -0.4158 1.2509 0.1047
H16B H -0.3936 1.3495 0.0864
H17B H -0.4304 1.2856 0.0056
C14B C -0.5548(2) 1.0320(2) -0.1634(2)
H18B H -0.5661 1.0102 -0.1057
H19B H -0.5628 1.0942 -0.1643
H20B H -0.6116 1.0069 -0.2095
C15B C -0.3946(2) 1.04205(17) -0.29461(15)
H21B H -0.4581 1.0216 -0.3381
H22B H -0.3938 1.1046 -0.2945
H23B H -0.3234 1.0207 -0.3099
C16B C -0.3958(2) 0.88490(15) -0.17539(17)
H24B H -0.3204 0.8684 -0.1862
H25B H -0.4057 0.8662 -0.1163
H26B H -0.4534 0.8579 -0.2195
C17B C -0.1077(2) 1.03282(16) -0.40996(14)
H27B H -0.0744 1.0865 -0.4262
H28B H -0.1039 0.9900 -0.4559
H29B H -0.1869 1.0425 -0.4040
C18B C 0.1222(2) 0.97284(17) -0.31541(16)
H30B H 0.1583 1.0265 -0.3282
H31B H 0.1631 0.9484 -0.2606
H32B H 0.1239 0.9326 -0.3640
C19B C -0.0914(3) 0.89113(18) -0.2736(2)
H33B H -0.0781 0.8468 -0.3157
H34B H -0.0565 0.8740 -0.2140
H35B H -0.1730 0.8987 -0.2757
C20B C 0.29341(19) 1.23015(16) -0.07122(16)
H36B H 0.3103 1.1707 -0.0539
H37B H 0.2964 1.2371 -0.1341
H38B H 0.3493 1.2678 -0.0368
C21B C 0.1471(2) 1.2480(2) 0.07017(15)
H39B H 0.0773 1.2732 0.0842
H40B H 0.1504 1.1874 0.0865
H41B H 0.2126 1.2778 0.1032
C22B C 0.1188(2) 1.37059(16) -0.08577(19)
H42B H 0.1735 1.4087 -0.0508
H43B H 0.1249 1.3761 -0.1483
H44B H 0.0420 1.3860 -0.0772
Zr1 Zr 0.094731(15) 0.920649(13) 1.069409(13)
H1 H 0.135(4) 1.019(3) 1.136(3)
Si1 Si 0.23538(6) 0.73287(4) 0.93786(5)
Si2 Si 0.41074(4) 0.99735(4) 1.18338(4)
Si3 Si 0.02756(5) 1.00617(4) 1.30284(4)
Si4 Si -0.14879(5) 0.74154(4) 1.04978(4)
O1 O 0.0147(3) 1.0207(2) 1.0191(2)
C1 C 0.30936(16) 0.94458(13) 1.09427(13)
C2 C 0.26264(16) 0.98258(13) 1.01173(13)
H3 H 0.259(2) 1.0404(16) 0.9992(15)
C3 C 0.21979(18) 0.91881(13) 0.95284(13)
H4 H 0.182(2) 0.9291(15) 0.8966(17)
C4 C 0.23656(19) 0.83746(13) 0.99551(14)
C5 C 0.29355(16) 0.85566(13) 1.08219(13)
H5 H 0.3198(19) 0.8115(14) 1.1263(14)
C6 C -0.04331(16) 0.81200(13) 1.11909(12)
C7 C 0.06823(17) 0.78921(13) 1.16100(13)
H6 H 0.1046(19) 0.7412(14) 1.1474(14)
C8 C 0.11062(17) 0.85274(13) 1.22124(13)
H7 H 0.182(2) 0.8514(14) 1.2562(14)
C9 C 0.02805(17) 0.91856(13) 1.22005(13)
C10 C -0.06587(16) 0.89126(13) 1.15687(12)
H8 H -0.134(2) 0.9214(13) 1.1422(15)
C11 C 0.1751(2) 0.64362(16) 0.99556(19)
H9 H 0.2143 0.6404 1.0567
H10 H 0.1852 0.5897 0.9654
H11 H 0.0943 0.6538 0.9950
C12 C 0.1541(3) 0.74121(19) 0.82436(18)
H12 H 0.0762 0.7586 0.8272
H13 H 0.1536 0.6856 0.7950
H14 H 0.1896 0.7838 0.7910
C13 C 0.3866(3) 0.7089(2) 0.9349(3)
H15 H 0.4158 0.7491 0.8953
H16 H 0.3936 0.6505 0.9136
H17 H 0.4304 0.7144 0.9944
C14 C 0.5548(2) 0.9680(2) 1.1634(2)
H18 H 0.5661 0.9898 1.1057
H19 H 0.5628 0.9058 1.1643
H20 H 0.6116 0.9931 1.2095
C15 C 0.3946(2) 0.95795(17) 1.29461(15)
H21 H 0.4581 0.9784 1.3381
H22 H 0.3938 0.8954 1.2945
H23 H 0.3234 0.9793 1.3099
C16 C 0.3958(2) 1.11510(15) 1.17539(17)
H24 H 0.3204 1.1316 1.1862
H25 H 0.4057 1.1338 1.1163
H26 H 0.4534 1.1421 1.2195
C17 C 0.1077(2) 0.96718(16) 1.40996(14)
H27 H 0.0744 0.9135 1.4262
H28 H 0.1039 1.0100 1.4559
H29 H 0.1869 0.9575 1.4040
C18 C -0.1222(2) 1.02716(17) 1.31541(16)
H30 H -0.1583 0.9735 1.3282
H31 H -0.1631 1.0516 1.2606
H32 H -0.1239 1.0674 1.3640
C19 C 0.0914(3) 1.10887(18) 1.2736(2)
H33 H 0.0781 1.1532 1.3157
H34 H 0.0565 1.1260 1.2140
H35 H 0.1730 1.1013 1.2757
C20 C -0.29341(19) 0.76985(16) 1.07122(16)
H36 H -0.3103 0.8293 1.0539
H37 H -0.2964 0.7629 1.1341
H38 H -0.3493 0.7322 1.0368
C21 C -0.1471(2) 0.7520(2) 0.92983(15)
H39 H -0.0773 0.7268 0.9158
H40 H -0.1504 0.8126 0.9135
H41 H -0.2126 0.7222 0.8968
C22 C -0.1188(2) 0.62941(16) 1.08577(19)
H42 H -0.1735 0.5913 1.0508
H43 H -0.1249 0.6239 1.1483
H44 H -0.0420 0.6140 1.0772
Zr1B Zr -0.094731(15) 1.079351(13) 0.930591(13)
H1B H -0.135(4) 0.981(3) 0.864(3)
Si1B Si -0.23538(6) 1.26713(4) 1.06214(5)
Si2B Si -0.41074(4) 1.00265(4) 0.81662(4)
Si3B Si -0.02756(5) 0.99383(4) 0.69716(4)
Si4B Si 0.14879(5) 1.25846(4) 0.95022(4)
O1B O -0.0147(3) 0.9793(2) 0.9809(2)
C1B C -0.30936(16) 1.05542(13) 0.90573(13)
C2B C -0.26264(16) 1.01742(13) 0.98827(13)
H3B H -0.259(2) 0.9596(16) 1.0008(15)
C3B C -0.21979(18) 1.08119(13) 1.04716(13)
H4B H -0.182(2) 1.0709(15) 1.1034(17)
C4B C -0.23656(19) 1.16254(13) 1.00449(14)
C5B C -0.29355(16) 1.14434(13) 0.91781(13)
H5B H -0.3198(19) 1.1885(14) 0.8737(14)
C6B C 0.04331(16) 1.18800(13) 0.88091(12)
C7B C -0.06823(17) 1.21079(13) 0.83900(13)
H6B H -0.1046(19) 1.2588(14) 0.8526(14)
C8B C -0.11062(17) 1.14726(13) 0.77876(13)
H7B H -0.182(2) 1.1486(14) 0.7438(14)
C9B C -0.02805(17) 1.08144(13) 0.77995(13)
C10B C 0.06587(16) 1.10874(13) 0.84313(12)
H8B H 0.134(2) 1.0786(13) 0.8578(15)
C11B C -0.1751(2) 1.35638(16) 1.00444(19)
H9B H -0.2143 1.3596 0.9433
H10B H -0.1852 1.4103 1.0346
H11B H -0.0943 1.3462 1.0050
C12B C -0.1541(3) 1.25879(19) 1.17564(18)
H12B H -0.0762 1.2414 1.1728
H13B H -0.1536 1.3144 1.2050
H14B H -0.1896 1.2162 1.2090
C13B C -0.3866(3) 1.2911(2) 1.0651(3)
H15B H -0.4158 1.2509 1.1047
H16B H -0.3936 1.3495 1.0864
H17B H -0.4304 1.2856 1.0056
C14B C -0.5548(2) 1.0320(2) 0.8366(2)
H18B H -0.5661 1.0102 0.8943
H19B H -0.5628 1.0942 0.8357
H20B H -0.6116 1.0069 0.7905
C15B C -0.3946(2) 1.04205(17) 0.70539(15)
H21B H -0.4581 1.0216 0.6619
H22B H -0.3938 1.1046 0.7055
H23B H -0.3234 1.0207 0.6901
C16B C -0.3958(2) 0.88490(15) 0.82461(17)
H24B H -0.3204 0.8684 0.8138
H25B H -0.4057 0.8662 0.8837
H26B H -0.4534 0.8579 0.7805
C17B C -0.1077(2) 1.03282(16) 0.59004(14)
H27B H -0.0744 1.0865 0.5738
H28B H -0.1039 0.9900 0.5441
H29B H -0.1869 1.0425 0.5960
C18B C 0.1222(2) 0.97284(17) 0.68459(16)
H30B H 0.1583 1.0265 0.6718
H31B H 0.1631 0.9484 0.7394
H32B H 0.1239 0.9326 0.6360
C19B C -0.0914(3) 0.89113(18) 0.7264(2)
H33B H -0.0781 0.8468 0.6843
H34B H -0.0565 0.8740 0.7860
H35B H -0.1730 0.8987 0.7243
C20B C 0.29341(19) 1.23015(16) 0.92878(16)
H36B H 0.3103 1.1707 0.9461
H37B H 0.2964 1.2371 0.8659
H38B H 0.3493 1.2678 0.9632
C21B C 0.1471(2) 1.2480(2) 1.07017(15)
H39B H 0.0773 1.2732 1.0842
H40B H 0.1504 1.1874 1.0865
H41B H 0.2126 1.2778 1.1032
C22B C 0.1188(2) 1.37059(16) 0.91423(19)
H42B H 0.1735 1.4087 0.9492
H43B H 0.1249 1.3761 0.8517
H44B H 0.0420 1.3860 0.9228
Zr1 Zr 1.094731(15) -0.079351(13) 0.069409(13)
H1 H 1.135(4) 0.019(3) 0.136(3)
Si1 Si 1.23538(6) -0.26713(4) -0.06214(5)
Si2 Si 1.41074(4) -0.00265(4) 0.18338(4)
Si3 Si 1.02756(5) 0.00617(4) 0.30284(4)
Si4 Si 0.85121(5) -0.25846(4) 0.04978(4)
O1 O 1.0147(3) 0.0207(2) 0.0191(2)
C1 C 1.30936(16) -0.05542(13) 0.09427(13)
C2 C 1.26264(16) -0.01742(13) 0.01173(13)
H3 H 1.259(2) 0.0404(16) -0.0008(15)
C3 C 1.21979(18) -0.08119(13) -0.04716(13)
H4 H 1.182(2) -0.0709(15) -0.1034(17)
C4 C 1.23656(19) -0.16254(13) -0.00449(14)
C5 C 1.29355(16) -0.14434(13) 0.08219(13)
H5 H 1.3198(19) -0.1885(14) 0.1263(14)
C6 C 0.95669(16) -0.18800(13) 0.11909(12)
C7 C 1.06823(17) -0.21079(13) 0.16100(13)
H6 H 1.1046(19) -0.2588(14) 0.1474(14)
C8 C 1.11062(17) -0.14726(13) 0.22124(13)
H7 H 1.182(2) -0.1486(14) 0.2562(14)
C9 C 1.02805(17) -0.08144(13) 0.22005(13)
C10 C 0.93413(16) -0.10874(13) 0.15687(12)
H8 H 0.866(2) -0.0786(13) 0.1422(15)
C11 C 1.1751(2) -0.35638(16) -0.00444(19)
H9 H 1.2143 -0.3596 0.0567
H10 H 1.1852 -0.4103 -0.0346
H11 H 1.0943 -0.3462 -0.0050
C12 C 1.1541(3) -0.25879(19) -0.17564(18)
H12 H 1.0762 -0.2414 -0.1728
H13 H 1.1536 -0.3144 -0.2050
H14 H 1.1896 -0.2162 -0.2090
C13 C 1.3866(3) -0.2911(2) -0.0651(3)
H15 H 1.4158 -0.2509 -0.1047
H16 H 1.3936 -0.3495 -0.0864
H17 H 1.4304 -0.2856 -0.0056
C14 C 1.5548(2) -0.0320(2) 0.1634(2)
H18 H 1.5661 -0.0102 0.1057
H19 H 1.5628 -0.0942 0.1643
H20 H 1.6116 -0.0069 0.2095
C15 C 1.3946(2) -0.04205(17) 0.29461(15)
H21 H 1.4581 -0.0216 0.3381
H22 H 1.3938 -0.1046 0.2945
H23 H 1.3234 -0.0207 0.3099
C16 C 1.3958(2) 0.11510(15) 0.17539(17)
H24 H 1.3204 0.1316 0.1862
H25 H 1.4057 0.1338 0.1163
H26 H 1.4534 0.1421 0.2195
C17 C 1.1077(2) -0.03282(16) 0.40996(14)
H27 H 1.0744 -0.0865 0.4262
H28 H 1.1039 0.0100 0.4559
H29 H 1.1869 -0.0425 0.4040
C18 C 0.8778(2) 0.02716(17) 0.31541(16)
H30 H 0.8417 -0.0265 0.3282
H31 H 0.8369 0.0516 0.2606
H32 H 0.8761 0.0674 0.3640
C19 C 1.0914(3) 0.10887(18) 0.2736(2)
H33 H 1.0781 0.1532 0.3157
H34 H 1.0565 0.1260 0.2140
H35 H 1.1730 0.1013 0.2757
C20 C 0.70659(19) -0.23015(16) 0.07122(16)
H36 H 0.6897 -0.1707 0.0539
H37 H 0.7036 -0.2371 0.1341
H38 H 0.6507 -0.2678 0.0368
C21 C 0.8529(2) -0.2480(2) -0.07017(15)
H39 H 0.9227 -0.2732 -0.0842
H40 H 0.8496 -0.1874 -0.0865
H41 H 0.7874 -0.2778 -0.1032
C22 C 0.8812(2) -0.37059(16) 0.08577(19)
H42 H 0.8265 -0.4087 0.0508
H43 H 0.8751 -0.3761 0.1483
H44 H 0.9580 -0.3860 0.0772
Zr1B Zr 0.905269(15) 0.079351(13) -0.069409(13)
H1B H 0.865(4) -0.019(3) -0.136(3)
Si1B Si 0.76462(6) 0.26713(4) 0.06214(5)
Si2B Si 0.58926(4) 0.00265(4) -0.18338(4)
Si3B Si 0.97244(5) -0.00617(4) -0.30284(4)
Si4B Si 1.14879(5) 0.25846(4) -0.04978(4)
O1B O 0.9853(3) -0.0207(2) -0.0191(2)
C1B C 0.69064(16) 0.05542(13) -0.09427(13)
C2B C 0.73736(16) 0.01742(13) -0.01173(13)
H3B H 0.741(2) -0.0404(16) 0.0008(15)
C3B C 0.78021(18) 0.08119(13) 0.04716(13)
H4B H 0.818(2) 0.0709(15) 0.1034(17)
C4B C 0.76344(19) 0.16254(13) 0.00449(14)
C5B C 0.70645(16) 0.14434(13) -0.08219(13)
H5B H 0.6802(19) 0.1885(14) -0.1263(14)
C6B C 1.04331(16) 0.18800(13) -0.11909(12)
C7B C 0.93177(17) 0.21079(13) -0.16100(13)
H6B H 0.8954(19) 0.2588(14) -0.1474(14)
C8B C 0.88938(17) 0.14726(13) -0.22124(13)
H7B H 0.818(2) 0.1486(14) -0.2562(14)
C9B C 0.97195(17) 0.08144(13) -0.22005(13)
C10B C 1.06587(16) 0.10874(13) -0.15687(12)
H8B H 1.134(2) 0.0786(13) -0.1422(15)
C11B C 0.8249(2) 0.35638(16) 0.00444(19)
H9B H 0.7857 0.3596 -0.0567
H10B H 0.8148 0.4103 0.0346
H11B H 0.9057 0.3462 0.0050
C12B C 0.8459(3) 0.25879(19) 0.17564(18)
H12B H 0.9238 0.2414 0.1728
H13B H 0.8464 0.3144 0.2050
H14B H 0.8104 0.2162 0.2090
C13B C 0.6134(3) 0.2911(2) 0.0651(3)
H15B H 0.5842 0.2509 0.1047
H16B H 0.6064 0.3495 0.0864
H17B H 0.5696 0.2856 0.0056
C14B C 0.4452(2) 0.0320(2) -0.1634(2)
H18B H 0.4339 0.0102 -0.1057
H19B H 0.4372 0.0942 -0.1643
H20B H 0.3884 0.0069 -0.2095
C15B C 0.6054(2) 0.04205(17) -0.29461(15)
H21B H 0.5419 0.0216 -0.3381
H22B H 0.6062 0.1046 -0.2945
H23B H 0.6766 0.0207 -0.3099
C16B C 0.6042(2) -0.11510(15) -0.17539(17)
H24B H 0.6796 -0.1316 -0.1862
H25B H 0.5943 -0.1338 -0.1163
H26B H 0.5466 -0.1421 -0.2195
C17B C 0.8923(2) 0.03282(16) -0.40996(14)
H27B H 0.9256 0.0865 -0.4262
H28B H 0.8961 -0.0100 -0.4559
H29B H 0.8131 0.0425 -0.4040
C18B C 1.1222(2) -0.02716(17) -0.31541(16)
H30B H 1.1583 0.0265 -0.3282
H31B H 1.1631 -0.0516 -0.2606
H32B H 1.1239 -0.0674 -0.3640
C19B C 0.9086(3) -0.10887(18) -0.2736(2)
H33B H 0.9219 -0.1532 -0.3157
H34B H 0.9435 -0.1260 -0.2140
H35B H 0.8270 -0.1013 -0.2757
C20B C 1.29341(19) 0.23015(16) -0.07122(16)
H36B H 1.3103 0.1707 -0.0539
H37B H 1.2964 0.2371 -0.1341
H38B H 1.3493 0.2678 -0.0368
C21B C 1.1471(2) 0.2480(2) 0.07017(15)
H39B H 1.0773 0.2732 0.0842
H40B H 1.1504 0.1874 0.0865
H41B H 1.2126 0.2778 0.1032
C22B C 1.1188(2) 0.37059(16) -0.08577(19)
H42B H 1.1735 0.4087 -0.0508
H43B H 1.1249 0.3761 -0.1483
H44B H 1.0420 0.3860 -0.0772
Zr1 Zr 1.094731(15) -0.079351(13) 1.069409(13)
H1 H 1.135(4) 0.019(3) 1.136(3)
Si1 Si 1.23538(6) -0.26713(4) 0.93786(5)
Si2 Si 1.41074(4) -0.00265(4) 1.18338(4)
Si3 Si 1.02756(5) 0.00617(4) 1.30284(4)
Si4 Si 0.85121(5) -0.25846(4) 1.04978(4)
O1 O 1.0147(3) 0.0207(2) 1.0191(2)
C1 C 1.30936(16) -0.05542(13) 1.09427(13)
C2 C 1.26264(16) -0.01742(13) 1.01173(13)
H3 H 1.259(2) 0.0404(16) 0.9992(15)
C3 C 1.21979(18) -0.08119(13) 0.95284(13)
H4 H 1.182(2) -0.0709(15) 0.8966(17)
C4 C 1.23656(19) -0.16254(13) 0.99551(14)
C5 C 1.29355(16) -0.14434(13) 1.08219(13)
H5 H 1.3198(19) -0.1885(14) 1.1263(14)
C6 C 0.95669(16) -0.18800(13) 1.11909(12)
C7 C 1.06823(17) -0.21079(13) 1.16100(13)
H6 H 1.1046(19) -0.2588(14) 1.1474(14)
C8 C 1.11062(17) -0.14726(13) 1.22124(13)
H7 H 1.182(2) -0.1486(14) 1.2562(14)
C9 C 1.02805(17) -0.08144(13) 1.22005(13)
C10 C 0.93413(16) -0.10874(13) 1.15687(12)
H8 H 0.866(2) -0.0786(13) 1.1422(15)
C11 C 1.1751(2) -0.35638(16) 0.99556(19)
H9 H 1.2143 -0.3596 1.0567
H10 H 1.1852 -0.4103 0.9654
H11 H 1.0943 -0.3462 0.9950
C12 C 1.1541(3) -0.25879(19) 0.82436(18)
H12 H 1.0762 -0.2414 0.8272
H13 H 1.1536 -0.3144 0.7950
H14 H 1.1896 -0.2162 0.7910
C13 C 1.3866(3) -0.2911(2) 0.9349(3)
H15 H 1.4158 -0.2509 0.8953
H16 H 1.3936 -0.3495 0.9136
H17 H 1.4304 -0.2856 0.9944
C14 C 1.5548(2) -0.0320(2) 1.1634(2)
H18 H 1.5661 -0.0102 1.1057
H19 H 1.5628 -0.0942 1.1643
H20 H 1.6116 -0.0069 1.2095
C15 C 1.3946(2) -0.04205(17) 1.29461(15)
H21 H 1.4581 -0.0216 1.3381
H22 H 1.3938 -0.1046 1.2945
H23 H 1.3234 -0.0207 1.3099
C16 C 1.3958(2) 0.11510(15) 1.17539(17)
H24 H 1.3204 0.1316 1.1862
H25 H 1.4057 0.1338 1.1163
H26 H 1.4534 0.1421 1.2195
C17 C 1.1077(2) -0.03282(16) 1.40996(14)
H27 H 1.0744 -0.0865 1.4262
H28 H 1.1039 0.0100 1.4559
H29 H 1.1869 -0.0425 1.4040
C18 C 0.8778(2) 0.02716(17) 1.31541(16)
H30 H 0.8417 -0.0265 1.3282
H31 H 0.8369 0.0516 1.2606
H32 H 0.8761 0.0674 1.3640
C19 C 1.0914(3) 0.10887(18) 1.2736(2)
H33 H 1.0781 0.1532 1.3157
H34 H 1.0565 0.1260 1.2140
H35 H 1.1730 0.1013 1.2757
C20 C 0.70659(19) -0.23015(16) 1.07122(16)
H36 H 0.6897 -0.1707 1.0539
H37 H 0.7036 -0.2371 1.1341
H38 H 0.6507 -0.2678 1.0368
C21 C 0.8529(2) -0.2480(2) 0.92983(15)
H39 H 0.9227 -0.2732 0.9158
H40 H 0.8496 -0.1874 0.9135
H41 H 0.7874 -0.2778 0.8968
C22 C 0.8812(2) -0.37059(16) 1.08577(19)
H42 H 0.8265 -0.4087 1.0508
H43 H 0.8751 -0.3761 1.1483
H44 H 0.9580 -0.3860 1.0772
Zr1B Zr 0.905269(15) 0.079351(13) 0.930591(13)
H1B H 0.865(4) -0.019(3) 0.864(3)
Si1B Si 0.76462(6) 0.26713(4) 1.06214(5)
Si2B Si 0.58926(4) 0.00265(4) 0.81662(4)
Si3B Si 0.97244(5) -0.00617(4) 0.69716(4)
Si4B Si 1.14879(5) 0.25846(4) 0.95022(4)
O1B O 0.9853(3) -0.0207(2) 0.9809(2)
C1B C 0.69064(16) 0.05542(13) 0.90573(13)
C2B C 0.73736(16) 0.01742(13) 0.98827(13)
H3B H 0.741(2) -0.0404(16) 1.0008(15)
C3B C 0.78021(18) 0.08119(13) 1.04716(13)
H4B H 0.818(2) 0.0709(15) 1.1034(17)
C4B C 0.76344(19) 0.16254(13) 1.00449(14)
C5B C 0.70645(16) 0.14434(13) 0.91781(13)
H5B H 0.6802(19) 0.1885(14) 0.8737(14)
C6B C 1.04331(16) 0.18800(13) 0.88091(12)
C7B C 0.93177(17) 0.21079(13) 0.83900(13)
H6B H 0.8954(19) 0.2588(14) 0.8526(14)
C8B C 0.88938(17) 0.14726(13) 0.77876(13)
H7B H 0.818(2) 0.1486(14) 0.7438(14)
C9B C 0.97195(17) 0.08144(13) 0.77995(13)
C10B C 1.06587(16) 0.10874(13) 0.84313(12)
H8B H 1.134(2) 0.0786(13) 0.8578(15)
C11B C 0.8249(2) 0.35638(16) 1.00444(19)
H9B H 0.7857 0.3596 0.9433
H10B H 0.8148 0.4103 1.0346
H11B H 0.9057 0.3462 1.0050
C12B C 0.8459(3) 0.25879(19) 1.17564(18)
H12B H 0.9238 0.2414 1.1728
H13B H 0.8464 0.3144 1.2050
H14B H 0.8104 0.2162 1.2090
C13B C 0.6134(3) 0.2911(2) 1.0651(3)
H15B H 0.5842 0.2509 1.1047
H16B H 0.6064 0.3495 1.0864
H17B H 0.5696 0.2856 1.0056
C14B C 0.4452(2) 0.0320(2) 0.8366(2)
H18B H 0.4339 0.0102 0.8943
H19B H 0.4372 0.0942 0.8357
H20B H 0.3884 0.0069 0.7905
C15B C 0.6054(2) 0.04205(17) 0.70539(15)
H21B H 0.5419 0.0216 0.6619
H22B H 0.6062 0.1046 0.7055
H23B H 0.6766 0.0207 0.6901
C16B C 0.6042(2) -0.11510(15) 0.82461(17)
H24B H 0.6796 -0.1316 0.8138
H25B H 0.5943 -0.1338 0.8837
H26B H 0.5466 -0.1421 0.7805
C17B C 0.8923(2) 0.03282(16) 0.59004(14)
H27B H 0.9256 0.0865 0.5738
H28B H 0.8961 -0.0100 0.5441
H29B H 0.8131 0.0425 0.5960
C18B C 1.1222(2) -0.02716(17) 0.68459(16)
H30B H 1.1583 0.0265 0.6718
H31B H 1.1631 -0.0516 0.7394
H32B H 1.1239 -0.0674 0.6360
C19B C 0.9086(3) -0.10887(18) 0.7264(2)
H33B H 0.9219 -0.1532 0.6843
H34B H 0.9435 -0.1260 0.7860
H35B H 0.8270 -0.1013 0.7243
C20B C 1.29341(19) 0.23015(16) 0.92878(16)
H36B H 1.3103 0.1707 0.9461
H37B H 1.2964 0.2371 0.8659
H38B H 1.3493 0.2678 0.9632
C21B C 1.1471(2) 0.2480(2) 1.07017(15)
H39B H 1.0773 0.2732 1.0842
H40B H 1.1504 0.1874 1.0865
H41B H 1.2126 0.2778 1.1032
C22B C 1.1188(2) 0.37059(16) 0.91423(19)
H42B H 1.1735 0.4087 0.9492
H43B H 1.1249 0.3761 0.8517
H44B H 1.0420 0.3860 0.9228
Zr1 Zr 1.094731(15) 0.920649(13) 0.069409(13)
H1 H 1.135(4) 1.019(3) 0.136(3)
Si1 Si 1.23538(6) 0.73287(4) -0.06214(5)
Si2 Si 1.41074(4) 0.99735(4) 0.18338(4)
Si3 Si 1.02756(5) 1.00617(4) 0.30284(4)
Si4 Si 0.85121(5) 0.74154(4) 0.04978(4)
O1 O 1.0147(3) 1.0207(2) 0.0191(2)
C1 C 1.30936(16) 0.94458(13) 0.09427(13)
C2 C 1.26264(16) 0.98258(13) 0.01173(13)
H3 H 1.259(2) 1.0404(16) -0.0008(15)
C3 C 1.21979(18) 0.91881(13) -0.04716(13)
H4 H 1.182(2) 0.9291(15) -0.1034(17)
C4 C 1.23656(19) 0.83746(13) -0.00449(14)
C5 C 1.29355(16) 0.85566(13) 0.08219(13)
H5 H 1.3198(19) 0.8115(14) 0.1263(14)
C6 C 0.95669(16) 0.81200(13) 0.11909(12)
C7 C 1.06823(17) 0.78921(13) 0.16100(13)
H6 H 1.1046(19) 0.7412(14) 0.1474(14)
C8 C 1.11062(17) 0.85274(13) 0.22124(13)
H7 H 1.182(2) 0.8514(14) 0.2562(14)
C9 C 1.02805(17) 0.91856(13) 0.22005(13)
C10 C 0.93413(16) 0.89126(13) 0.15687(12)
H8 H 0.866(2) 0.9214(13) 0.1422(15)
C11 C 1.1751(2) 0.64362(16) -0.00444(19)
H9 H 1.2143 0.6404 0.0567
H10 H 1.1852 0.5897 -0.0346
H11 H 1.0943 0.6538 -0.0050
C12 C 1.1541(3) 0.74121(19) -0.17564(18)
H12 H 1.0762 0.7586 -0.1728
H13 H 1.1536 0.6856 -0.2050
H14 H 1.1896 0.7838 -0.2090
C13 C 1.3866(3) 0.7089(2) -0.0651(3)
H15 H 1.4158 0.7491 -0.1047
H16 H 1.3936 0.6505 -0.0864
H17 H 1.4304 0.7144 -0.0056
C14 C 1.5548(2) 0.9680(2) 0.1634(2)
H18 H 1.5661 0.9898 0.1057
H19 H 1.5628 0.9058 0.1643
H20 H 1.6116 0.9931 0.2095
C15 C 1.3946(2) 0.95795(17) 0.29461(15)
H21 H 1.4581 0.9784 0.3381
H22 H 1.3938 0.8954 0.2945
H23 H 1.3234 0.9793 0.3099
C16 C 1.3958(2) 1.11510(15) 0.17539(17)
H24 H 1.3204 1.1316 0.1862
H25 H 1.4057 1.1338 0.1163
H26 H 1.4534 1.1421 0.2195
C17 C 1.1077(2) 0.96718(16) 0.40996(14)
H27 H 1.0744 0.9135 0.4262
H28 H 1.1039 1.0100 0.4559
H29 H 1.1869 0.9575 0.4040
C18 C 0.8778(2) 1.02716(17) 0.31541(16)
H30 H 0.8417 0.9735 0.3282
H31 H 0.8369 1.0516 0.2606
H32 H 0.8761 1.0674 0.3640
C19 C 1.0914(3) 1.10887(18) 0.2736(2)
H33 H 1.0781 1.1532 0.3157
H34 H 1.0565 1.1260 0.2140
H35 H 1.1730 1.1013 0.2757
C20 C 0.70659(19) 0.76985(16) 0.07122(16)
H36 H 0.6897 0.8293 0.0539
H37 H 0.7036 0.7629 0.1341
H38 H 0.6507 0.7322 0.0368
C21 C 0.8529(2) 0.7520(2) -0.07017(15)
H39 H 0.9227 0.7268 -0.0842
H40 H 0.8496 0.8126 -0.0865
H41 H 0.7874 0.7222 -0.1032
C22 C 0.8812(2) 0.62941(16) 0.08577(19)
H42 H 0.8265 0.5913 0.0508
H43 H 0.8751 0.6239 0.1483
H44 H 0.9580 0.6140 0.0772
Zr1B Zr 0.905269(15) 1.079351(13) -0.069409(13)
H1B H 0.865(4) 0.981(3) -0.136(3)
Si1B Si 0.76462(6) 1.26713(4) 0.06214(5)
Si2B Si 0.58926(4) 1.00265(4) -0.18338(4)
Si3B Si 0.97244(5) 0.99383(4) -0.30284(4)
Si4B Si 1.14879(5) 1.25846(4) -0.04978(4)
O1B O 0.9853(3) 0.9793(2) -0.0191(2)
C1B C 0.69064(16) 1.05542(13) -0.09427(13)
C2B C 0.73736(16) 1.01742(13) -0.01173(13)
H3B H 0.741(2) 0.9596(16) 0.0008(15)
C3B C 0.78021(18) 1.08119(13) 0.04716(13)
H4B H 0.818(2) 1.0709(15) 0.1034(17)
C4B C 0.76344(19) 1.16254(13) 0.00449(14)
C5B C 0.70645(16) 1.14434(13) -0.08219(13)
H5B H 0.6802(19) 1.1885(14) -0.1263(14)
C6B C 1.04331(16) 1.18800(13) -0.11909(12)
C7B C 0.93177(17) 1.21079(13) -0.16100(13)
H6B H 0.8954(19) 1.2588(14) -0.1474(14)
C8B C 0.88938(17) 1.14726(13) -0.22124(13)
H7B H 0.818(2) 1.1486(14) -0.2562(14)
C9B C 0.97195(17) 1.08144(13) -0.22005(13)
C10B C 1.06587(16) 1.10874(13) -0.15687(12)
H8B H 1.134(2) 1.0786(13) -0.1422(15)
C11B C 0.8249(2) 1.35638(16) 0.00444(19)
H9B H 0.7857 1.3596 -0.0567
H10B H 0.8148 1.4103 0.0346
H11B H 0.9057 1.3462 0.0050
C12B C 0.8459(3) 1.25879(19) 0.17564(18)
H12B H 0.9238 1.2414 0.1728
H13B H 0.8464 1.3144 0.2050
H14B H 0.8104 1.2162 0.2090
C13B C 0.6134(3) 1.2911(2) 0.0651(3)
H15B H 0.5842 1.2509 0.1047
H16B H 0.6064 1.3495 0.0864
H17B H 0.5696 1.2856 0.0056
C14B C 0.4452(2) 1.0320(2) -0.1634(2)
H18B H 0.4339 1.0102 -0.1057
H19B H 0.4372 1.0942 -0.1643
H20B H 0.3884 1.0069 -0.2095
C15B C 0.6054(2) 1.04205(17) -0.29461(15)
H21B H 0.5419 1.0216 -0.3381
H22B H 0.6062 1.1046 -0.2945
H23B H 0.6766 1.0207 -0.3099
C16B C 0.6042(2) 0.88490(15) -0.17539(17)
H24B H 0.6796 0.8684 -0.1862
H25B H 0.5943 0.8662 -0.1163
H26B H 0.5466 0.8579 -0.2195
C17B C 0.8923(2) 1.03282(16) -0.40996(14)
H27B H 0.9256 1.0865 -0.4262
H28B H 0.8961 0.9900 -0.4559
H29B H 0.8131 1.0425 -0.4040
C18B C 1.1222(2) 0.97284(17) -0.31541(16)
H30B H 1.1583 1.0265 -0.3282
H31B H 1.1631 0.9484 -0.2606
H32B H 1.1239 0.9326 -0.3640
C19B C 0.9086(3) 0.89113(18) -0.2736(2)
H33B H 0.9219 0.8468 -0.3157
H34B H 0.9435 0.8740 -0.2140
H35B H 0.8270 0.8987 -0.2757
C20B C 1.29341(19) 1.23015(16) -0.07122(16)
H36B H 1.3103 1.1707 -0.0539
H37B H 1.2964 1.2371 -0.1341
H38B H 1.3493 1.2678 -0.0368
C21B C 1.1471(2) 1.2480(2) 0.07017(15)
H39B H 1.0773 1.2732 0.0842
H40B H 1.1504 1.1874 0.0865
H41B H 1.2126 1.2778 0.1032
C22B C 1.1188(2) 1.37059(16) -0.08577(19)
H42B H 1.1735 1.4087 -0.0508
H43B H 1.1249 1.3761 -0.1483
H44B H 1.0420 1.3860 -0.0772
Zr1 Zr 1.094731(15) 0.920649(13) 1.069409(13)
H1 H 1.135(4) 1.019(3) 1.136(3)
Si1 Si 1.23538(6) 0.73287(4) 0.93786(5)
Si2 Si 1.41074(4) 0.99735(4) 1.18338(4)
Si3 Si 1.02756(5) 1.00617(4) 1.30284(4)
Si4 Si 0.85121(5) 0.74154(4) 1.04978(4)
O1 O 1.0147(3) 1.0207(2) 1.0191(2)
C1 C 1.30936(16) 0.94458(13) 1.09427(13)
C2 C 1.26264(16) 0.98258(13) 1.01173(13)
H3 H 1.259(2) 1.0404(16) 0.9992(15)
C3 C 1.21979(18) 0.91881(13) 0.95284(13)
H4 H 1.182(2) 0.9291(15) 0.8966(17)
C4 C 1.23656(19) 0.83746(13) 0.99551(14)
C5 C 1.29355(16) 0.85566(13) 1.08219(13)
H5 H 1.3198(19) 0.8115(14) 1.1263(14)
C6 C 0.95669(16) 0.81200(13) 1.11909(12)
C7 C 1.06823(17) 0.78921(13) 1.16100(13)
H6 H 1.1046(19) 0.7412(14) 1.1474(14)
C8 C 1.11062(17) 0.85274(13) 1.22124(13)
H7 H 1.182(2) 0.8514(14) 1.2562(14)
C9 C 1.02805(17) 0.91856(13) 1.22005(13)
C10 C 0.93413(16) 0.89126(13) 1.15687(12)
H8 H 0.866(2) 0.9214(13) 1.1422(15)
C11 C 1.1751(2) 0.64362(16) 0.99556(19)
H9 H 1.2143 0.6404 1.0567
H10 H 1.1852 0.5897 0.9654
H11 H 1.0943 0.6538 0.9950
C12 C 1.1541(3) 0.74121(19) 0.82436(18)
H12 H 1.0762 0.7586 0.8272
H13 H 1.1536 0.6856 0.7950
H14 H 1.1896 0.7838 0.7910
C13 C 1.3866(3) 0.7089(2) 0.9349(3)
H15 H 1.4158 0.7491 0.8953
H16 H 1.3936 0.6505 0.9136
H17 H 1.4304 0.7144 0.9944
C14 C 1.5548(2) 0.9680(2) 1.1634(2)
H18 H 1.5661 0.9898 1.1057
H19 H 1.5628 0.9058 1.1643
H20 H 1.6116 0.9931 1.2095
C15 C 1.3946(2) 0.95795(17) 1.29461(15)
H21 H 1.4581 0.9784 1.3381
H22 H 1.3938 0.8954 1.2945
H23 H 1.3234 0.9793 1.3099
C16 C 1.3958(2) 1.11510(15) 1.17539(17)
H24 H 1.3204 1.1316 1.1862
H25 H 1.4057 1.1338 1.1163
H26 H 1.4534 1.1421 1.2195
C17 C 1.1077(2) 0.96718(16) 1.40996(14)
H27 H 1.0744 0.9135 1.4262
H28 H 1.1039 1.0100 1.4559
H29 H 1.1869 0.9575 1.4040
C18 C 0.8778(2) 1.02716(17) 1.31541(16)
H30 H 0.8417 0.9735 1.3282
H31 H 0.8369 1.0516 1.2606
H32 H 0.8761 1.0674 1.3640
C19 C 1.0914(3) 1.10887(18) 1.2736(2)
H33 H 1.0781 1.1532 1.3157
H34 H 1.0565 1.1260 1.2140
H35 H 1.1730 1.1013 1.2757
C20 C 0.70659(19) 0.76985(16) 1.07122(16)
H36 H 0.6897 0.8293 1.0539
H37 H 0.7036 0.7629 1.1341
H38 H 0.6507 0.7322 1.0368
C21 C 0.8529(2) 0.7520(2) 0.92983(15)
H39 H 0.9227 0.7268 0.9158
H40 H 0.8496 0.8126 0.9135
H41 H 0.7874 0.7222 0.8968
C22 C 0.8812(2) 0.62941(16) 1.08577(19)
H42 H 0.8265 0.5913 1.0508
H43 H 0.8751 0.6239 1.1483
H44 H 0.9580 0.6140 1.0772
Zr1B Zr 0.905269(15) 1.079351(13) 0.930591(13)
H1B H 0.865(4) 0.981(3) 0.864(3)
Si1B Si 0.76462(6) 1.26713(4) 1.06214(5)
Si2B Si 0.58926(4) 1.00265(4) 0.81662(4)
Si3B Si 0.97244(5) 0.99383(4) 0.69716(4)
Si4B Si 1.14879(5) 1.25846(4) 0.95022(4)
O1B O 0.9853(3) 0.9793(2) 0.9809(2)
C1B C 0.69064(16) 1.05542(13) 0.90573(13)
C2B C 0.73736(16) 1.01742(13) 0.98827(13)
H3B H 0.741(2) 0.9596(16) 1.0008(15)
C3B C 0.78021(18) 1.08119(13) 1.04716(13)
H4B H 0.818(2) 1.0709(15) 1.1034(17)
C4B C 0.76344(19) 1.16254(13) 1.00449(14)
C5B C 0.70645(16) 1.14434(13) 0.91781(13)
H5B H 0.6802(19) 1.1885(14) 0.8737(14)
C6B C 1.04331(16) 1.18800(13) 0.88091(12)
C7B C 0.93177(17) 1.21079(13) 0.83900(13)
H6B H 0.8954(19) 1.2588(14) 0.8526(14)
C8B C 0.88938(17) 1.14726(13) 0.77876(13)
H7B H 0.818(2) 1.1486(14) 0.7438(14)
C9B C 0.97195(17) 1.08144(13) 0.77995(13)
C10B C 1.06587(16) 1.10874(13) 0.84313(12)
H8B H 1.134(2) 1.0786(13) 0.8578(15)
C11B C 0.8249(2) 1.35638(16) 1.00444(19)
H9B H 0.7857 1.3596 0.9433
H10B H 0.8148 1.4103 1.0346
H11B H 0.9057 1.3462 1.0050
C12B C 0.8459(3) 1.25879(19) 1.17564(18)
H12B H 0.9238 1.2414 1.1728
H13B H 0.8464 1.3144 1.2050
H14B H 0.8104 1.2162 1.2090
C13B C 0.6134(3) 1.2911(2) 1.0651(3)
H15B H 0.5842 1.2509 1.1047
H16B H 0.6064 1.3495 1.0864
H17B H 0.5696 1.2856 1.0056
C14B C 0.4452(2) 1.0320(2) 0.8366(2)
H18B H 0.4339 1.0102 0.8943
H19B H 0.4372 1.0942 0.8357
H20B H 0.3884 1.0069 0.7905
C15B C 0.6054(2) 1.04205(17) 0.70539(15)
H21B H 0.5419 1.0216 0.6619
H22B H 0.6062 1.1046 0.7055
H23B H 0.6766 1.0207 0.6901
C16B C 0.6042(2) 0.88490(15) 0.82461(17)
H24B H 0.6796 0.8684 0.8138
H25B H 0.5943 0.8662 0.8837
H26B H 0.5466 0.8579 0.7805
C17B C 0.8923(2) 1.03282(16) 0.59004(14)
H27B H 0.9256 1.0865 0.5738
H28B H 0.8961 0.9900 0.5441
H29B H 0.8131 1.0425 0.5960
C18B C 1.1222(2) 0.97284(17) 0.68459(16)
H30B H 1.1583 1.0265 0.6718
H31B H 1.1631 0.9484 0.7394
H32B H 1.1239 0.9326 0.6360
C19B C 0.9086(3) 0.89113(18) 0.7264(2)
H33B H 0.9219 0.8468 0.6843
H34B H 0.9435 0.8740 0.7860
H35B H 0.8270 0.8987 0.7243
C20B C 1.29341(19) 1.23015(16) 0.92878(16)
H36B H 1.3103 1.1707 0.9461
H37B H 1.2964 1.2371 0.8659
H38B H 1.3493 1.2678 0.9632
C21B C 1.1471(2) 1.2480(2) 1.07017(15)
H39B H 1.0773 1.2732 1.0842
H40B H 1.1504 1.1874 1.0865
H41B H 1.2126 1.2778 1.1032
C22B C 1.1188(2) 1.37059(16) 0.91423(19)
H42B H 1.1735 1.4087 0.9492
H43B H 1.1249 1.3761 0.8517
H44B H 1.0420 1.3860 0.9228
Zr1 Zr 0.405269(15) 0.420649(13) 0.430591(13)
H1 H 0.365(4) 0.519(3) 0.364(3)
Si1 Si 0.26462(6) 0.23287(4) 0.56214(5)
Si2 Si 0.08926(4) 0.49735(4) 0.31662(4)
Si3 Si 0.47244(5) 0.50617(4) 0.19716(4)
Si4 Si 0.64879(5) 0.24154(4) 0.45022(4)
O1 O 0.4853(3) 0.5207(2) 0.4809(2)
C1 C 0.19064(16) 0.44458(13) 0.40573(13)
C2 C 0.23736(16) 0.48258(13) 0.48827(13)
H3 H 0.241(2) 0.5404(16) 0.5008(15)
C3 C 0.28021(18) 0.41881(13) 0.54716(13)
H4 H 0.318(2) 0.4291(15) 0.6034(17)
C4 C 0.26344(19) 0.33746(13) 0.50449(14)
C5 C 0.20645(16) 0.35566(13) 0.41781(13)
H5 H 0.1802(19) 0.3115(14) 0.3737(14)
C6 C 0.54331(16) 0.31200(13) 0.38091(12)
C7 C 0.43177(17) 0.28921(13) 0.33900(13)
H6 H 0.3954(19) 0.2412(14) 0.3526(14)
C8 C 0.38938(17) 0.35274(13) 0.27876(13)
H7 H 0.318(2) 0.3514(14) 0.2438(14)
C9 C 0.47195(17) 0.41856(13) 0.27995(13)
C10 C 0.56587(16) 0.39126(13) 0.34313(12)
H8 H 0.634(2) 0.4214(13) 0.3578(15)
C11 C 0.3249(2) 0.14362(16) 0.50444(19)
H9 H 0.2857 0.1404 0.4433
H10 H 0.3148 0.0897 0.5346
H11 H 0.4057 0.1538 0.5050
C12 C 0.3459(3) 0.24121(19) 0.67564(18)
H12 H 0.4238 0.2586 0.6728
H13 H 0.3464 0.1856 0.7050
H14 H 0.3104 0.2838 0.7090
C13 C 0.1134(3) 0.2089(2) 0.5651(3)
H15 H 0.0842 0.2491 0.6047
H16 H 0.1064 0.1505 0.5864
H17 H 0.0696 0.2144 0.5056
C14 C -0.0548(2) 0.4680(2) 0.3366(2)
H18 H -0.0661 0.4898 0.3943
H19 H -0.0628 0.4058 0.3357
H20 H -0.1116 0.4931 0.2905
C15 C 0.1054(2) 0.45795(17) 0.20539(15)
H21 H 0.0419 0.4784 0.1619
H22 H 0.1062 0.3954 0.2055
H23 H 0.1766 0.4793 0.1901
C16 C 0.1042(2) 0.61510(15) 0.32461(17)
H24 H 0.1796 0.6316 0.3138
H25 H 0.0943 0.6338 0.3837
H26 H 0.0466 0.6421 0.2805
C17 C 0.3923(2) 0.46718(16) 0.09004(14)
H27 H 0.4256 0.4135 0.0738
H28 H 0.3961 0.5100 0.0441
H29 H 0.3131 0.4575 0.0960
C18 C 0.6222(2) 0.52716(17) 0.18459(16)
H30 H 0.6583 0.4735 0.1718
H31 H 0.6631 0.5516 0.2394
H32 H 0.6239 0.5674 0.1360
C19 C 0.4086(3) 0.60887(18) 0.2264(2)
H33 H 0.4219 0.6532 0.1843
H34 H 0.4435 0.6260 0.2860
H35 H 0.3270 0.6013 0.2243
C20 C 0.79341(19) 0.26985(16) 0.42878(16)
H36 H 0.8103 0.3293 0.4461
H37 H 0.7964 0.2629 0.3659
H38 H 0.8493 0.2322 0.4632
C21 C 0.6471(2) 0.2520(2) 0.57017(15)
H39 H 0.5773 0.2268 0.5842
H40 H 0.6504 0.3126 0.5865
H41 H 0.7126 0.2222 0.6032
C22 C 0.6188(2) 0.12941(16) 0.41423(19)
H42 H 0.6735 0.0913 0.4492
H43 H 0.6249 0.1239 0.3517
H44 H 0.5420 0.1140 0.4228
Zr1B Zr 0.594731(15) 0.579351(13) 0.569409(13)
H1B H 0.635(4) 0.481(3) 0.636(3)
Si1B Si 0.73538(6) 0.76713(4) 0.43786(5)
Si2B Si 0.91074(4) 0.50265(4) 0.68338(4)
Si3B Si 0.52756(5) 0.49383(4) 0.80284(4)
Si4B Si 0.35121(5) 0.75846(4) 0.54978(4)
O1B O 0.5147(3) 0.4793(2) 0.5191(2)
C1B C 0.80936(16) 0.55542(13) 0.59427(13)
C2B C 0.76264(16) 0.51742(13) 0.51173(13)
H3B H 0.759(2) 0.4596(16) 0.4992(15)
C3B C 0.71979(18) 0.58119(13) 0.45284(13)
H4B H 0.682(2) 0.5709(15) 0.3966(17)
C4B C 0.73656(19) 0.66254(13) 0.49551(14)
C5B C 0.79355(16) 0.64434(13) 0.58219(13)
H5B H 0.8198(19) 0.6885(14) 0.6263(14)
C6B C 0.45669(16) 0.68800(13) 0.61909(12)
C7B C 0.56823(17) 0.71079(13) 0.66100(13)
H6B H 0.6046(19) 0.7588(14) 0.6474(14)
C8B C 0.61062(17) 0.64726(13) 0.72124(13)
H7B H 0.682(2) 0.6486(14) 0.7562(14)
C9B C 0.52805(17) 0.58144(13) 0.72005(13)
C10B C 0.43413(16) 0.60874(13) 0.65687(12)
H8B H 0.366(2) 0.5786(13) 0.6422(15)
C11B C 0.6751(2) 0.85638(16) 0.49556(19)
H9B H 0.7143 0.8596 0.5567
H10B H 0.6852 0.9103 0.4654
H11B H 0.5943 0.8462 0.4950
C12B C 0.6541(3) 0.75879(19) 0.32436(18)
H12B H 0.5762 0.7414 0.3272
H13B H 0.6536 0.8144 0.2950
H14B H 0.6896 0.7162 0.2910
C13B C 0.8866(3) 0.7911(2) 0.4349(3)
H15B H 0.9158 0.7509 0.3953
H16B H 0.8936 0.8495 0.4136
H17B H 0.9304 0.7856 0.4944
C14B C 1.0548(2) 0.5320(2) 0.6634(2)
H18B H 1.0661 0.5102 0.6057
H19B H 1.0628 0.5942 0.6643
H20B H 1.1116 0.5069 0.7095
C15B C 0.8946(2) 0.54205(17) 0.79461(15)
H21B H 0.9581 0.5216 0.8381
H22B H 0.8938 0.6046 0.7945
H23B H 0.8234 0.5207 0.8099
C16B C 0.8958(2) 0.38490(15) 0.67539(17)
H24B H 0.8204 0.3684 0.6862
H25B H 0.9057 0.3662 0.6163
H26B H 0.9534 0.3579 0.7195
C17B C 0.6077(2) 0.53282(16) 0.90996(14)
H27B H 0.5744 0.5865 0.9262
H28B H 0.6039 0.4900 0.9559
H29B H 0.6869 0.5425 0.9040
C18B C 0.3778(2) 0.47284(17) 0.81541(16)
H30B H 0.3417 0.5265 0.8282
H31B H 0.3369 0.4484 0.7606
H32B H 0.3761 0.4326 0.8640
C19B C 0.5914(3) 0.39113(18) 0.7736(2)
H33B H 0.5781 0.3468 0.8157
H34B H 0.5565 0.3740 0.7140
H35B H 0.6730 0.3987 0.7757
C20B C 0.20659(19) 0.73015(16) 0.57122(16)
H36B H 0.1897 0.6707 0.5539
H37B H 0.2036 0.7371 0.6341
H38B H 0.1507 0.7678 0.5368
C21B C 0.3529(2) 0.7480(2) 0.42983(15)
H39B H 0.4227 0.7732 0.4158
H40B H 0.3496 0.6874 0.4135
H41B H 0.2874 0.7778 0.3968
C22B C 0.3812(2) 0.87059(16) 0.58577(19)
H42B H 0.3265 0.9087 0.5508
H43B H 0.3751 0.8761 0.6483
H44B H 0.4580 0.8860 0.5772
H2? H 0.031(5) 0.852(4) 0.973(4)
H2? H 0.469(5) 0.352(4) 0.527(4)
H2? H 0.969(5) 0.148(4) 0.027(4)
H2? H 0.531(5) 0.648(4) 0.473(4)

#END
