./ACODUS_from_POSCAR.cif_generated_by_CrystalShift
_symmetry_cell_setting triclinic
_symmetry_space_group_name_H-M 'P 1'
loop_
_symmetry_equiv_pos_site_id
_symmetry_equiv_pos_as_xyz
1 x,y,z
_cell_length_a 11.650000
_cell_length_b 15.897000
_cell_length_c 19.724000
_cell_angle_alpha 113.310000
_cell_angle_beta 106.590000
_cell_angle_gamma 90.190000
_cell_volume 3186.887554
loop_
_atom_site_label
_atom_site_type_symbol
_atom_site_fract_x
_atom_site_fract_y
_atom_site_fract_z
H1 H 0.484000 0.466700 0.333100
H2 H 0.560600 0.494800 0.247200
H3 H 0.747300 0.455900 0.237600
H4 H 0.858000 0.387900 0.314400
H5 H 0.781900 0.357800 0.399700
H6 H 0.886000 0.455500 0.602500
H7 H 1.133000 0.818400 0.977800
H8 H 1.007300 0.524200 0.731100
H9 H 1.233000 0.720300 1.029100
H10 H 0.966600 0.661100 0.816100
H11 H 1.130500 0.628700 1.063400
H12 H 0.803400 0.728700 0.772400
H13 H 0.928300 0.636900 1.051600
H14 H 0.680600 0.660400 0.644900
H15 H 0.827600 0.734900 1.001000
H16 H 0.373600 0.342300 0.516100
H17 H 0.274400 0.194200 0.465200
H18 H 0.616800 0.832100 0.891600
H19 H 0.379300 0.068800 0.434700
H20 H 0.505600 0.764500 0.760700
H21 H 0.584500 0.091000 0.455600
H22 H 0.550000 0.815000 0.675100
H23 H 0.684900 0.239700 0.505600
H24 H 0.703800 0.932900 0.720200
H25 H 0.464700 0.185800 0.868000
H26 H 0.815400 1.000600 0.849600
H27 H 0.516000 0.533300 0.666900
H28 H 0.439400 0.505200 0.752800
H29 H 0.709300 0.939600 1.091600
H30 H 0.252700 0.544100 0.762400
H31 H 0.622600 1.050500 1.172700
H32 H 0.142000 0.612100 0.685600
H33 H 0.726100 1.196500 1.250900
H34 H 0.218100 0.642200 0.600300
H35 H 0.914700 1.232800 1.246400
H36 H 0.114000 0.544500 0.397500
H37 H 1.001500 1.123600 1.165100
H38 H 0.037000 0.258500 0.736100
H39 H -0.007300 0.475800 0.268900
H40 H 0.033400 0.338900 0.183900
H41 H 0.196600 0.271300 0.227600
H42 H 0.319400 0.339600 0.355100
H43 H 0.626400 0.657700 0.483900
H44 H -0.133000 0.181600 0.022200
H45 H 0.725600 0.805800 0.534800
H46 H -0.233000 0.279700 -0.029100
H47 H 0.620700 0.931200 0.565300
H48 H -0.130500 0.371300 -0.063400
H49 H 0.415500 0.909000 0.544400
H50 H 0.071700 0.363100 -0.051600
H51 H 0.315100 0.760300 0.494400
H52 H 0.172400 0.265100 -0.001000
H53 H 0.569300 0.083300 0.911400
H54 H 0.258800 0.997400 0.708900
H55 H 0.383200 0.167900 0.108400
H56 H 0.467700 1.016100 0.748000
H57 H 0.494400 0.235500 0.239300
H58 H 0.569900 1.096600 0.703200
H59 H 0.450000 0.185000 0.324900
H60 H 0.463900 1.154200 0.617000
H61 H 0.296200 0.067100 0.279800
H62 H 0.254200 1.134600 0.577100
H63 H 0.184600 -0.000600 0.150400
H64 H -0.207400 1.086100 0.562300
H65 H -0.276400 1.203400 0.650000
H66 H 0.290700 0.060400 -0.091600
H67 H -0.220400 1.227700 0.778400
H68 H 0.377400 -0.050500 -0.172700
H69 H -0.095100 1.134900 0.820700
H70 H 0.273900 -0.196500 -0.250900
H71 H -0.026400 1.016400 0.733700
H72 H 0.085300 -0.232800 -0.246400
H73 H 0.049200 0.810100 0.626400
H74 H -0.001500 -0.123600 -0.165100
H75 H -0.071000 0.375600 0.786700
H76 H -0.056600 0.664900 0.583100
H77 H -0.145900 0.577700 0.451500
H78 H -0.127300 0.634000 0.364600
H79 H -0.022300 0.778500 0.406900
H80 H 0.650100 0.122000 1.042600
H81 H 0.478600 0.635100 -0.088400
H82 H 0.741200 0.002600 0.291100
H83 H 0.374700 0.737900 -0.130300
H84 H 0.532300 -0.016100 0.252000
H85 H 0.349900 0.878000 -0.042600
H86 H 0.430100 -0.096600 0.296800
H87 H 0.430700 0.916700 0.088600
H88 H 0.536100 -0.154200 0.383000
H89 H 0.535300 0.814200 0.132000
H90 H 0.745800 -0.134600 0.422900
H91 H 1.207400 -0.086100 0.437700
H92 H 0.754900 0.716100 0.225000
H93 H 1.276400 -0.203400 0.350000
H94 H 0.963000 0.741500 0.263900
H95 H 1.220400 -0.227700 0.221600
H96 H 1.071000 0.624400 0.213300
H97 H 1.095100 -0.134900 0.179300
H98 H 0.969800 0.482500 0.119700
H99 H 1.026400 -0.016400 0.266300
H100 H 0.760900 0.456900 0.077800
H101 H 0.950800 0.189900 0.373600
H102 H 1.056600 0.335100 0.416900
H103 H 0.467900 0.698200 0.231600
H104 H 1.145900 0.422300 0.548500
H105 H 0.402500 0.659700 0.317500
H106 H 1.127300 0.366000 0.635400
H107 H 0.274500 0.523600 0.271300
H108 H 1.022300 0.221500 0.593100
H109 H 0.217000 0.426700 0.141800
H110 H 0.030200 0.517500 0.880300
H111 H 0.284800 0.463500 0.056600
H112 H 0.625300 0.262100 1.130300
H113 H 0.715200 0.536500 0.943400
H114 H 0.783000 0.573300 0.858200
H115 H 0.725500 0.476400 0.728700
H116 H 0.597500 0.340300 0.682500
H117 H 0.532100 0.301800 0.768400
H118 H 0.521400 0.364900 1.088400
H119 H 0.239100 0.543100 0.922200
H120 H 0.245100 0.283900 0.775000
B121 B 0.042600 0.972490 0.584460
B122 B 0.539200 0.610900 0.087710
B123 B 0.373530 0.568750 0.497980
B124 B 0.127400 0.080080 0.004290
B125 B 0.626470 0.431250 0.502020
B126 B 0.957400 0.027510 0.415540
B127 B 0.460800 0.389100 0.912290
B128 B 0.872600 0.919920 0.995710
C129 C 0.261300 0.415800 0.852610
C130 C 0.077600 0.316070 0.773050
C131 C 0.497200 0.201190 0.920970
C132 C 0.013010 0.385640 0.803550
C133 C 0.559800 0.140110 0.947090
C134 C 0.073690 0.470430 0.859340
C135 C 0.607900 0.162910 1.025230
C136 C 0.198300 0.485970 0.884370
C137 C 0.593000 0.246620 1.077280
C138 C 0.616960 0.415980 0.863500
C139 C 0.582080 0.356840 0.786310
C140 C 0.531100 0.308310 1.052590
C141 C 0.621700 0.379550 0.735120
C142 C 0.484120 0.284810 0.974570
C143 C 0.697770 0.460980 0.762680
C144 C 0.559310 0.450610 0.329320
C145 C 0.731940 0.518600 0.839830
C146 C 0.605500 0.467390 0.278110
C147 C 0.691760 0.496780 0.890920
C148 C 0.716700 0.444210 0.272180
C149 C 0.308240 0.503220 0.109080
C150 C 0.782390 0.403590 0.317960
C151 C 0.971520 0.785520 0.985360
C152 C 0.737410 0.385810 0.369150
C153 C 0.978460 0.192610 0.479550
C154 C 1.029500 0.244150 0.557450
C155 C 0.268060 0.481400 0.160170
C156 C 1.092100 0.330530 0.582440
C157 C 0.302230 0.539020 0.237320
C158 C 1.103000 0.364280 0.530930
C159 C 0.378300 0.620450 0.264880
C160 C 1.050000 0.312100 0.452460
C161 C 0.417920 0.643160 0.213690
C162 C 0.986900 0.225350 0.426490
C163 C 0.383040 0.584020 0.136500
C164 C 1.110160 -0.040590 0.360000
C165 C 1.076500 -0.054300 0.283180
C166 C 0.801700 0.514030 0.115630
C167 C 1.117900 -0.124950 0.231380
C168 C 0.926310 0.529570 0.140660
C169 C 1.192490 -0.180350 0.256500
C170 C 0.986990 0.614360 0.196450
C171 C 1.225740 -0.165790 0.333110
C172 C 0.922400 0.683930 0.226950
C173 C 1.184760 -0.095710 0.385730
C174 C 0.798240 0.669230 0.203430
C175 C 0.762080 -0.063980 0.360530
C176 C 0.702800 -0.110960 0.388440
C177 C 0.738700 0.584200 0.147390
C178 C 0.577500 -0.122620 0.364340
C179 C 0.502800 0.798810 0.079030
C180 C 0.514200 -0.087970 0.313160
C181 C 0.440200 0.859890 0.052910
C182 C 0.575000 -0.040400 0.286090
C183 C 0.392100 0.837090 -0.025230
C184 C 0.699680 -0.028890 0.309660
C185 C 0.407000 0.753380 -0.077280
C186 C 0.468900 0.691690 -0.052590
C187 C 0.625830 0.409980 0.374540
C188 C 1.091960 0.782020 0.992750
C189 C 0.869040 0.510170 0.636840
C190 C 0.021540 0.807390 0.520450
C191 C -0.029500 0.755850 0.442550
C192 C 0.515880 0.715190 0.025430
C193 C -0.092100 0.669470 0.417560
C194 C 1.151100 0.722960 1.023050
C195 C -0.103000 0.635720 0.469070
C196 C 0.941600 0.551690 0.713620
C197 C -0.050000 0.687900 0.547540
C198 C 1.090300 0.668790 1.044010
C199 C 0.013100 0.774650 0.573510
C200 C 0.074620 -0.108690 -0.166770
C201 C -0.110160 1.040590 0.640000
C202 C -0.076500 1.054300 0.716820
C203 C 0.126900 -0.173730 -0.215180
C204 C -0.117900 1.124950 0.768620
C205 C 0.239600 -0.152360 -0.217900
C206 C -0.192490 1.180350 0.743500
C207 C 0.300800 -0.065220 -0.171480
C208 C -0.225740 1.165790 0.666890
C209 C 0.249420 0.001160 -0.122730
C210 C -0.184760 1.095710 0.614270
C211 C 0.136920 -0.021740 -0.121100
C212 C 0.237920 1.063980 0.639470
C213 C 0.297200 1.110960 0.611560
C214 C 0.246700 0.047240 0.168310
C215 C 0.422500 1.122620 0.635660
C216 C 0.313600 0.087700 0.245360
C217 C 0.485800 1.087970 0.686840
C218 C 0.405500 0.157890 0.272430
C219 C 0.425000 1.040400 0.713910
C220 C 0.431700 0.188010 0.221290
C221 C 0.300320 1.028890 0.690340
C222 C 0.365280 0.147980 0.143070
C223 C 0.272810 0.078550 0.117680
C224 C 0.917500 0.633440 0.764580
C225 C 0.969400 0.673260 1.036560
C226 C 0.819900 0.673580 0.738320
C227 C 0.462190 0.695620 0.484830
C228 C 0.397700 0.769700 0.502500
C229 C 0.090700 0.268110 -0.006620
C230 C 0.457900 0.858390 0.532550
C231 C 0.030600 0.326740 -0.036560
C232 C 0.580400 0.871720 0.544820
C233 C -0.090300 0.331210 -0.044010
C234 C 0.643000 0.796680 0.526630
C235 C -0.151100 0.277040 -0.023050
C236 C 0.584110 0.708280 0.496380
C237 C -0.091960 0.217980 0.007250
C238 C 0.228620 0.448900 0.387770
C239 C 0.253670 0.367010 0.337720
C240 C 0.028480 0.214480 0.014640
C241 C 0.180100 0.326420 0.261680
C242 C 0.909300 0.731890 1.006620
C243 C 0.082500 0.366560 0.235420
C244 C 0.746330 0.632990 0.662280
C245 C 0.058400 0.448310 0.286380
C246 C 0.771380 0.551100 0.612230
C247 C 0.130960 0.489830 0.363160
C248 C 0.925380 1.108690 1.166770
C249 C 0.374170 0.590020 0.625460
C250 C 0.262590 0.614190 0.630850
C251 C 0.873100 1.173730 1.215180
C252 C 0.217610 0.596410 0.682040
C253 C 0.760400 1.152360 1.217900
C254 C 0.283300 0.555790 0.727820
C255 C 0.699200 1.065220 1.171480
C256 C 0.394500 0.532610 0.721890
C257 C 0.750580 0.998840 1.122730
C258 C 0.440690 0.549390 0.670680
C259 C 0.863080 1.021740 1.121100
C260 C 0.753300 0.952760 0.831690
C261 C 0.727190 0.921450 0.882320
C262 C 0.415890 0.291720 0.503620
C263 C 0.634720 0.852020 0.856930
C264 C 0.537810 0.304380 0.515170
C265 C 0.602300 0.230300 0.497500
C266 C 0.686400 0.912300 0.754640
C267 C 0.542100 0.141610 0.467450
C268 C 0.594500 0.842110 0.727570
C269 C 0.419600 0.128280 0.455180
C270 C 0.568300 0.811990 0.778710
C271 C 0.357000 0.203320 0.473370
C272 C 0.201760 0.330770 0.796570
O273 O 0.700950 0.512910 0.534830
O274 O 0.598700 0.393880 0.547350
O275 O 0.089530 0.158100 0.048180
O276 O 0.207250 0.036060 0.039250
O277 O 0.082430 0.044730 -0.074500
O278 O 0.422050 0.611690 0.576660
O279 O 0.299050 0.487090 0.465170
O280 O 0.401300 0.606120 0.452650
O281 O 0.581440 0.654240 0.050860
O282 O 0.613590 0.566410 0.125440
O283 O 0.420940 0.608220 0.085060
O284 O 0.112820 1.055830 0.618810
O285 O -0.072740 0.967810 0.586650
O286 O 0.085450 0.894250 0.545440
O287 O 0.887180 -0.055830 0.381190
O288 O 1.072740 0.032190 0.413350
O289 O 0.914550 0.105750 0.454560
O290 O 0.917570 0.955270 1.074500
O291 O 0.418560 0.345760 0.949140
O292 O 0.792750 0.963940 0.960750
O293 O 0.386410 0.433590 0.874560
O294 O 0.910470 0.841900 0.951820
O295 O 0.579060 0.391780 0.914940
O296 O 0.577950 0.388310 0.423340

#END
