./ACOGOQ_from_POSCAR.cif_generated_by_CrystalShift
_symmetry_cell_setting triclinic
_symmetry_space_group_name_H-M 'P 1'
loop_
_symmetry_equiv_pos_site_id
_symmetry_equiv_pos_as_xyz
1 x,y,z
_cell_length_a 5.701200
_cell_length_b 7.823200
_cell_length_c 23.669000
_cell_angle_alpha 92.182000
_cell_angle_beta 96.212000
_cell_angle_gamma 92.041000
_cell_volume 1047.877160
loop_
_atom_site_label
_atom_site_type_symbol
_atom_site_fract_x
_atom_site_fract_y
_atom_site_fract_z
H1 H -2.130200 -0.626400 -0.788800
H2 H 0.920000 0.826500 0.006300
H3 H -1.927300 -0.400900 0.265700
H4 H -1.573300 -0.529700 0.299100
H5 H -1.714300 -0.651400 0.337700
H6 H -1.674600 -0.286900 0.354000
H7 H 0.206400 0.709400 -0.109000
H8 H -1.806600 -0.411300 0.393400
H9 H 0.434900 0.949800 -0.121600
H10 H -1.308100 -0.398000 0.387300
H11 H 0.798600 1.003900 -0.065300
H12 H -1.437400 -0.528900 0.425200
H13 H 1.048100 0.495600 0.079300
H14 H -1.554400 -0.296000 0.481500
H15 H 0.846700 0.802400 0.105600
H16 H -1.427500 -0.164500 0.443400
H17 H -1.182700 -0.401700 0.515400
H18 H 1.382800 0.572000 0.135600
H19 H -1.054400 -0.272600 0.476700
H20 H 1.681400 0.641400 0.208100
H21 H -1.179500 -0.036700 0.530800
H22 H -1.304500 -0.166600 0.569800
H23 H 1.317100 1.043000 0.260300
H24 H -0.804500 -0.139600 0.565300
H25 H 1.016900 0.970900 0.187600
H26 H -0.931300 -0.266500 0.605100
H27 H 1.561300 0.996900 0.345900
H28 H 1.689900 1.123400 0.305800
H29 H -0.935500 0.099400 0.616700
H30 H 2.062800 1.027300 0.343700
H31 H 1.935500 0.900600 0.383300
H32 H -1.062800 -0.027300 0.656300
H33 H 1.931300 1.266500 0.394900
H34 H 1.804500 1.139600 0.434700
H35 H -0.689900 -0.123400 0.694200
H36 H 2.304500 1.166600 0.430200
H37 H 2.179500 1.036700 0.469200
H38 H -0.561300 0.003100 0.654100
H39 H 2.054400 1.272600 0.523300
H40 H 2.182700 1.401700 0.484600
H41 H -0.016900 0.029100 0.812400
H42 H 2.427500 1.164500 0.556600
H43 H 2.554400 1.296000 0.518500
H44 H -0.317100 -0.043000 0.739700
H45 H 2.437400 1.528900 0.574800
H46 H 2.308100 1.398000 0.612700
H47 H -0.681400 0.358600 0.791900
H48 H 2.806600 1.411300 0.606600
H49 H 2.674600 1.286900 0.646000
H50 H -0.382800 0.428000 0.864400
H51 H 2.714300 1.651400 0.662300
H52 H 2.573300 1.529700 0.700900
H53 H 0.153300 0.197600 0.894400
H54 H 2.927300 1.400900 0.734300
H55 H 3.070400 1.515400 0.694100
H56 H -0.048100 0.504400 0.920700
H57 H 3.002900 1.763500 0.748700
H58 H 3.130200 1.626400 0.788800
H59 H 2.852600 1.651600 0.788300
H60 H -1.852600 -0.651600 0.211700
H61 H 0.201400 -0.003900 1.065300
H62 H 0.080000 0.173500 -0.006300
H63 H 0.565100 0.050200 1.121600
H64 H 0.793600 0.290600 1.109000
H65 H 0.080000 0.173500 0.993700
H66 H -2.002900 -0.763500 0.251300
H67 H 0.793600 0.290600 0.109000
H68 H 2.852600 1.651600 1.788300
H69 H 0.565100 0.050200 0.121600
H70 H 3.130200 1.626400 1.788800
H71 H 0.201400 -0.003900 0.065300
H72 H 3.002900 1.763500 1.748700
H73 H -0.048100 0.504400 -0.079300
H74 H 3.070400 1.515400 1.694100
H75 H 0.153300 0.197600 -0.105600
H76 H 2.927300 1.400900 1.734300
H77 H 2.573300 1.529700 1.700900
H78 H -0.382800 0.428000 -0.135600
H79 H 2.714300 1.651400 1.662300
H80 H -0.681400 0.358600 -0.208100
H81 H 2.674600 1.286900 1.646000
H82 H 2.806600 1.411300 1.606600
H83 H -0.317100 -0.043000 -0.260300
H84 H 2.308100 1.398000 1.612700
H85 H -0.016900 0.029100 -0.187600
H86 H 2.437400 1.528900 1.574800
H87 H -0.561300 0.003100 -0.345900
H88 H -0.689900 -0.123400 -0.305800
H89 H 2.554400 1.296000 1.518500
H90 H -1.062800 -0.027300 -0.343700
H91 H -0.935500 0.099400 -0.383300
H92 H 2.427500 1.164500 1.556600
H93 H -0.931300 -0.266500 -0.394900
H94 H -0.804500 -0.139600 -0.434700
H95 H 2.182700 1.401700 1.484600
H96 H -1.304500 -0.166600 -0.430200
H97 H -1.179500 -0.036700 -0.469200
H98 H 2.054400 1.272600 1.523300
H99 H -1.054400 -0.272600 -0.523300
H100 H -1.182700 -0.401700 -0.484600
H101 H 2.179500 1.036700 1.469200
H102 H -1.427500 -0.164500 -0.556600
H103 H -1.554400 -0.296000 -0.518500
H104 H 2.304500 1.166600 1.430200
H105 H -1.437400 -0.528900 -0.574800
H106 H -1.308100 -0.398000 -0.612700
H107 H 1.804500 1.139600 1.434700
H108 H -1.806600 -0.411300 -0.606600
H109 H -1.674600 -0.286900 -0.646000
H110 H 1.931300 1.266500 1.394900
H111 H -1.714300 -0.651400 -0.662300
H112 H -1.573300 -0.529700 -0.700900
H113 H 1.935500 0.900600 1.383300
H114 H -1.927300 -0.400900 -0.734300
H115 H -2.070400 -0.515400 -0.694100
H116 H 2.062800 1.027300 1.343700
H117 H -2.002900 -0.763500 -0.748700
H118 H -2.070400 -0.515400 0.305900
H119 H -1.852600 -0.651600 -0.788300
H120 H -2.130200 -0.626400 0.211200
H121 H 1.689900 1.123400 1.305800
H122 H 0.920000 0.826500 1.006300
H123 H 1.561300 0.996900 1.345900
H124 H 1.016900 0.970900 1.187600
H125 H 1.317100 1.043000 1.260300
H126 H 1.681400 0.641400 1.208100
H127 H 0.206400 0.709400 0.891000
H128 H 1.382800 0.572000 1.135600
H129 H 0.434900 0.949800 0.878400
H130 H 0.846700 0.802400 1.105600
H131 H 0.798600 1.003900 0.934700
H132 H 1.048100 0.495600 1.079300
C133 C 0.928200 0.577060 1.077110
C134 C 0.963800 0.719240 1.110570
C135 C 0.702300 0.906530 0.941220
C136 C 1.162700 0.761950 1.154140
C137 C 1.366800 0.666690 1.161040
C138 C 0.485900 0.873090 0.906950
C139 C 1.545000 0.708090 1.204200
C140 C 0.350400 0.731390 0.914760
C141 C 1.526800 0.846970 1.242200
C142 C 1.330000 0.946260 1.235460
C143 C 0.420000 0.614430 0.958020
C144 C 1.151600 0.902510 1.191860
C145 C 0.713600 0.538380 1.036780
C146 C 1.701200 1.013200 1.324980
C147 C 0.636400 0.652210 0.994190
C148 C 0.774600 0.800860 0.983480
C149 C 1.925500 1.013110 1.365560
C150 C -1.984700 -0.651140 -0.765030
C151 C -1.935900 -0.514330 -0.717290
C152 C 1.940900 1.153770 1.412490
C153 C -1.709200 -0.536420 -0.678300
C154 C -1.672100 -0.401510 -0.629630
C155 C 2.169000 1.150840 1.452610
C156 C -1.443600 -0.413170 -0.590310
C157 C -1.418900 -0.279900 -0.540920
C158 C 2.190400 1.287230 1.501010
C159 C -1.190400 -0.287230 -0.501010
C160 C -1.169000 -0.150840 -0.452610
C161 C 2.418900 1.279900 1.540920
C162 C -0.940900 -0.153770 -0.412490
C163 C -0.925500 -0.013110 -0.365560
C164 C 2.443600 1.413170 1.590310
C165 C -0.701200 -0.013200 -0.324980
C166 C -0.151600 0.097490 -0.191860
C167 C 2.672100 1.401510 1.629630
C168 C -0.330000 0.053740 -0.235460
C169 C -0.526800 0.153030 -0.242200
C170 C 2.709200 1.536420 1.678300
C171 C -0.545000 0.291910 -0.204200
C172 C -0.366800 0.333310 -0.161040
C173 C 2.935900 1.514330 1.717290
C174 C -0.162700 0.238050 -0.154140
C175 C 0.036200 0.280760 -0.110570
C176 C 2.984700 1.651140 1.765030
C177 C 0.071800 0.422940 -0.077110
C178 C 0.297700 0.093470 0.058780
C179 C 0.514100 0.126910 0.093050
C180 C 0.649600 0.268610 0.085240
C181 C 0.225400 0.199140 1.016520
C182 C 0.580000 0.385570 0.041980
C183 C 0.363600 0.347790 1.005810
C184 C 0.286400 0.461620 0.963220
C185 C 0.580000 0.385570 1.041980
C186 C 0.649600 0.268610 1.085240
C187 C 0.286400 0.461620 -0.036780
C188 C 0.514100 0.126910 1.093050
C189 C 0.363600 0.347790 0.005810
C190 C 0.297700 0.093470 1.058780
C191 C 0.225400 0.199140 0.016520
C192 C 0.071800 0.422940 0.922890
C193 C 2.984700 1.651140 0.765030
C194 C 0.036200 0.280760 0.889430
C195 C 2.935900 1.514330 0.717290
C196 C -0.162700 0.238050 0.845860
C197 C -0.366800 0.333310 0.838960
C198 C 2.709200 1.536420 0.678300
C199 C -0.545000 0.291910 0.795800
C200 C 2.672100 1.401510 0.629630
C201 C -0.526800 0.153030 0.757800
C202 C -0.330000 0.053740 0.764540
C203 C 2.443600 1.413170 0.590310
C204 C -0.151600 0.097490 0.808140
C205 C 2.418900 1.279900 0.540920
C206 C -0.701200 -0.013200 0.675020
C207 C 2.190400 1.287230 0.501010
C208 C 2.169000 1.150840 0.452610
C209 C -0.925500 -0.013110 0.634440
C210 C 1.940900 1.153770 0.412490
C211 C 1.925500 1.013110 0.365560
C212 C -0.940900 -0.153770 0.587510
C213 C 1.701200 1.013200 0.324980
C214 C 1.151600 0.902510 0.191860
C215 C -1.169000 -0.150840 0.547390
C216 C 1.330000 0.946260 0.235460
C217 C 1.526800 0.846970 0.242200
C218 C -1.190400 -0.287230 0.498990
C219 C 1.545000 0.708090 0.204200
C220 C 1.366800 0.666690 0.161040
C221 C -1.418900 -0.279900 0.459080
C222 C 1.162700 0.761950 0.154140
C223 C 0.963800 0.719240 0.110570
C224 C -1.443600 -0.413170 0.409690
C225 C 0.928200 0.577060 0.077110
C226 C 0.702300 0.906530 -0.058780
C227 C -1.672100 -0.401510 0.370370
C228 C 0.485900 0.873090 -0.093050
C229 C 0.350400 0.731390 -0.085240
C230 C -1.709200 -0.536420 0.321700
C231 C 0.420000 0.614430 -0.041980
C232 C 0.713600 0.538380 0.036780
C233 C -1.935900 -0.514330 0.282710
C234 C 0.636400 0.652210 -0.005810
C235 C 0.774600 0.800860 -0.016520
C236 C -1.984700 -0.651140 0.234970
O237 O -0.711940 0.124870 -0.284060
O238 O 1.711940 0.875130 0.284060
O239 O -0.711940 0.124870 0.715940
O240 O 1.711940 0.875130 1.284060

#END
