
#######################################################################
#
#                 Cambridge Crystallographic Data Centre
#                                CCDC 
#
#######################################################################
#
# If this CIF has been generated from an entry in the Cambridge 
# Structural Database, then it will include bibliographic, chemical, 
# crystal, experimental, refinement or atomic coordinate data resulting 
# from the CCDC's data processing and validation procedures.
#
#######################################################################

data_ACOGIK
_symmetry_cell_setting           triclinic
_symmetry_space_group_name_H-M   'P -1'
_symmetry_Int_Tables_number      2
_space_group_name_Hall           '-P 1'
loop_
_symmetry_equiv_pos_site_id
_symmetry_equiv_pos_as_xyz
1 x,y,z
2 -x,-y,-z
_cell_length_a                   5.2873(11)
_cell_length_b                   11.926(2)
_cell_length_c                   16.467(3)
_cell_angle_alpha                95.422(3)
_cell_angle_beta                 98.427(3)
_cell_angle_gamma                96.703(3)
_cell_volume                     1013.51
loop_
_atom_site_label
_atom_site_type_symbol
_atom_site_fract_x
_atom_site_fract_y
_atom_site_fract_z
C1 C -0.0887(3) 0.40764(11) 0.43689(8)
C2 C -0.2164(3) 0.50496(11) 0.43973(8)
C3 C -0.4362(3) 0.51400(13) 0.38023(9)
H1 H -0.4974 0.4530 0.3379
C4 C -0.5602(3) 0.60750(14) 0.38252(9)
H2 H -0.7087 0.6105 0.3430
C5 C -0.4685(3) 0.70038(13) 0.44374(10)
H3 H -0.5544 0.7660 0.4448
C6 C -0.2589(3) 0.69634(12) 0.50083(9)
H4 H -0.1981 0.7603 0.5407
C7 C -0.1262(3) 0.59829(11) 0.50282(8)
C8 C -0.1842(3) 0.31216(12) 0.37079(9)
H5 H -0.3488 0.2709 0.3713
C9 C -0.0565(3) 0.28077(12) 0.31154(9)
H6 H 0.1046 0.3254 0.3117
C10 C -0.1287(3) 0.18624(11) 0.24526(8)
C11 C 0.0238(3) 0.17560(12) 0.18293(8)
H7 H 0.1700 0.2305 0.1841
C12 C -0.0331(3) 0.08719(11) 0.11974(8)
H8 H 0.0732 0.0820 0.0781
C13 C -0.2457(3) 0.00609(11) 0.11723(8)
C14 C -0.4000(3) 0.01424(11) 0.17814(8)
H9 H -0.5460 -0.0410 0.1767
C15 C -0.3404(3) 0.10349(12) 0.24139(8)
H10 H -0.4468 0.1082 0.2830
C16 C -0.4987(3) -0.16625(11) 0.04734(8)
H11 H -0.6638 -0.1341 0.0404
H12 H -0.4849 -0.2048 0.0982
C17 C -0.4864(3) -0.24907(11) -0.02691(8)
H13 H -0.3130 -0.2739 -0.0213
H14 H -0.5099 -0.2096 -0.0772
C18 C -0.6886(3) -0.35325(11) -0.03754(9)
H15 H -0.8626 -0.3290 -0.0442
H16 H -0.6667 -0.3928 0.0127
C19 C -0.6673(3) -0.43505(12) -0.11237(9)
H17 H -0.6931 -0.3951 -0.1624
H18 H -0.4903 -0.4560 -0.1062
C20 C -0.8583(3) -0.54349(11) -0.12562(9)
H19 H -0.8351 -0.5837 -0.0757
H20 H -1.0361 -0.5235 -0.1335
C21 C -0.8240(3) -0.62255(12) -0.20016(9)
H21 H -0.6444 -0.6403 -0.1922
H22 H -0.8480 -0.5815 -0.2497
C22 C -1.0056(3) -0.73393(11) -0.21708(9)
H23 H -1.1860 -0.7173 -0.2224
H24 H -0.9745 -0.7783 -0.1696
C23 C -0.9700(3) -0.80508(12) -0.29547(9)
H25 H -0.9879 -0.7581 -0.3419
H26 H -0.7925 -0.8255 -0.2883
C24 C -1.1591(3) -0.91321(12) -0.31823(9)
H27 H -1.3370 -0.8937 -0.3220
H28 H -1.1331 -0.9630 -0.2738
C25 C -1.1297(4) -0.97808(15) -0.39983(11)
H29 H -1.1498 -0.9285 -0.4439
H30 H -1.2620 -1.0447 -0.4130
H31 H -0.9583 -1.0028 -0.3951
O1 O -0.28626(19) -0.07841(8) 0.05262(6)
C1A C 0.0887(3) 0.59236(11) 0.56311(8)
C2A C 0.2164(3) 0.49504(11) 0.56027(8)
C3A C 0.4362(3) 0.48600(13) 0.61977(9)
H1A H 0.4974 0.5470 0.6621
C4A C 0.5602(3) 0.39250(14) 0.61748(9)
H2A H 0.7087 0.3895 0.6570
C5A C 0.4685(3) 0.29962(13) 0.55626(10)
H3A H 0.5544 0.2340 0.5552
C6A C 0.2589(3) 0.30366(12) 0.49917(9)
H4A H 0.1981 0.2397 0.4593
C7A C 0.1262(3) 0.40171(11) 0.49718(8)
C8A C 0.1842(3) 0.68784(12) 0.62921(9)
H5A H 0.3488 0.7291 0.6287
C9A C 0.0565(3) 0.71923(12) 0.68846(9)
H6A H -0.1046 0.6746 0.6883
C10A C 0.1287(3) 0.81376(11) 0.75474(8)
C11A C -0.0238(3) 0.82440(12) 0.81707(8)
H7A H -0.1700 0.7695 0.8159
C12A C 0.0331(3) 0.91281(11) 0.88026(8)
H8A H -0.0732 0.9180 0.9219
C13A C 0.2457(3) 0.99391(11) 0.88277(8)
C14A C 0.4000(3) 0.98576(11) 0.82186(8)
H9A H 0.5460 1.0410 0.8233
C15A C 0.3404(3) 0.89651(12) 0.75861(8)
H10A H 0.4468 0.8918 0.7170
C16A C 0.4987(3) 1.16625(11) 0.95266(8)
H11A H 0.6638 1.1341 0.9596
H12A H 0.4849 1.2048 0.9018
C17A C 0.4864(3) 1.24907(11) 1.02691(8)
H13A H 0.3130 1.2739 1.0213
H14A H 0.5099 1.2096 1.0772
C18A C 0.6886(3) 1.35325(11) 1.03754(9)
H15A H 0.8626 1.3290 1.0442
H16A H 0.6667 1.3928 0.9873
C19A C 0.6673(3) 1.43505(12) 1.11237(9)
H17A H 0.6931 1.3951 1.1624
H18A H 0.4903 1.4560 1.1062
C20A C 0.8583(3) 1.54349(11) 1.12562(9)
H19A H 0.8351 1.5837 1.0757
H20A H 1.0361 1.5235 1.1335
C21A C 0.8240(3) 1.62255(12) 1.20016(9)
H21A H 0.6444 1.6403 1.1922
H22A H 0.8480 1.5815 1.2497
C22A C 1.0056(3) 1.73393(11) 1.21708(9)
H23A H 1.1860 1.7173 1.2224
H24A H 0.9745 1.7783 1.1696
C23A C 0.9700(3) 1.80508(12) 1.29547(9)
H25A H 0.9879 1.7581 1.3419
H26A H 0.7925 1.8255 1.2883
C24A C 1.1591(3) 1.91321(12) 1.31823(9)
H27A H 1.3370 1.8937 1.3220
H28A H 1.1331 1.9630 1.2738
C25A C 1.1297(4) 1.97808(15) 1.39983(11)
H29A H 1.1498 1.9285 1.4439
H30A H 1.2620 2.0447 1.4130
H31A H 0.9583 2.0028 1.3951
O1A O 0.28626(19) 1.07841(8) 0.94738(6)
C1 C 0.9113(3) 0.40764(11) 0.43689(8)
C2 C 0.7836(3) 0.50496(11) 0.43973(8)
C3 C 0.5638(3) 0.51400(13) 0.38023(9)
H1 H 0.5026 0.4530 0.3379
C4 C 0.4398(3) 0.60750(14) 0.38252(9)
H2 H 0.2913 0.6105 0.3430
C5 C 0.5315(3) 0.70038(13) 0.44374(10)
H3 H 0.4456 0.7660 0.4448
C6 C 0.7411(3) 0.69634(12) 0.50083(9)
H4 H 0.8019 0.7603 0.5407
C7 C 0.8738(3) 0.59829(11) 0.50282(8)
C8 C 0.8158(3) 0.31216(12) 0.37079(9)
H5 H 0.6512 0.2709 0.3713
C9 C 0.9435(3) 0.28077(12) 0.31154(9)
H6 H 1.1046 0.3254 0.3117
C10 C 0.8713(3) 0.18624(11) 0.24526(8)
C11 C 1.0238(3) 0.17560(12) 0.18293(8)
H7 H 1.1700 0.2305 0.1841
C12 C 0.9669(3) 0.08719(11) 0.11974(8)
H8 H 1.0732 0.0820 0.0781
C13 C 0.7543(3) 0.00609(11) 0.11723(8)
C14 C 0.6000(3) 0.01424(11) 0.17814(8)
H9 H 0.4540 -0.0410 0.1767
C15 C 0.6596(3) 0.10349(12) 0.24139(8)
H10 H 0.5532 0.1082 0.2830
C16 C 0.5013(3) -0.16625(11) 0.04734(8)
H11 H 0.3362 -0.1341 0.0404
H12 H 0.5151 -0.2048 0.0982
C17 C 0.5136(3) -0.24907(11) -0.02691(8)
H13 H 0.6870 -0.2739 -0.0213
H14 H 0.4901 -0.2096 -0.0772
C18 C 0.3114(3) -0.35325(11) -0.03754(9)
H15 H 0.1374 -0.3290 -0.0442
H16 H 0.3333 -0.3928 0.0127
C19 C 0.3327(3) -0.43505(12) -0.11237(9)
H17 H 0.3069 -0.3951 -0.1624
H18 H 0.5097 -0.4560 -0.1062
C20 C 0.1417(3) -0.54349(11) -0.12562(9)
H19 H 0.1649 -0.5837 -0.0757
H20 H -0.0361 -0.5235 -0.1335
C21 C 0.1760(3) -0.62255(12) -0.20016(9)
H21 H 0.3556 -0.6403 -0.1922
H22 H 0.1520 -0.5815 -0.2497
C22 C -0.0056(3) -0.73393(11) -0.21708(9)
H23 H -0.1860 -0.7173 -0.2224
H24 H 0.0255 -0.7783 -0.1696
C23 C 0.0300(3) -0.80508(12) -0.29547(9)
H25 H 0.0121 -0.7581 -0.3419
H26 H 0.2075 -0.8255 -0.2883
C24 C -0.1591(3) -0.91321(12) -0.31823(9)
H27 H -0.3370 -0.8937 -0.3220
H28 H -0.1331 -0.9630 -0.2738
C25 C -0.1297(4) -0.97808(15) -0.39983(11)
H29 H -0.1498 -0.9285 -0.4439
H30 H -0.2620 -1.0447 -0.4130
H31 H 0.0417 -1.0028 -0.3951
O1 O 0.71374(19) -0.07841(8) 0.05262(6)
C1A C 1.0887(3) 0.59236(11) 0.56311(8)
C2A C 1.2164(3) 0.49504(11) 0.56027(8)
C3A C 1.4362(3) 0.48600(13) 0.61977(9)
H1A H 1.4974 0.5470 0.6621
C4A C 1.5602(3) 0.39250(14) 0.61748(9)
H2A H 1.7087 0.3895 0.6570
C5A C 1.4685(3) 0.29962(13) 0.55626(10)
H3A H 1.5544 0.2340 0.5552
C6A C 1.2589(3) 0.30366(12) 0.49917(9)
H4A H 1.1981 0.2397 0.4593
C7A C 1.1262(3) 0.40171(11) 0.49718(8)
C8A C 1.1842(3) 0.68784(12) 0.62921(9)
H5A H 1.3488 0.7291 0.6287
C9A C 1.0565(3) 0.71923(12) 0.68846(9)
H6A H 0.8954 0.6746 0.6883
C10A C 1.1287(3) 0.81376(11) 0.75474(8)
C11A C 0.9762(3) 0.82440(12) 0.81707(8)
H7A H 0.8300 0.7695 0.8159
C12A C 1.0331(3) 0.91281(11) 0.88026(8)
H8A H 0.9268 0.9180 0.9219
C13A C 1.2457(3) 0.99391(11) 0.88277(8)
C14A C 1.4000(3) 0.98576(11) 0.82186(8)
H9A H 1.5460 1.0410 0.8233
C15A C 1.3404(3) 0.89651(12) 0.75861(8)
H10A H 1.4468 0.8918 0.7170
C16A C 1.4987(3) 1.16625(11) 0.95266(8)
H11A H 1.6638 1.1341 0.9596
H12A H 1.4849 1.2048 0.9018
C17A C 1.4864(3) 1.24907(11) 1.02691(8)
H13A H 1.3130 1.2739 1.0213
H14A H 1.5099 1.2096 1.0772
C18A C 1.6886(3) 1.35325(11) 1.03754(9)
H15A H 1.8626 1.3290 1.0442
H16A H 1.6667 1.3928 0.9873
C19A C 1.6673(3) 1.43505(12) 1.11237(9)
H17A H 1.6931 1.3951 1.1624
H18A H 1.4903 1.4560 1.1062
C20A C 1.8583(3) 1.54349(11) 1.12562(9)
H19A H 1.8351 1.5837 1.0757
H20A H 2.0361 1.5235 1.1335
C21A C 1.8240(3) 1.62255(12) 1.20016(9)
H21A H 1.6444 1.6403 1.1922
H22A H 1.8480 1.5815 1.2497
C22A C 2.0056(3) 1.73393(11) 1.21708(9)
H23A H 2.1860 1.7173 1.2224
H24A H 1.9745 1.7783 1.1696
C23A C 1.9700(3) 1.80508(12) 1.29547(9)
H25A H 1.9879 1.7581 1.3419
H26A H 1.7925 1.8255 1.2883
C24A C 2.1591(3) 1.91321(12) 1.31823(9)
H27A H 2.3370 1.8937 1.3220
H28A H 2.1331 1.9630 1.2738
C25A C 2.1297(4) 1.97808(15) 1.39983(11)
H29A H 2.1498 1.9285 1.4439
H30A H 2.2620 2.0447 1.4130
H31A H 1.9583 2.0028 1.3951
O1A O 1.28626(19) 1.07841(8) 0.94738(6)

#END
