./ACOJAF_from_POSCAR.cif_generated_by_CrystalShift
_symmetry_cell_setting triclinic
_symmetry_space_group_name_H-M 'P 1'
loop_
_symmetry_equiv_pos_site_id
_symmetry_equiv_pos_as_xyz
1 x,y,z
_cell_length_a 11.055000
_cell_length_b 7.978900
_cell_length_c 13.222000
_cell_angle_alpha 90.000000
_cell_angle_beta 113.030000
_cell_angle_gamma 90.000000
_cell_volume 1073.317994
loop_
_atom_site_label
_atom_site_type_symbol
_atom_site_fract_x
_atom_site_fract_y
_atom_site_fract_z
H1 H 1.036100 0.339000 0.347600
H2 H 0.935800 0.194300 0.282000
H3 H 0.849900 0.653700 0.274100
H4 H 0.979900 0.660500 0.384600
H5 H 0.851300 0.761100 0.376800
H6 H 0.837200 0.097400 0.397900
H7 H 0.749500 0.640100 0.481200
H8 H -0.036100 0.839000 0.152400
H9 H 0.089400 0.883600 0.261200
H10 H 0.749500 -0.140100 0.981200
H11 H 0.064200 0.694300 0.218000
H12 H 0.150100 1.153700 0.225900
H13 H 0.020100 1.160500 0.115400
H14 H 0.837200 0.402600 0.897900
H15 H 0.148700 1.261100 0.123200
H16 H 0.162800 0.597400 0.102100
H17 H 0.250500 1.140100 0.018800
H18 H -0.036100 0.661000 0.652400
H19 H 0.851300 -0.261100 0.876800
H20 H 0.979900 -0.160500 0.884600
H21 H 0.849900 -0.153700 0.774100
H22 H 0.089400 0.616400 0.761200
H23 H 0.935800 0.305700 0.782000
H24 H 0.910600 0.116400 0.738800
H25 H 1.036100 0.161000 0.847600
H26 H 0.064200 0.805700 0.718000
H27 H 0.150100 0.346300 0.725900
H28 H 0.020100 0.339500 0.615400
H29 H 0.148700 0.238900 0.623200
H30 H 0.162800 0.902600 0.602100
H31 H 0.250500 0.359900 0.518800
H32 H 0.910600 0.383600 0.238800
C33 C 0.276700 0.607700 0.493400
C34 C 0.232500 0.470300 0.535900
C35 C 0.943600 0.312300 0.304300
C36 C 0.163000 0.492500 0.602400
C37 C 0.136000 0.657000 0.627200
C38 C 0.180600 0.792200 0.584900
C39 C 0.598100 0.226800 1.115300
C40 C 0.250400 0.770800 0.518500
C41 C 0.292700 0.921800 0.474300
C42 C 0.374200 0.888500 0.414800
C43 C 0.116400 0.341000 0.645500
C44 C 0.883600 0.659000 0.354500
C45 C 0.401900 0.726800 0.384700
C46 C 0.625800 0.111500 0.585200
C47 C 0.056400 0.687700 0.695700
C48 C 0.707300 0.078200 0.525700
C49 C 0.943600 0.187700 0.804300
C50 C 0.883600 -0.159000 0.854500
C51 C 0.749600 0.229200 0.481500
C52 C 0.819400 0.207800 0.415100
C53 C 0.401900 0.773200 -0.115300
C54 C 0.864000 0.343000 0.372800
C55 C 0.837000 0.507500 0.397600
C56 C 0.650200 0.075300 1.077300
C57 C 0.349800 0.924700 -0.077300
C58 C 0.276700 0.892300 -0.006600
C59 C 0.232500 1.029700 0.035900
C60 C 0.625800 0.388500 1.085200
C61 C 0.163000 1.007500 0.102400
C62 C 0.136000 0.843000 0.127200
C63 C 0.180600 0.707800 0.084900
C64 C 0.707300 0.421800 1.025700
C65 C 0.250400 0.729200 0.018500
C66 C 0.292700 0.578200 -0.025700
C67 C 0.374200 0.611500 -0.085200
C68 C 0.116400 1.159000 0.145500
C69 C 0.749600 0.270800 0.981500
C70 C 0.819400 0.292200 0.915100
C71 C 0.864000 0.157000 0.872800
C72 C 0.056400 0.812300 0.195700
C73 C 0.837000 -0.007500 0.897600
C74 C 0.767500 -0.029700 0.964100
C75 C 0.723300 0.107700 1.006600
C76 C 0.767500 0.529700 0.464100
C77 C 0.723300 0.392300 0.506600
C78 C 0.598100 0.273200 0.615300
C79 C 0.650200 0.424700 0.577300
C80 C 0.349800 0.575300 0.422700
N81 N 0.467800 0.709500 0.322220
N82 N 0.532200 0.209500 1.177780
N83 N 0.532200 0.290500 0.677780
N84 N 0.467800 0.790500 -0.177780
O85 O 0.260200 0.435200 -0.011250
O86 O 0.260200 1.064800 0.488750
O87 O 0.368800 1.064800 -0.104970
O88 O 0.631200 -0.064800 1.104970
O89 O 0.631200 0.564800 0.604970
O90 O 0.368800 0.435200 0.395030
O91 O 0.739800 -0.064800 0.511250
O92 O 0.739800 0.564800 1.011250
S93 S 0.487580 0.384330 1.217420
S94 S 0.569250 -0.052230 0.641500
S95 S 0.512420 0.884330 0.282580
S96 S 0.512420 0.615670 -0.217420
S97 S 0.430750 0.447770 -0.141500
S98 S 0.430750 1.052230 0.358500
S99 S 0.487580 0.115670 0.717420
S100 S 0.569250 0.552230 1.141500

#END
