
#######################################################################
#
#                 Cambridge Crystallographic Data Centre
#                                CCDC 
#
#######################################################################
#
# If this CIF has been generated from an entry in the Cambridge 
# Structural Database, then it will include bibliographic, chemical, 
# crystal, experimental, refinement or atomic coordinate data resulting 
# from the CCDC's data processing and validation procedures.
#
#######################################################################

data_ACOJUZ
_symmetry_cell_setting           monoclinic
_symmetry_space_group_name_H-M   'P 21/n'
_symmetry_Int_Tables_number      14
_space_group_name_Hall           '-P 2yn'
loop_
_symmetry_equiv_pos_site_id
_symmetry_equiv_pos_as_xyz
1 x,y,z
2 1/2-x,1/2+y,1/2-z
3 -x,-y,-z
4 1/2+x,1/2-y,1/2+z
_cell_length_a                   11.5582(15)
_cell_length_b                   23.309(3)
_cell_length_c                   34.534(4)
_cell_angle_alpha                90
_cell_angle_beta                 95.489(2)
_cell_angle_gamma                90
_cell_volume                     9261.15
loop_
_atom_site_label
_atom_site_type_symbol
_atom_site_fract_x
_atom_site_fract_y
_atom_site_fract_z
O1 O 1.27536(17) 1.03679(8) 0.47100(6)
O2 O 0.96711(18) 0.85457(9) 0.46633(6)
O3 O 1.39298(19) 0.81661(8) 0.46393(5)
O4 O 1.52129(19) 0.98815(9) 0.36551(5)
O5 O 1.3755(2) 0.78654(9) 0.31915(6)
O6 O 1.25582(19) 0.99148(9) 0.24615(6)
O7 O 1.0652(2) 0.79591(9) 0.19981(6)
O8 O 1.11310(19) 0.97455(9) 0.09742(6)
O9 O 0.89066(18) 0.78246(9) 0.05636(6)
O10 O 0.73790(16) 1.00324(8) 0.02202(6)
O11 O 0.47476(17) 0.82860(8) 0.05929(5)
O12 O 0.47885(19) 1.04277(8) 0.12858(6)
O13 O 0.47590(18) 0.84385(9) 0.20471(5)
O14 O 0.7722(2) 1.02489(10) 0.24605(7)
O15 O 0.79616(18) 0.83292(8) 0.32738(6)
O16 O 0.9067(2) 1.04768(9) 0.38784(6)
C1 C 1.1960(2) 0.99216(12) 0.46939(7)
C2 C 1.0787(3) 0.99873(12) 0.45793(7)
H1 H 1.0497 1.0358 0.4509
C3 C 1.0025(2) 0.95267(12) 0.45644(7)
C4 C 1.0461(3) 0.89897(13) 0.46812(8)
C5 C 1.1646(3) 0.89273(13) 0.47993(7)
H2 H 1.1934 0.8560 0.4880
C6 C 1.2414(2) 0.93865(12) 0.48025(7)
C7 C 1.2331(3) 1.09381(12) 0.46471(9)
H3 H 1.1723 1.1024 0.4822
H4 H 1.1994 1.0986 0.4375
C8 C 1.3359(3) 1.13311(15) 0.47329(13)
H5 H 1.3638 1.1305 0.5009
H6 H 1.3126 1.1727 0.4670
H7 H 1.3983 1.1217 0.4576
C9 C 1.0083(3) 0.79900(13) 0.47846(10)
H8 H 1.0375 0.7995 0.5064
H9 H 1.0723 0.7868 0.4632
C10 C 0.9060(3) 0.75831(15) 0.47155(12)
H10 H 0.8410 0.7726 0.4851
H11 H 0.9287 0.7202 0.4815
H12 H 0.8821 0.7558 0.4436
C11 C 1.3711(2) 0.92945(13) 0.48897(7)
H13 H 1.4076 0.9648 0.5003
H14 H 1.3855 0.8981 0.5081
C12 C 1.4242(2) 0.91428(12) 0.45190(7)
C13 C 1.4595(3) 0.95798(12) 0.42799(8)
H15 H 1.4600 0.9965 0.4369
C14 C 1.4937(2) 0.94603(12) 0.39151(8)
C15 C 1.4950(2) 0.88949(12) 0.37799(7)
C16 C 1.4645(2) 0.84632(12) 0.40251(8)
H16 H 1.4683 0.8075 0.3942
C17 C 1.4286(2) 0.85816(12) 0.43887(8)
C18 C 1.3946(3) 0.75820(13) 0.45291(9)
H17 H 1.3673 0.7551 0.4249
H18 H 1.3393 0.7367 0.4677
C19 C 1.5119(4) 0.73090(17) 0.45981(11)
H19 H 1.5636 0.7471 0.4417
H20 H 1.5047 0.6894 0.4556
H21 H 1.5443 0.7383 0.4866
C20 C 1.5681(3) 1.04047(13) 0.37978(9)
H22 H 1.6400 1.0337 0.3971
H23 H 1.5116 1.0608 0.3947
C21 C 1.5940(3) 1.07539(14) 0.34523(10)
H24 H 1.6426 1.0530 0.3291
H25 H 1.6354 1.1104 0.3541
H26 H 1.5211 1.0856 0.3300
C22 C 1.5234(2) 0.87716(13) 0.33663(8)
H27 H 1.5834 0.9045 0.3295
H28 H 1.5554 0.8379 0.3354
C23 C 1.4172(2) 0.88239(12) 0.30797(7)
C24 C 1.3897(2) 0.93419(12) 0.28946(7)
H29 H 1.4410 0.9659 0.2939
C25 C 1.2881(3) 0.94071(12) 0.26444(7)
C26 C 1.2131(2) 0.89515(13) 0.25730(7)
C27 C 1.2405(3) 0.84319(13) 0.27500(8)
H30 H 1.1899 0.8114 0.2700
C28 C 1.3419(3) 0.83667(12) 0.30022(7)
C29 C 1.3030(3) 0.73716(13) 0.31362(9)
H31 H 1.2935 0.7262 0.2858
H32 H 1.2253 0.7451 0.3222
C30 C 1.3618(4) 0.68991(15) 0.33756(11)
H33 H 1.4369 0.6812 0.3279
H34 H 1.3127 0.6556 0.3356
H35 H 1.3743 0.7021 0.3648
C31 C 1.3245(3) 1.04125(13) 0.25524(10)
H36 H 1.4050 1.0352 0.2486
H37 H 1.3269 1.0501 0.2833
C32 C 1.2686(5) 1.08891(17) 0.23173(15)
H38 H 1.2615 1.0783 0.2041
H39 H 1.3162 1.1236 0.2356
H40 H 1.1911 1.0963 0.2400
C33 C 1.0989(3) 0.90287(14) 0.23291(8)
H41 H 1.0709 0.9423 0.2371
H42 H 1.0419 0.8762 0.2428
C34 C 1.0981(2) 0.89346(13) 0.18914(8)
C35 C 1.0773(2) 0.83924(13) 0.17345(8)
C36 C 1.0674(2) 0.83129(13) 0.13312(8)
H43 H 1.0532 0.7939 0.1228
C37 C 1.0778(2) 0.87678(13) 0.10805(8)
C38 C 1.1025(2) 0.93069(13) 0.12375(8)
C39 C 1.1107(2) 0.93851(13) 0.16411(8)
H44 H 1.1253 0.9758 0.1745
C40 C 1.0342(4) 0.74063(15) 0.18674(10)
H45 H 1.0986 0.7228 0.1741
H46 H 0.9646 0.7421 0.1677
C41 C 1.0092(6) 0.70686(19) 0.22164(13)
H47 H 1.0772 0.7077 0.2409
H48 H 0.9915 0.6671 0.2140
H49 H 0.9423 0.7236 0.2330
C42 C 1.1578(3) 1.02839(13) 0.11096(9)
H50 H 1.2324 1.0231 0.1272
H51 H 1.1023 1.0475 0.1269
C43 C 1.1756(4) 1.06438(16) 0.07563(11)
H52 H 1.2287 1.0445 0.0596
H53 H 1.2091 1.1015 0.0840
H54 H 1.1008 1.0705 0.0604
C44 C 1.0580(2) 0.86815(14) 0.06426(8)
H55 H 1.0777 0.8282 0.0578
H56 H 1.1100 0.8941 0.0512
C45 C 0.9322(2) 0.88035(13) 0.04925(7)
C46 C 0.8956(2) 0.93601(12) 0.03997(7)
H57 H 0.9512 0.9661 0.0408
C47 C 0.7796(2) 0.94843(12) 0.02959(7)
C48 C 0.6973(2) 0.90509(12) 0.02723(7)
C49 C 0.7345(2) 0.84898(12) 0.03506(7)
H58 H 0.6796 0.8186 0.0325
C50 C 0.8502(2) 0.83684(12) 0.04645(7)
C51 C 0.8085(3) 0.73706(12) 0.05723(8)
H59 H 0.7708 0.7296 0.0308
H60 H 0.7476 0.7473 0.0743
C52 C 0.8732(3) 0.68537(14) 0.07246(10)
H61 H 0.9437 0.6808 0.0591
H62 H 0.8239 0.6514 0.0679
H63 H 0.8946 0.6898 0.1004
C53 C 0.8188(3) 1.04923(13) 0.02357(9)
H64 H 0.8742 1.0439 0.0037
H65 H 0.8633 1.0509 0.0495
C54 C 0.7509(3) 1.10346(13) 0.01586(10)
H66 H 0.7054 1.1008 -0.0095
H67 H 0.8046 1.1360 0.0158
H68 H 0.6984 1.1090 0.0362
C55 C 0.5678(2) 0.91786(12) 0.01890(7)
H69 H 0.5567 0.9526 0.0025
H70 H 0.5285 0.8853 0.0047
C56 C 0.5160(2) 0.92720(12) 0.05695(7)
C57 C 0.4748(2) 0.88153(11) 0.07773(7)
C58 C 0.4380(2) 0.88973(12) 0.11461(7)
H71 H 0.4097 0.8581 0.1282
C59 C 0.4424(2) 0.94390(12) 0.13168(7)
C60 C 0.4797(2) 0.99015(11) 0.11057(8)
C61 C 0.5163(2) 0.98161(12) 0.07390(7)
H72 H 0.5423 1.0135 0.0600
C62 C 0.4453(3) 0.77910(12) 0.08062(8)
H73 H 0.4794 0.7829 0.1079
H74 H 0.4798 0.7448 0.0694
C63 C 0.3161(3) 0.77054(14) 0.08018(10)
H75 H 0.2833 0.8009 0.0955
H76 H 0.3005 0.7331 0.0915
H77 H 0.2802 0.7721 0.0533
C64 C 0.5064(3) 1.09207(13) 0.10738(10)
H78 H 0.4552 1.0947 0.0828
H79 H 0.5881 1.0903 0.1010
C65 C 0.4887(4) 1.14337(15) 0.13279(13)
H80 H 0.4068 1.1456 0.1379
H81 H 0.5102 1.1784 0.1195
H82 H 0.5375 1.1395 0.1575
C66 C 0.4118(2) 0.95022(13) 0.17292(7)
H83 H 0.3524 0.9214 0.1782
H84 H 0.3788 0.9888 0.1765
C67 C 0.5202(2) 0.94190(12) 0.20137(7)
C68 C 0.5504(2) 0.88814(12) 0.21641(7)
C69 C 0.6520(3) 0.88095(13) 0.24066(7)
H85 H 0.6716 0.8439 0.2508
C70 C 0.7261(2) 0.92707(13) 0.25046(8)
C71 C 0.6941(3) 0.98100(13) 0.23587(8)
C72 C 0.5926(3) 0.98799(13) 0.21148(8)
H86 H 0.5723 1.0250 0.2015
C73 C 0.4973(3) 0.78900(13) 0.22168(9)
H87 H 0.4976 0.7912 0.2503
H88 H 0.5735 0.7741 0.2154
C74 C 0.4004(3) 0.75036(15) 0.20480(10)
H89 H 0.3255 0.7663 0.2105
H90 H 0.4102 0.7121 0.2164
H91 H 0.4027 0.7476 0.1766
C75 C 0.7441(4) 1.08085(17) 0.23330(12)
H92 H 0.6730 1.0942 0.2444
H93 H 0.7299 1.0818 0.2046
C76 C 0.8468(6) 1.1193(2) 0.24692(16)
H94 H 0.9138 1.1091 0.2329
H95 H 0.8669 1.1140 0.2749
H96 H 0.8259 1.1595 0.2417
C77 C 0.8426(3) 0.91757(14) 0.27441(8)
H97 H 0.8668 0.8773 0.2709
H98 H 0.9014 0.9425 0.2638
C78 C 0.8441(2) 0.92921(12) 0.31752(8)
C79 C 0.8239(2) 0.88550(12) 0.34374(8)
C80 C 0.8319(2) 0.89661(12) 0.38319(8)
H99 H 0.8180 0.8665 0.4007
C81 C 0.8596(2) 0.95062(12) 0.39774(8)
C82 C 0.8781(3) 0.99432(12) 0.37176(8)
C83 C 0.8717(2) 0.98333(13) 0.33241(8)
H100 H 0.8866 1.0135 0.3151
C84 C 0.7833(3) 0.78588(13) 0.35265(10)
H101 H 0.7231 0.7943 0.3704
H102 H 0.8576 0.7779 0.3685
C85 C 0.7475(4) 0.73484(15) 0.32710(13)
H103 H 0.6734 0.7431 0.3119
H104 H 0.7387 0.7010 0.3434
H105 H 0.8072 0.7273 0.3094
C86 C 0.9209(3) 1.09457(13) 0.36230(10)
H106 H 0.8487 1.1008 0.3450
H107 H 0.9850 1.0866 0.3460
C87 C 0.9482(4) 1.14641(14) 0.38684(13)
H108 H 0.8915 1.1499 0.4061
H109 H 0.9447 1.1806 0.3703
H110 H 1.0265 1.1427 0.4003
C88 C 0.8753(2) 0.96088(13) 0.44137(8)
H111 H 0.8504 1.0003 0.4472
H112 H 0.8263 0.9337 0.4546
O1 O 0.22464(17) 0.53679(8) 0.02900(6)
O2 O 0.53289(18) 0.35457(9) 0.03367(6)
O3 O 0.10702(19) 0.31661(8) 0.03607(5)
O4 O -0.02129(19) 0.48815(9) 0.13449(5)
O5 O 0.1245(2) 0.28654(9) 0.18085(6)
O6 O 0.24418(19) 0.49148(9) 0.25385(6)
O7 O 0.4348(2) 0.29591(9) 0.30019(6)
O8 O 0.38690(19) 0.47455(9) 0.40258(6)
O9 O 0.60934(18) 0.28246(9) 0.44364(6)
O10 O 0.76210(16) 0.50324(8) 0.47798(6)
O11 O 1.02524(17) 0.32860(8) 0.44071(5)
O12 O 1.02115(19) 0.54277(8) 0.37142(6)
O13 O 1.02410(18) 0.34385(9) 0.29529(5)
O14 O 0.7278(2) 0.52489(10) 0.25395(7)
O15 O 0.70384(18) 0.33292(8) 0.17262(6)
O16 O 0.5933(2) 0.54768(9) 0.11216(6)
C1 C 0.3040(2) 0.49216(12) 0.03061(7)
C2 C 0.4213(3) 0.49873(12) 0.04207(7)
H1 H 0.4503 0.5358 0.0491
C3 C 0.4975(2) 0.45267(12) 0.04356(7)
C4 C 0.4539(3) 0.39897(13) 0.03188(8)
C5 C 0.3354(3) 0.39273(13) 0.02007(7)
H2 H 0.3066 0.3560 0.0120
C6 C 0.2586(2) 0.43865(12) 0.01975(7)
C7 C 0.2669(3) 0.59381(12) 0.03529(9)
H3 H 0.3277 0.6024 0.0178
H4 H 0.3006 0.5986 0.0625
C8 C 0.1641(3) 0.63311(15) 0.02671(13)
H5 H 0.1362 0.6305 -0.0009
H6 H 0.1874 0.6727 0.0330
H7 H 0.1017 0.6217 0.0424
C9 C 0.4917(3) 0.29900(13) 0.02154(10)
H8 H 0.4625 0.2995 -0.0064
H9 H 0.4277 0.2868 0.0368
C10 C 0.5940(3) 0.25831(15) 0.02845(12)
H10 H 0.6590 0.2726 0.0149
H11 H 0.5713 0.2202 0.0185
H12 H 0.6179 0.2558 0.0564
C11 C 0.1289(2) 0.42945(13) 0.01103(7)
H13 H 0.0924 0.4648 -0.0003
H14 H 0.1145 0.3981 -0.0081
C12 C 0.0758(2) 0.41428(12) 0.04810(7)
C13 C 0.0405(3) 0.45798(12) 0.07201(8)
H15 H 0.0400 0.4965 0.0631
C14 C 0.0063(2) 0.44603(12) 0.10849(8)
C15 C 0.0050(2) 0.38949(12) 0.12201(7)
C16 C 0.0355(2) 0.34632(12) 0.09749(8)
H16 H 0.0317 0.3075 0.1058
C17 C 0.0714(2) 0.35816(12) 0.06113(8)
C18 C 0.1054(3) 0.25820(13) 0.04709(9)
H17 H 0.1327 0.2551 0.0751
H18 H 0.1607 0.2367 0.0323
C19 C -0.0119(4) 0.23090(17) 0.04019(11)
H19 H -0.0636 0.2471 0.0583
H20 H -0.0047 0.1894 0.0444
H21 H -0.0443 0.2383 0.0134
C20 C -0.0681(3) 0.54047(13) 0.12022(9)
H22 H -0.1400 0.5337 0.1029
H23 H -0.0116 0.5608 0.1053
C21 C -0.0940(3) 0.57539(14) 0.15477(10)
H24 H -0.1426 0.5530 0.1709
H25 H -0.1354 0.6104 0.1459
H26 H -0.0211 0.5856 0.1700
C22 C -0.0234(2) 0.37716(13) 0.16337(8)
H27 H -0.0834 0.4045 0.1705
H28 H -0.0554 0.3379 0.1646
C23 C 0.0828(2) 0.38239(12) 0.19203(7)
C24 C 0.1103(2) 0.43419(12) 0.21054(7)
H29 H 0.0590 0.4659 0.2061
C25 C 0.2119(3) 0.44071(12) 0.23556(7)
C26 C 0.2869(2) 0.39515(13) 0.24270(7)
C27 C 0.2595(3) 0.34319(13) 0.22500(8)
H30 H 0.3101 0.3114 0.2300
C28 C 0.1581(3) 0.33667(12) 0.19978(7)
C29 C 0.1970(3) 0.23716(13) 0.18638(9)
H31 H 0.2065 0.2262 0.2142
H32 H 0.2747 0.2451 0.1778
C30 C 0.1382(4) 0.18991(15) 0.16244(11)
H33 H 0.0631 0.1812 0.1721
H34 H 0.1873 0.1556 0.1644
H35 H 0.1257 0.2021 0.1352
C31 C 0.1755(3) 0.54125(13) 0.24476(10)
H36 H 0.0950 0.5352 0.2514
H37 H 0.1731 0.5501 0.2167
C32 C 0.2314(5) 0.58891(17) 0.26827(15)
H38 H 0.2385 0.5783 0.2959
H39 H 0.1838 0.6236 0.2644
H40 H 0.3089 0.5963 0.2600
C33 C 0.4011(3) 0.40287(14) 0.26709(8)
H41 H 0.4291 0.4423 0.2629
H42 H 0.4581 0.3762 0.2572
C34 C 0.4019(2) 0.39346(13) 0.31086(8)
C35 C 0.4227(2) 0.33924(13) 0.32655(8)
C36 C 0.4326(2) 0.33129(13) 0.36688(8)
H43 H 0.4468 0.2939 0.3772
C37 C 0.4222(2) 0.37678(13) 0.39195(8)
C38 C 0.3975(2) 0.43069(13) 0.37625(8)
C39 C 0.3893(2) 0.43851(13) 0.33589(8)
H44 H 0.3747 0.4758 0.3255
C40 C 0.4658(4) 0.24063(15) 0.31326(10)
H45 H 0.4014 0.2228 0.3259
H46 H 0.5354 0.2421 0.3323
C41 C 0.4908(6) 0.20686(19) 0.27836(13)
H47 H 0.4228 0.2077 0.2591
H48 H 0.5085 0.1671 0.2860
H49 H 0.5577 0.2236 0.2670
C42 C 0.3422(3) 0.52839(13) 0.38904(9)
H50 H 0.2676 0.5231 0.3728
H51 H 0.3977 0.5475 0.3731
C43 C 0.3244(4) 0.56438(16) 0.42437(11)
H52 H 0.2713 0.5445 0.4404
H53 H 0.2909 0.6015 0.4160
H54 H 0.3992 0.5705 0.4396
C44 C 0.4420(2) 0.36815(14) 0.43574(8)
H55 H 0.4223 0.3282 0.4422
H56 H 0.3900 0.3941 0.4488
C45 C 0.5678(2) 0.38035(13) 0.45075(7)
C46 C 0.6044(2) 0.43601(12) 0.46003(7)
H57 H 0.5488 0.4661 0.4592
C47 C 0.7204(2) 0.44843(12) 0.47041(7)
C48 C 0.8027(2) 0.40509(12) 0.47277(7)
C49 C 0.7655(2) 0.34898(12) 0.46494(7)
H58 H 0.8204 0.3186 0.4675
C50 C 0.6498(2) 0.33684(12) 0.45355(7)
C51 C 0.6915(3) 0.23706(12) 0.44277(8)
H59 H 0.7292 0.2296 0.4692
H60 H 0.7524 0.2473 0.4257
C52 C 0.6268(3) 0.18537(14) 0.42754(10)
H61 H 0.5563 0.1808 0.4409
H62 H 0.6761 0.1514 0.4321
H63 H 0.6054 0.1898 0.3996
C53 C 0.6812(3) 0.54923(13) 0.47643(9)
H64 H 0.6258 0.5439 0.4963
H65 H 0.6367 0.5509 0.4505
C54 C 0.7491(3) 0.60346(13) 0.48414(10)
H66 H 0.7946 0.6008 0.5095
H67 H 0.6954 0.6360 0.4842
H68 H 0.8016 0.6090 0.4638
C55 C 0.9322(2) 0.41786(12) 0.48110(7)
H69 H 0.9433 0.4526 0.4975
H70 H 0.9715 0.3853 0.4953
C56 C 0.9840(2) 0.42720(12) 0.44305(7)
C57 C 1.0252(2) 0.38153(11) 0.42227(7)
C58 C 1.0620(2) 0.38973(12) 0.38539(7)
H71 H 1.0903 0.3581 0.3718
C59 C 1.0576(2) 0.44390(12) 0.36832(7)
C60 C 1.0203(2) 0.49015(11) 0.38943(8)
C61 C 0.9837(2) 0.48161(12) 0.42610(7)
H72 H 0.9577 0.5135 0.4400
C62 C 1.0547(3) 0.27910(12) 0.41938(8)
H73 H 1.0206 0.2829 0.3921
H74 H 1.0202 0.2448 0.4306
C63 C 1.1839(3) 0.27054(14) 0.41982(10)
H75 H 1.2167 0.3009 0.4045
H76 H 1.1995 0.2331 0.4085
H77 H 1.2198 0.2721 0.4467
C64 C 0.9936(3) 0.59207(13) 0.39262(10)
H78 H 1.0448 0.5947 0.4172
H79 H 0.9119 0.5903 0.3990
C65 C 1.0113(4) 0.64337(15) 0.36721(13)
H80 H 1.0932 0.6456 0.3621
H81 H 0.9898 0.6784 0.3805
H82 H 0.9625 0.6395 0.3425
C66 C 1.0882(2) 0.45022(13) 0.32708(7)
H83 H 1.1476 0.4214 0.3218
H84 H 1.1212 0.4888 0.3235
C67 C 0.9798(2) 0.44190(12) 0.29863(7)
C68 C 0.9496(2) 0.38814(12) 0.28359(7)
C69 C 0.8480(3) 0.38095(13) 0.25934(7)
H85 H 0.8284 0.3439 0.2492
C70 C 0.7739(2) 0.42707(13) 0.24954(8)
C71 C 0.8059(3) 0.48100(13) 0.26413(8)
C72 C 0.9074(3) 0.48799(13) 0.28852(8)
H86 H 0.9277 0.5250 0.2985
C73 C 1.0027(3) 0.28900(13) 0.27832(9)
H87 H 1.0024 0.2912 0.2497
H88 H 0.9265 0.2741 0.2846
C74 C 1.0996(3) 0.25036(15) 0.29520(10)
H89 H 1.1745 0.2663 0.2895
H90 H 1.0898 0.2121 0.2836
H91 H 1.0973 0.2476 0.3234
C75 C 0.7559(4) 0.58085(17) 0.26670(12)
H92 H 0.8270 0.5942 0.2556
H93 H 0.7701 0.5818 0.2954
C76 C 0.6532(6) 0.6193(2) 0.25308(16)
H94 H 0.5862 0.6091 0.2671
H95 H 0.6331 0.6140 0.2251
H96 H 0.6741 0.6595 0.2583
C77 C 0.6574(3) 0.41757(14) 0.22559(8)
H97 H 0.6332 0.3773 0.2291
H98 H 0.5986 0.4425 0.2362
C78 C 0.6559(2) 0.42921(12) 0.18248(8)
C79 C 0.6761(2) 0.38550(12) 0.15626(8)
C80 C 0.6681(2) 0.39661(12) 0.11681(8)
H99 H 0.6820 0.3665 0.0993
C81 C 0.6404(2) 0.45062(12) 0.10226(8)
C82 C 0.6219(3) 0.49432(12) 0.12824(8)
C83 C 0.6283(2) 0.48333(13) 0.16759(8)
H100 H 0.6134 0.5135 0.1849
C84 C 0.7167(3) 0.28588(13) 0.14735(10)
H101 H 0.7769 0.2943 0.1296
H102 H 0.6424 0.2779 0.1315
C85 C 0.7525(4) 0.23484(15) 0.17290(13)
H103 H 0.8266 0.2431 0.1881
H104 H 0.7613 0.2010 0.1566
H105 H 0.6928 0.2273 0.1906
C86 C 0.5791(3) 0.59457(13) 0.13770(10)
H106 H 0.6513 0.6008 0.1550
H107 H 0.5150 0.5866 0.1540
C87 C 0.5518(4) 0.64641(14) 0.11316(13)
H108 H 0.6085 0.6499 0.0939
H109 H 0.5553 0.6806 0.1297
H110 H 0.4735 0.6427 0.0997
C88 C 0.6247(2) 0.46088(13) 0.05863(8)
H111 H 0.6496 0.5003 0.0528
H112 H 0.6737 0.4337 0.0454
O1 O -0.27536(17) -0.03679(8) 0.52900(6)
O2 O 0.03289(18) 0.14543(9) 0.53367(6)
O3 O -0.39298(19) 0.18339(8) 0.53607(5)
O4 O -0.52129(19) 0.01185(9) 0.63449(5)
O5 O -0.3755(2) 0.21346(9) 0.68085(6)
O6 O -0.25582(19) 0.00852(9) 0.75385(6)
O7 O -0.0652(2) 0.20409(9) 0.80019(6)
O8 O -0.11310(19) 0.02545(9) 0.90258(6)
O9 O 0.10934(18) 0.21754(9) 0.94364(6)
O10 O 0.26210(16) -0.00324(8) 0.97798(6)
O11 O 0.52524(17) 0.17140(8) 0.94071(5)
O12 O 0.52115(19) -0.04277(8) 0.87142(6)
O13 O 0.52410(18) 0.15615(9) 0.79529(5)
O14 O 0.2278(2) -0.02489(10) 0.75395(7)
O15 O 0.20384(18) 0.16708(8) 0.67262(6)
O16 O 0.0933(2) -0.04768(9) 0.61216(6)
C1 C -0.1960(2) 0.00784(12) 0.53061(7)
C2 C -0.0787(3) 0.00127(12) 0.54207(7)
H1 H -0.0497 -0.0358 0.5491
C3 C -0.0025(2) 0.04733(12) 0.54356(7)
C4 C -0.0461(3) 0.10103(13) 0.53188(8)
C5 C -0.1646(3) 0.10727(13) 0.52007(7)
H2 H -0.1934 0.1440 0.5120
C6 C -0.2414(2) 0.06135(12) 0.51975(7)
C7 C -0.2331(3) -0.09381(12) 0.53529(9)
H3 H -0.1723 -0.1024 0.5178
H4 H -0.1994 -0.0986 0.5625
C8 C -0.3359(3) -0.13311(15) 0.52671(13)
H5 H -0.3638 -0.1305 0.4991
H6 H -0.3126 -0.1727 0.5330
H7 H -0.3983 -0.1217 0.5424
C9 C -0.0083(3) 0.20100(13) 0.52154(10)
H8 H -0.0375 0.2005 0.4936
H9 H -0.0723 0.2132 0.5368
C10 C 0.0940(3) 0.24169(15) 0.52845(12)
H10 H 0.1590 0.2274 0.5149
H11 H 0.0713 0.2798 0.5185
H12 H 0.1179 0.2442 0.5564
C11 C -0.3711(2) 0.07055(13) 0.51103(7)
H13 H -0.4076 0.0352 0.4997
H14 H -0.3855 0.1019 0.4919
C12 C -0.4242(2) 0.08572(12) 0.54810(7)
C13 C -0.4595(3) 0.04202(12) 0.57201(8)
H15 H -0.4600 0.0035 0.5631
C14 C -0.4937(2) 0.05397(12) 0.60849(8)
C15 C -0.4950(2) 0.11051(12) 0.62201(7)
C16 C -0.4645(2) 0.15368(12) 0.59749(8)
H16 H -0.4683 0.1925 0.6058
C17 C -0.4286(2) 0.14184(12) 0.56113(8)
C18 C -0.3946(3) 0.24180(13) 0.54709(9)
H17 H -0.3673 0.2449 0.5751
H18 H -0.3393 0.2633 0.5323
C19 C -0.5119(4) 0.26910(17) 0.54019(11)
H19 H -0.5636 0.2529 0.5583
H20 H -0.5047 0.3106 0.5444
H21 H -0.5443 0.2617 0.5134
C20 C -0.5681(3) -0.04047(13) 0.62022(9)
H22 H -0.6400 -0.0337 0.6029
H23 H -0.5116 -0.0608 0.6053
C21 C -0.5940(3) -0.07539(14) 0.65477(10)
H24 H -0.6426 -0.0530 0.6709
H25 H -0.6354 -0.1104 0.6459
H26 H -0.5211 -0.0856 0.6700
C22 C -0.5234(2) 0.12284(13) 0.66337(8)
H27 H -0.5834 0.0955 0.6705
H28 H -0.5554 0.1621 0.6646
C23 C -0.4172(2) 0.11761(12) 0.69203(7)
C24 C -0.3897(2) 0.06581(12) 0.71054(7)
H29 H -0.4410 0.0341 0.7061
C25 C -0.2881(3) 0.05929(12) 0.73556(7)
C26 C -0.2131(2) 0.10485(13) 0.74270(7)
C27 C -0.2405(3) 0.15681(13) 0.72500(8)
H30 H -0.1899 0.1886 0.7300
C28 C -0.3419(3) 0.16333(12) 0.69978(7)
C29 C -0.3030(3) 0.26284(13) 0.68638(9)
H31 H -0.2935 0.2738 0.7142
H32 H -0.2253 0.2549 0.6778
C30 C -0.3618(4) 0.31009(15) 0.66244(11)
H33 H -0.4369 0.3188 0.6721
H34 H -0.3127 0.3444 0.6644
H35 H -0.3743 0.2979 0.6352
C31 C -0.3245(3) -0.04125(13) 0.74476(10)
H36 H -0.4050 -0.0352 0.7514
H37 H -0.3269 -0.0501 0.7167
C32 C -0.2686(5) -0.08891(17) 0.76827(15)
H38 H -0.2615 -0.0783 0.7959
H39 H -0.3162 -0.1236 0.7644
H40 H -0.1911 -0.0963 0.7600
C33 C -0.0989(3) 0.09713(14) 0.76709(8)
H41 H -0.0709 0.0577 0.7629
H42 H -0.0419 0.1238 0.7572
C34 C -0.0981(2) 0.10654(13) 0.81086(8)
C35 C -0.0773(2) 0.16076(13) 0.82655(8)
C36 C -0.0674(2) 0.16871(13) 0.86688(8)
H43 H -0.0532 0.2061 0.8772
C37 C -0.0778(2) 0.12322(13) 0.89195(8)
C38 C -0.1025(2) 0.06931(13) 0.87625(8)
C39 C -0.1107(2) 0.06149(13) 0.83589(8)
H44 H -0.1253 0.0242 0.8255
C40 C -0.0342(4) 0.25937(15) 0.81326(10)
H45 H -0.0986 0.2772 0.8259
H46 H 0.0354 0.2579 0.8323
C41 C -0.0092(6) 0.29314(19) 0.77836(13)
H47 H -0.0772 0.2923 0.7591
H48 H 0.0085 0.3329 0.7860
H49 H 0.0577 0.2764 0.7670
C42 C -0.1578(3) -0.02839(13) 0.88904(9)
H50 H -0.2324 -0.0231 0.8728
H51 H -0.1023 -0.0475 0.8731
C43 C -0.1756(4) -0.06438(16) 0.92437(11)
H52 H -0.2287 -0.0445 0.9404
H53 H -0.2091 -0.1015 0.9160
H54 H -0.1008 -0.0705 0.9396
C44 C -0.0580(2) 0.13185(14) 0.93574(8)
H55 H -0.0777 0.1718 0.9422
H56 H -0.1100 0.1059 0.9488
C45 C 0.0678(2) 0.11965(13) 0.95075(7)
C46 C 0.1044(2) 0.06399(12) 0.96003(7)
H57 H 0.0488 0.0339 0.9592
C47 C 0.2204(2) 0.05157(12) 0.97041(7)
C48 C 0.3027(2) 0.09491(12) 0.97277(7)
C49 C 0.2655(2) 0.15102(12) 0.96494(7)
H58 H 0.3204 0.1814 0.9675
C50 C 0.1498(2) 0.16316(12) 0.95355(7)
C51 C 0.1915(3) 0.26294(12) 0.94277(8)
H59 H 0.2292 0.2704 0.9692
H60 H 0.2524 0.2527 0.9257
C52 C 0.1268(3) 0.31463(14) 0.92754(10)
H61 H 0.0563 0.3192 0.9409
H62 H 0.1761 0.3486 0.9321
H63 H 0.1054 0.3102 0.8996
C53 C 0.1812(3) -0.04923(13) 0.97643(9)
H64 H 0.1258 -0.0439 0.9963
H65 H 0.1367 -0.0509 0.9505
C54 C 0.2491(3) -0.10346(13) 0.98414(10)
H66 H 0.2946 -0.1008 1.0095
H67 H 0.1954 -0.1360 0.9842
H68 H 0.3016 -0.1090 0.9638
C55 C 0.4322(2) 0.08214(12) 0.98110(7)
H69 H 0.4433 0.0474 0.9975
H70 H 0.4715 0.1147 0.9953
C56 C 0.4840(2) 0.07280(12) 0.94305(7)
C57 C 0.5252(2) 0.11847(11) 0.92227(7)
C58 C 0.5620(2) 0.11027(12) 0.88539(7)
H71 H 0.5903 0.1419 0.8718
C59 C 0.5576(2) 0.05610(12) 0.86832(7)
C60 C 0.5203(2) 0.00985(11) 0.88943(8)
C61 C 0.4837(2) 0.01839(12) 0.92610(7)
H72 H 0.4577 -0.0135 0.9400
C62 C 0.5547(3) 0.22090(12) 0.91938(8)
H73 H 0.5206 0.2171 0.8921
H74 H 0.5202 0.2552 0.9306
C63 C 0.6839(3) 0.22946(14) 0.91982(10)
H75 H 0.7167 0.1991 0.9045
H76 H 0.6995 0.2669 0.9085
H77 H 0.7198 0.2279 0.9467
C64 C 0.4936(3) -0.09207(13) 0.89262(10)
H78 H 0.5448 -0.0947 0.9172
H79 H 0.4119 -0.0903 0.8990
C65 C 0.5113(4) -0.14337(15) 0.86721(13)
H80 H 0.5932 -0.1456 0.8621
H81 H 0.4898 -0.1784 0.8805
H82 H 0.4625 -0.1395 0.8425
C66 C 0.5882(2) 0.04978(13) 0.82708(7)
H83 H 0.6476 0.0786 0.8218
H84 H 0.6212 0.0112 0.8235
C67 C 0.4798(2) 0.05810(12) 0.79863(7)
C68 C 0.4496(2) 0.11186(12) 0.78359(7)
C69 C 0.3480(3) 0.11905(13) 0.75934(7)
H85 H 0.3284 0.1561 0.7492
C70 C 0.2739(2) 0.07293(13) 0.74954(8)
C71 C 0.3059(3) 0.01900(13) 0.76413(8)
C72 C 0.4074(3) 0.01201(13) 0.78852(8)
H86 H 0.4277 -0.0250 0.7985
C73 C 0.5027(3) 0.21100(13) 0.77832(9)
H87 H 0.5024 0.2088 0.7497
H88 H 0.4265 0.2259 0.7846
C74 C 0.5996(3) 0.24964(15) 0.79520(10)
H89 H 0.6745 0.2337 0.7895
H90 H 0.5898 0.2879 0.7836
H91 H 0.5973 0.2524 0.8234
C75 C 0.2559(4) -0.08085(17) 0.76670(12)
H92 H 0.3270 -0.0942 0.7556
H93 H 0.2701 -0.0818 0.7954
C76 C 0.1532(6) -0.1193(2) 0.75308(16)
H94 H 0.0862 -0.1091 0.7671
H95 H 0.1331 -0.1140 0.7251
H96 H 0.1741 -0.1595 0.7583
C77 C 0.1574(3) 0.08243(14) 0.72559(8)
H97 H 0.1332 0.1227 0.7291
H98 H 0.0986 0.0575 0.7362
C78 C 0.1559(2) 0.07079(12) 0.68248(8)
C79 C 0.1761(2) 0.11450(12) 0.65626(8)
C80 C 0.1681(2) 0.10339(12) 0.61681(8)
H99 H 0.1820 0.1335 0.5993
C81 C 0.1404(2) 0.04938(12) 0.60226(8)
C82 C 0.1219(3) 0.00568(12) 0.62824(8)
C83 C 0.1283(2) 0.01667(13) 0.66759(8)
H100 H 0.1134 -0.0135 0.6849
C84 C 0.2167(3) 0.21412(13) 0.64735(10)
H101 H 0.2769 0.2057 0.6296
H102 H 0.1424 0.2221 0.6315
C85 C 0.2525(4) 0.26516(15) 0.67290(13)
H103 H 0.3266 0.2569 0.6881
H104 H 0.2613 0.2990 0.6566
H105 H 0.1928 0.2727 0.6906
C86 C 0.0791(3) -0.09457(13) 0.63770(10)
H106 H 0.1513 -0.1008 0.6550
H107 H 0.0150 -0.0866 0.6540
C87 C 0.0518(4) -0.14641(14) 0.61316(13)
H108 H 0.1085 -0.1499 0.5939
H109 H 0.0553 -0.1806 0.6297
H110 H -0.0265 -0.1427 0.5997
C88 C 0.1247(2) 0.03912(13) 0.55863(8)
H111 H 0.1496 -0.0003 0.5528
H112 H 0.1737 0.0663 0.5454
O1 O 0.77536(17) 0.46321(8) 0.97100(6)
O2 O 0.46711(18) 0.64543(9) 0.96633(6)
O3 O 0.89298(19) 0.68339(8) 0.96393(5)
O4 O 1.02129(19) 0.51185(9) 0.86551(5)
O5 O 0.8755(2) 0.71346(9) 0.81915(6)
O6 O 0.75582(19) 0.50852(9) 0.74615(6)
O7 O 0.5652(2) 0.70409(9) 0.69981(6)
O8 O 0.61310(19) 0.52545(9) 0.59742(6)
O9 O 0.39066(18) 0.71754(9) 0.55636(6)
O10 O 0.23790(16) 0.49676(8) 0.52202(6)
O11 O -0.02524(17) 0.67140(8) 0.55929(5)
O12 O -0.02115(19) 0.45723(8) 0.62858(6)
O13 O -0.02410(18) 0.65615(9) 0.70471(5)
O14 O 0.2722(2) 0.47511(10) 0.74605(7)
O15 O 0.29616(18) 0.66708(8) 0.82738(6)
O16 O 0.4067(2) 0.45232(9) 0.88784(6)
C1 C 0.6960(2) 0.50784(12) 0.96939(7)
C2 C 0.5787(3) 0.50127(12) 0.95793(7)
H1 H 0.5497 0.4642 0.9509
C3 C 0.5025(2) 0.54733(12) 0.95644(7)
C4 C 0.5461(3) 0.60103(13) 0.96812(8)
C5 C 0.6646(3) 0.60727(13) 0.97993(7)
H2 H 0.6934 0.6440 0.9880
C6 C 0.7414(2) 0.56135(12) 0.98025(7)
C7 C 0.7331(3) 0.40619(12) 0.96471(9)
H3 H 0.6723 0.3976 0.9822
H4 H 0.6994 0.4014 0.9375
C8 C 0.8359(3) 0.36689(15) 0.97329(13)
H5 H 0.8638 0.3695 1.0009
H6 H 0.8126 0.3273 0.9670
H7 H 0.8983 0.3783 0.9576
C9 C 0.5083(3) 0.70100(13) 0.97846(10)
H8 H 0.5375 0.7005 1.0064
H9 H 0.5723 0.7132 0.9632
C10 C 0.4060(3) 0.74169(15) 0.97155(12)
H10 H 0.3410 0.7274 0.9851
H11 H 0.4287 0.7798 0.9815
H12 H 0.3821 0.7442 0.9436
C11 C 0.8711(2) 0.57055(13) 0.98897(7)
H13 H 0.9076 0.5352 1.0003
H14 H 0.8855 0.6019 1.0081
C12 C 0.9242(2) 0.58572(12) 0.95190(7)
C13 C 0.9595(3) 0.54202(12) 0.92799(8)
H15 H 0.9600 0.5035 0.9369
C14 C 0.9937(2) 0.55397(12) 0.89151(8)
C15 C 0.9950(2) 0.61051(12) 0.87799(7)
C16 C 0.9645(2) 0.65368(12) 0.90251(8)
H16 H 0.9683 0.6925 0.8942
C17 C 0.9286(2) 0.64184(12) 0.93887(8)
C18 C 0.8946(3) 0.74180(13) 0.95291(9)
H17 H 0.8673 0.7449 0.9249
H18 H 0.8393 0.7633 0.9677
C19 C 1.0119(4) 0.76910(17) 0.95981(11)
H19 H 1.0636 0.7529 0.9417
H20 H 1.0047 0.8106 0.9556
H21 H 1.0443 0.7617 0.9866
C20 C 1.0681(3) 0.45953(13) 0.87978(9)
H22 H 1.1400 0.4663 0.8971
H23 H 1.0116 0.4392 0.8947
C21 C 1.0940(3) 0.42461(14) 0.84523(10)
H24 H 1.1426 0.4470 0.8291
H25 H 1.1354 0.3896 0.8541
H26 H 1.0211 0.4144 0.8300
C22 C 1.0234(2) 0.62284(13) 0.83663(8)
H27 H 1.0834 0.5955 0.8295
H28 H 1.0554 0.6621 0.8354
C23 C 0.9172(2) 0.61761(12) 0.80797(7)
C24 C 0.8897(2) 0.56581(12) 0.78946(7)
H29 H 0.9410 0.5341 0.7939
C25 C 0.7881(3) 0.55929(12) 0.76444(7)
C26 C 0.7131(2) 0.60485(13) 0.75730(7)
C27 C 0.7405(3) 0.65681(13) 0.77500(8)
H30 H 0.6899 0.6886 0.7700
C28 C 0.8419(3) 0.66333(12) 0.80022(7)
C29 C 0.8030(3) 0.76284(13) 0.81362(9)
H31 H 0.7935 0.7738 0.7858
H32 H 0.7253 0.7549 0.8222
C30 C 0.8618(4) 0.81009(15) 0.83756(11)
H33 H 0.9369 0.8188 0.8279
H34 H 0.8127 0.8444 0.8356
H35 H 0.8743 0.7979 0.8648
C31 C 0.8245(3) 0.45875(13) 0.75524(10)
H36 H 0.9050 0.4648 0.7486
H37 H 0.8269 0.4499 0.7833
C32 C 0.7686(5) 0.41109(17) 0.73173(15)
H38 H 0.7615 0.4217 0.7041
H39 H 0.8162 0.3764 0.7356
H40 H 0.6911 0.4037 0.7400
C33 C 0.5989(3) 0.59713(14) 0.73291(8)
H41 H 0.5709 0.5577 0.7371
H42 H 0.5419 0.6238 0.7428
C34 C 0.5981(2) 0.60654(13) 0.68914(8)
C35 C 0.5773(2) 0.66076(13) 0.67345(8)
C36 C 0.5674(2) 0.66871(13) 0.63312(8)
H43 H 0.5532 0.7061 0.6228
C37 C 0.5778(2) 0.62322(13) 0.60805(8)
C38 C 0.6025(2) 0.56931(13) 0.62375(8)
C39 C 0.6107(2) 0.56149(13) 0.66411(8)
H44 H 0.6253 0.5242 0.6745
C40 C 0.5342(4) 0.75937(15) 0.68674(10)
H45 H 0.5986 0.7772 0.6741
H46 H 0.4646 0.7579 0.6677
C41 C 0.5092(6) 0.79314(19) 0.72164(13)
H47 H 0.5772 0.7923 0.7409
H48 H 0.4915 0.8329 0.7140
H49 H 0.4423 0.7764 0.7330
C42 C 0.6578(3) 0.47161(13) 0.61096(9)
H50 H 0.7324 0.4769 0.6272
H51 H 0.6023 0.4525 0.6269
C43 C 0.6756(4) 0.43562(16) 0.57563(11)
H52 H 0.7287 0.4555 0.5596
H53 H 0.7091 0.3985 0.5840
H54 H 0.6008 0.4295 0.5604
C44 C 0.5580(2) 0.63185(14) 0.56426(8)
H55 H 0.5777 0.6718 0.5578
H56 H 0.6100 0.6059 0.5512
C45 C 0.4322(2) 0.61965(13) 0.54925(7)
C46 C 0.3956(2) 0.56399(12) 0.53997(7)
H57 H 0.4512 0.5339 0.5408
C47 C 0.2796(2) 0.55157(12) 0.52959(7)
C48 C 0.1973(2) 0.59491(12) 0.52723(7)
C49 C 0.2345(2) 0.65102(12) 0.53506(7)
H58 H 0.1796 0.6814 0.5325
C50 C 0.3502(2) 0.66316(12) 0.54645(7)
C51 C 0.3085(3) 0.76294(12) 0.55723(8)
H59 H 0.2708 0.7704 0.5308
H60 H 0.2476 0.7527 0.5743
C52 C 0.3732(3) 0.81463(14) 0.57246(10)
H61 H 0.4437 0.8192 0.5591
H62 H 0.3239 0.8486 0.5679
H63 H 0.3946 0.8102 0.6004
C53 C 0.3188(3) 0.45077(13) 0.52357(9)
H64 H 0.3742 0.4561 0.5037
H65 H 0.3633 0.4491 0.5495
C54 C 0.2509(3) 0.39654(13) 0.51586(10)
H66 H 0.2054 0.3992 0.4905
H67 H 0.3046 0.3640 0.5158
H68 H 0.1984 0.3910 0.5362
C55 C 0.0678(2) 0.58214(12) 0.51890(7)
H69 H 0.0567 0.5474 0.5025
H70 H 0.0285 0.6147 0.5047
C56 C 0.0160(2) 0.57280(12) 0.55695(7)
C57 C -0.0252(2) 0.61847(11) 0.57773(7)
C58 C -0.0620(2) 0.61027(12) 0.61461(7)
H71 H -0.0903 0.6419 0.6282
C59 C -0.0576(2) 0.55610(12) 0.63168(7)
C60 C -0.0203(2) 0.50985(11) 0.61057(8)
C61 C 0.0163(2) 0.51839(12) 0.57390(7)
H72 H 0.0423 0.4865 0.5600
C62 C -0.0547(3) 0.72090(12) 0.58062(8)
H73 H -0.0206 0.7171 0.6079
H74 H -0.0202 0.7552 0.5694
C63 C -0.1839(3) 0.72946(14) 0.58018(10)
H75 H -0.2167 0.6991 0.5955
H76 H -0.1995 0.7669 0.5915
H77 H -0.2198 0.7279 0.5533
C64 C 0.0064(3) 0.40793(13) 0.60738(10)
H78 H -0.0448 0.4053 0.5828
H79 H 0.0881 0.4097 0.6010
C65 C -0.0113(4) 0.35663(15) 0.63279(13)
H80 H -0.0932 0.3544 0.6379
H81 H 0.0102 0.3216 0.6195
H82 H 0.0375 0.3605 0.6575
C66 C -0.0882(2) 0.54978(13) 0.67292(7)
H83 H -0.1476 0.5786 0.6782
H84 H -0.1212 0.5112 0.6765
C67 C 0.0202(2) 0.55810(12) 0.70137(7)
C68 C 0.0504(2) 0.61186(12) 0.71641(7)
C69 C 0.1520(3) 0.61905(13) 0.74066(7)
H85 H 0.1716 0.6561 0.7508
C70 C 0.2261(2) 0.57293(13) 0.75046(8)
C71 C 0.1941(3) 0.51900(13) 0.73587(8)
C72 C 0.0926(3) 0.51201(13) 0.71148(8)
H86 H 0.0723 0.4750 0.7015
C73 C -0.0027(3) 0.71100(13) 0.72168(9)
H87 H -0.0024 0.7088 0.7503
H88 H 0.0735 0.7259 0.7154
C74 C -0.0996(3) 0.74964(15) 0.70480(10)
H89 H -0.1745 0.7337 0.7105
H90 H -0.0898 0.7879 0.7164
H91 H -0.0973 0.7524 0.6766
C75 C 0.2441(4) 0.41915(17) 0.73330(12)
H92 H 0.1730 0.4058 0.7444
H93 H 0.2299 0.4182 0.7046
C76 C 0.3468(6) 0.3807(2) 0.74692(16)
H94 H 0.4138 0.3909 0.7329
H95 H 0.3669 0.3860 0.7749
H96 H 0.3259 0.3405 0.7417
C77 C 0.3426(3) 0.58243(14) 0.77441(8)
H97 H 0.3668 0.6227 0.7709
H98 H 0.4014 0.5575 0.7638
C78 C 0.3441(2) 0.57079(12) 0.81752(8)
C79 C 0.3239(2) 0.61450(12) 0.84374(8)
C80 C 0.3319(2) 0.60339(12) 0.88319(8)
H99 H 0.3180 0.6335 0.9007
C81 C 0.3596(2) 0.54938(12) 0.89774(8)
C82 C 0.3781(3) 0.50568(12) 0.87176(8)
C83 C 0.3717(2) 0.51667(13) 0.83241(8)
H100 H 0.3866 0.4865 0.8151
C84 C 0.2833(3) 0.71412(13) 0.85265(10)
H101 H 0.2231 0.7057 0.8704
H102 H 0.3576 0.7221 0.8685
C85 C 0.2475(4) 0.76516(15) 0.82710(13)
H103 H 0.1734 0.7569 0.8119
H104 H 0.2387 0.7990 0.8434
H105 H 0.3072 0.7727 0.8094
C86 C 0.4209(3) 0.40543(13) 0.86230(10)
H106 H 0.3487 0.3992 0.8450
H107 H 0.4850 0.4134 0.8460
C87 C 0.4482(4) 0.35359(14) 0.88684(13)
H108 H 0.3915 0.3501 0.9061
H109 H 0.4447 0.3194 0.8703
H110 H 0.5265 0.3573 0.9003
C88 C 0.3753(2) 0.53912(13) 0.94137(8)
H111 H 0.3504 0.4997 0.9472
H112 H 0.3263 0.5663 0.9546

#END
