./ACOJUZ_from_POSCAR.cif_generated_by_CrystalShift
_symmetry_cell_setting triclinic
_symmetry_space_group_name_H-M 'P 1'
loop_
_symmetry_equiv_pos_site_id
_symmetry_equiv_pos_as_xyz
1 x,y,z
_cell_length_a 11.558200
_cell_length_b 23.309000
_cell_length_c 34.534000
_cell_angle_alpha 90.000000
_cell_angle_beta 95.489000
_cell_angle_gamma 90.000000
_cell_volume 9261.145978
loop_
_atom_site_label
_atom_site_type_symbol
_atom_site_fract_x
_atom_site_fract_y
_atom_site_fract_z
H1 H 0.326300 0.566300 0.954600
H2 H 0.526500 0.357300 0.900300
H3 H 0.444700 0.319400 0.870300
H4 H 0.391500 0.350100 0.906100
H5 H 0.485000 0.413400 0.846000
H6 H 0.348700 0.399200 0.845000
H7 H 0.307200 0.772700 0.809400
H8 H 0.238700 0.799000 0.843400
H9 H 0.173400 0.756900 0.811900
H10 H 0.357600 0.722100 0.868500
H11 H 0.223100 0.705700 0.870400
H12 H 0.386600 0.486500 0.815100
H13 H 0.318000 0.633500 0.900700
H14 H 0.401400 0.557500 0.763800
H15 H 0.366800 0.622700 0.770900
H16 H 0.325900 0.340500 0.741700
H17 H 0.366900 0.386000 0.774900
H18 H 0.413800 0.390900 0.732900
H19 H 1.049700 1.035800 0.450900
H20 H 0.229900 0.418200 0.704600
H21 H 0.173000 0.405800 0.744400
H22 H -0.097300 0.752400 0.676600
H23 H 1.193400 0.856000 0.488000
H24 H -0.089800 0.787900 0.716400
H25 H -0.174500 0.733700 0.710500
H26 H 1.172300 1.102400 0.482200
H27 H 1.199400 1.098600 0.437500
H28 H 0.073500 0.725900 0.715400
H29 H 1.363800 1.130500 0.500900
H30 H 1.312600 1.172700 0.467000
H31 H 1.398300 1.121700 0.457600
H32 H -0.002400 0.708800 0.750300
H33 H 1.037500 0.799500 0.506400
H34 H 1.072300 0.786800 0.463200
H35 H 0.072300 0.475000 0.701500
H36 H 0.841000 0.772600 0.485100
H37 H 0.928700 0.720200 0.481500
H38 H 0.882100 0.755800 0.443600
H39 H 0.171600 0.656100 0.750800
H40 H 1.407600 0.964800 0.500300
H41 H 1.385500 0.898100 0.508100
H42 H -0.121200 0.511200 0.676500
H43 H -0.147600 0.578600 0.678200
H44 H 1.460000 0.996500 0.436900
H45 H 0.037500 0.360500 0.657500
H46 H 0.010200 0.321600 0.619500
H47 H -0.093200 0.354400 0.637900
H48 H 1.468300 0.807500 0.394200
H49 H 0.088100 0.409700 0.601000
H50 H -0.044800 0.405300 0.582800
H51 H 1.367300 0.755100 0.424900
H52 H 1.339300 0.736700 0.467700
H53 H -0.219800 0.727900 0.553300
H54 H 1.563600 0.747100 0.441700
H55 H 1.504700 0.689400 0.455600
H56 H 1.544300 0.738300 0.486600
H57 H -0.199500 0.766900 0.591500
H58 H 1.640000 1.033700 0.397100
H59 H 1.511600 1.060800 0.394700
H60 H -0.216700 0.699100 0.595500
H61 H 1.642600 1.053000 0.329100
H62 H 1.635400 1.110400 0.354100
H63 H 1.521100 1.085600 0.330000
H64 H -0.020200 0.755200 0.569400
H65 H 1.583400 0.904500 0.329500
H66 H 1.555400 0.837900 0.335400
H67 H -0.020600 0.717100 0.607900
H68 H 0.042300 0.486500 0.560000
H69 H 1.441000 0.965900 0.293900
H70 H -0.090300 0.641900 0.628200
H71 H 0.028500 0.614700 0.504700
H72 H 0.056700 0.547400 0.502500
H73 H 1.189900 0.811400 0.270000
H74 H 0.198400 0.391000 0.536200
H75 H 0.304600 0.364000 0.515800
H76 H 1.293500 0.726200 0.285800
H77 H 1.225300 0.745100 0.322200
H78 H 0.205400 0.399200 0.490500
H79 H 1.436900 0.681200 0.327900
H80 H 1.312700 0.655600 0.335600
H81 H 1.374300 0.702100 0.364800
H82 H 0.363300 0.449100 0.549500
H83 H 1.405000 1.035200 0.248600
H84 H 1.326900 1.050100 0.283300
H85 H 0.374200 0.456100 0.503700
H86 H 1.261500 1.078300 0.204100
H87 H 1.316200 1.123600 0.235600
H88 H 1.191100 1.096300 0.240000
H89 H 0.394600 0.810200 0.600400
H90 H 1.070900 0.942300 0.237100
H91 H 1.041900 0.876200 0.242800
H92 H 0.323900 0.848600 0.567900
H93 H 0.443700 0.819200 0.559100
H94 H 0.247600 0.752700 0.574300
H95 H 1.053200 0.793900 0.122800
H96 H 0.270800 0.770400 0.530800
H97 H 0.179600 0.681400 0.532500
H98 H 0.451200 0.533900 0.540800
H99 H 1.125300 0.975800 0.174500
H100 H 0.610000 0.605900 0.551200
H101 H 1.098600 0.722800 0.174100
H102 H 0.964600 0.742100 0.167700
H103 H 0.577700 0.671800 0.557800
H104 H 1.077200 0.707700 0.240900
H105 H 0.991500 0.667100 0.214000
H106 H 0.942300 0.723600 0.233000
H107 H 0.600800 0.429500 0.560400
H108 H 1.232400 1.023100 0.127200
H109 H 1.102300 1.047500 0.126900
H110 H 0.709100 0.398500 0.584000
H111 H 1.228700 1.044500 0.059600
H112 H 1.209100 1.101500 0.084000
H113 H 1.100800 1.070500 0.060400
H114 H 0.728700 0.455500 0.559600
H115 H 1.077700 0.828200 0.057800
H116 H 1.110000 0.894100 0.051200
H117 H 0.602300 0.452500 0.626900
H118 H 0.732400 0.476900 0.627200
H119 H 0.951200 0.966100 0.040800
H120 H 0.442300 0.776400 0.733000
H121 H 0.491500 0.832900 0.714000
H122 H 0.577200 0.792300 0.740900
H123 H 0.679600 0.818600 0.032500
H124 H 0.464600 0.757900 0.667700
H125 H 0.598600 0.777200 0.674100
H126 H 0.770800 0.729600 0.030800
H127 H 0.747600 0.747300 0.074300
H128 H 0.625300 0.524200 0.674500
H129 H 0.943700 0.680800 0.059100
H130 H 0.823900 0.651400 0.067900
H131 H 0.894600 0.689800 0.100400
H132 H 0.553200 0.706100 0.622800
H133 H 0.874200 1.043900 0.003700
H134 H 0.863300 1.050900 0.049500
H135 H 0.541900 0.623800 0.742800
H136 H 0.705400 1.100800 -0.009500
H137 H 0.804600 1.136000 0.015800
H138 H 0.698400 1.109000 0.036200
H139 H 0.570900 0.557700 0.737100
H140 H 0.556700 0.952600 0.002500
H141 H 0.528500 0.885300 0.004700
H142 H 0.691100 0.403700 0.740000
H143 H 0.816200 0.376400 0.735600
H144 H 0.761500 0.421700 0.704100
H145 H 0.409700 0.858100 0.128200
H146 H 0.826900 0.449900 0.783300
H147 H 0.905000 0.464800 0.748600
H148 H 0.874300 0.797900 0.864800
H149 H 0.542300 1.013500 0.060000
H150 H 0.812700 0.844400 0.835600
H151 H 0.479400 0.782900 0.107900
H152 H 0.479800 0.744800 0.069400
H153 H 0.936900 0.818800 0.827900
H154 H 0.283300 0.800900 0.095500
H155 H 0.300500 0.733100 0.091500
H156 H 0.280200 0.772100 0.053300
H157 H 0.725300 0.754900 0.822200
H158 H 0.455200 1.094700 0.082800
H159 H 0.588100 1.090300 0.101000
H160 H 0.793500 0.773800 0.785800
H161 H 0.406800 1.145600 0.137900
H162 H 0.510200 1.178400 0.119500
H163 H 0.537500 1.139500 0.157500
H164 H 0.689900 0.688600 0.770000
H165 H 0.352400 0.921400 0.178200
H166 H 0.378800 0.988800 0.176500
H167 H 0.941000 0.534100 0.793900
H168 H 1.055400 0.662100 0.835400
H169 H 1.083400 0.595500 0.829500
H170 H 0.671600 0.843900 0.250800
H171 H 1.021100 0.414400 0.830000
H172 H 1.135400 0.389600 0.854100
H173 H 1.142600 0.447000 0.829100
H174 H 0.572300 1.025000 0.201500
H175 H 1.011600 0.439200 0.894700
H176 H 0.497600 0.791200 0.250300
H177 H 0.573500 0.774100 0.215400
H178 H 1.140000 0.466300 0.897100
H179 H 0.325500 0.766300 0.210500
H180 H 0.410200 0.712100 0.216400
H181 H 0.402700 0.747600 0.176600
H182 H 1.044300 0.761700 0.986600
H183 H 0.673000 1.094200 0.244400
H184 H 0.729900 1.081800 0.204600
H185 H 1.004700 0.810600 0.955600
H186 H 0.913800 1.109100 0.232900
H187 H 0.866900 1.114000 0.274900
H188 H 0.825900 1.159500 0.241700
H189 H 1.063600 0.752900 0.941700
H190 H 0.866800 0.877300 0.270900
H191 H 0.901400 0.942500 0.263800
H192 H 0.839300 0.763300 0.967700
H193 H 0.867300 0.744900 0.924900
H194 H 0.968300 0.692500 0.894200
H195 H 0.818000 0.866500 0.400700
H196 H 0.960000 0.503500 0.936900
H197 H 0.885500 0.601900 1.008100
H198 H 0.907600 0.535200 1.000300
H199 H 0.886600 1.013500 0.315100
H200 H 0.382100 0.744200 0.943600
H201 H 0.723100 0.794300 0.370400
H202 H 0.857600 0.777900 0.368500
H203 H 0.428700 0.779800 0.981500
H204 H 0.673400 0.743100 0.311900
H205 H 0.738700 0.701000 0.343400
H206 H 0.807200 0.727300 0.309400
H207 H 0.341000 0.727400 0.985100
H208 H 0.848700 1.100800 0.345000
H209 H 0.985000 1.086600 0.346000
H210 H 0.572300 0.713200 0.963200
H211 H 0.891500 1.149900 0.406100
H212 H 0.944700 1.180600 0.370300
H213 H 1.026500 1.142700 0.400300
H214 H 0.537500 0.700500 1.006400
H215 H 0.850400 1.000300 0.447200
H216 H 0.826300 0.933700 0.454600
H217 H 0.898300 0.378300 0.957600
H218 H 0.812600 0.327300 0.967000
H219 H 0.863800 0.369500 1.000900
H220 H 0.699400 0.401400 0.937500
H221 H 0.672300 0.397600 0.982200
H222 H 0.693400 0.644000 0.988000
H223 H 0.549700 0.464200 0.950900
H224 H 0.173700 0.066300 0.545400
H225 H 0.149600 -0.000300 0.552800
H226 H -0.026500 -0.142700 0.599700
H227 H 0.055300 -0.180600 0.629700
H228 H 0.108500 -0.149900 0.593900
H229 H 0.015000 -0.086600 0.654000
H230 H 0.151300 -0.100800 0.655000
H231 H 0.192800 0.272700 0.690600
H232 H 0.261300 0.299000 0.656600
H233 H 0.326600 0.256900 0.688100
H234 H 0.142400 0.222100 0.631500
H235 H 0.450300 0.535800 0.049100
H236 H 0.276900 0.205700 0.629600
H237 H 0.113400 -0.013500 0.684900
H238 H 0.182000 0.133500 0.599300
H239 H 0.306600 0.356000 0.012000
H240 H 0.098600 0.057500 0.736200
H241 H 0.133200 0.122700 0.729100
H242 H 0.327700 0.602400 0.017800
H243 H 0.300600 0.598600 0.062500
H244 H 0.174100 -0.159500 0.758300
H245 H 0.136200 0.630500 -0.000900
H246 H 0.187400 0.672700 0.033000
H247 H 0.101700 0.621700 0.042400
H248 H 0.133100 -0.114000 0.725100
H249 H 0.462500 0.299500 -0.006400
H250 H 0.427700 0.286800 0.036800
H251 H 0.086200 -0.109100 0.767100
H252 H 0.659000 0.272600 0.014900
H253 H 0.571300 0.220200 0.018500
H254 H 0.617900 0.255800 0.056400
H255 H 0.270100 -0.081800 0.795400
H256 H 0.092400 0.464800 -0.000300
H257 H 0.114500 0.398100 -0.008100
H258 H 0.327000 -0.094200 0.755600
H259 H 0.597300 0.252400 0.823400
H260 H 0.040000 0.496500 0.063100
H261 H 0.589800 0.287900 0.783600
H262 H 0.674500 0.233700 0.789500
H263 H 0.426500 0.225900 0.784600
H264 H 0.031700 0.307500 0.105800
H265 H 0.502400 0.208800 0.749700
H266 H 0.427700 -0.025000 0.798500
H267 H 0.132700 0.255100 0.075100
H268 H 0.160700 0.236700 0.032300
H269 H 0.328400 0.156100 0.749200
H270 H -0.063600 0.247100 0.058300
H271 H -0.004700 0.189400 0.044400
H272 H -0.044300 0.238300 0.013400
H273 H 0.621200 0.011200 0.823500
H274 H -0.140000 0.533700 0.102900
H275 H -0.011600 0.560800 0.105300
H276 H 0.647600 0.078600 0.821800
H277 H -0.142600 0.553000 0.170900
H278 H -0.135400 0.610400 0.145900
H279 H -0.021100 0.585600 0.170000
H280 H 0.462500 -0.139500 0.842500
H281 H -0.083400 0.404500 0.170500
H282 H -0.055400 0.337900 0.164600
H283 H 0.489800 -0.178400 0.880500
H284 H 0.593200 -0.145600 0.862100
H285 H 0.059000 0.465900 0.206100
H286 H 0.411900 -0.090300 0.899000
H287 H 0.544800 -0.094700 0.917200
H288 H 0.719800 0.227900 0.946700
H289 H 0.310100 0.311400 0.230000
H290 H 0.699500 0.266900 0.908500
H291 H 0.716700 0.199100 0.904500
H292 H 0.206500 0.226200 0.214200
H293 H 0.274700 0.245100 0.177800
H294 H 0.520200 0.255200 0.930600
H295 H 0.063100 0.181200 0.172100
H296 H 0.187300 0.155600 0.164400
H297 H 0.125700 0.202100 0.135200
H298 H 0.520600 0.217100 0.892100
H299 H 0.095000 0.535200 0.251400
H300 H 0.173100 0.550100 0.216700
H301 H 0.457700 -0.013500 0.940000
H302 H 0.238500 0.578300 0.295900
H303 H 0.183800 0.623600 0.264400
H304 H 0.308900 0.596300 0.260000
H305 H 0.590300 0.141900 0.871800
H306 H 0.429100 0.442300 0.262900
H307 H 0.458100 0.376200 0.257200
H308 H 0.471500 0.114700 0.995300
H309 H 0.443300 0.047400 0.997500
H310 H 0.301600 -0.109000 0.963800
H311 H 0.446800 0.293900 0.377200
H312 H 0.195400 -0.136000 0.984200
H313 H 0.294600 -0.100800 1.009500
H314 H 0.136700 -0.050900 0.950500
H315 H 0.374700 0.475800 0.325500
H316 H 0.125800 -0.043900 0.996300
H317 H 0.401400 0.222800 0.325900
H318 H 0.535400 0.242100 0.332300
H319 H 0.105400 0.310200 0.899600
H320 H 0.422800 0.207700 0.259100
H321 H 0.508500 0.167100 0.286000
H322 H 0.557700 0.223600 0.267000
H323 H 0.176100 0.348600 0.932100
H324 H 0.267600 0.523100 0.372800
H325 H 0.397700 0.547500 0.373100
H326 H 0.056300 0.319200 0.940900
H327 H 0.271300 0.544500 0.440400
H328 H 0.290900 0.601500 0.416000
H329 H 0.399200 0.570500 0.439600
H330 H 0.252400 0.252700 0.925700
H331 H 0.422300 0.328200 0.442200
H332 H 0.390000 0.394100 0.448800
H333 H 0.229200 0.270400 0.969200
H334 H 0.320400 0.181400 0.967500
H335 H 0.548800 0.466100 0.459200
H336 H 0.048800 0.033900 0.959200
H337 H -0.110000 0.105900 0.948800
H338 H -0.077700 0.171800 0.942200
H339 H 0.820400 0.318600 0.467500
H340 H -0.100800 -0.070500 0.939600
H341 H -0.209100 -0.101500 0.916000
H342 H 0.729200 0.229600 0.469200
H343 H 0.752400 0.247300 0.425700
H344 H -0.228700 -0.044500 0.940400
H345 H 0.556300 0.180800 0.440900
H346 H 0.676100 0.151400 0.432100
H347 H 0.605400 0.189800 0.399600
H348 H -0.102300 -0.047500 0.873100
H349 H 0.625800 0.543900 0.496300
H350 H 0.636700 0.550900 0.450500
H351 H -0.232400 -0.023100 0.872800
H352 H 0.794600 0.600800 0.509500
H353 H 0.695400 0.636000 0.484200
H354 H 0.801600 0.609000 0.463800
H355 H 0.057700 0.276400 0.767000
H356 H 0.943300 0.452600 0.497500
H357 H 0.971500 0.385300 0.495300
H358 H 0.008500 0.332900 0.786000
H359 H -0.077200 0.292300 0.759100
H360 H 0.035400 0.257900 0.832300
H361 H 1.090300 0.358100 0.371800
H362 H -0.098600 0.277200 0.825900
H363 H -0.125300 0.024200 0.825500
H364 H -0.053200 0.206100 0.877200
H365 H 0.957700 0.513500 0.440000
H366 H -0.041900 0.123800 0.757200
H367 H 1.020600 0.282900 0.392100
H368 H 1.020200 0.244800 0.430600
H369 H -0.070900 0.057700 0.762900
H370 H 1.216700 0.300900 0.404500
H371 H 1.199500 0.233100 0.408500
H372 H 1.219800 0.272100 0.446700
H373 H -0.191100 -0.096300 0.760000
H374 H 1.044800 0.594700 0.417200
H375 H 0.911900 0.590300 0.399000
H376 H -0.316200 -0.123600 0.764400
H377 H 1.093200 0.645600 0.362100
H378 H 0.989800 0.678400 0.380500
H379 H 0.962500 0.639500 0.342500
H380 H -0.261500 -0.078300 0.795900
H381 H 1.147600 0.421400 0.321800
H382 H 1.121200 0.488800 0.323500
H383 H -0.326900 -0.050100 0.716700
H384 H -0.405000 -0.035200 0.751400
H385 H -0.374300 0.297900 0.635200
H386 H 0.828400 0.343900 0.249200
H387 H -0.312700 0.344400 0.664400
H388 H -0.436900 0.318800 0.672100
H389 H -0.225300 0.254900 0.677800
H390 H 0.927700 0.525000 0.298500
H391 H -0.293500 0.273800 0.714200
H392 H 1.002400 0.291200 0.249700
H393 H 0.926500 0.274100 0.284600
H394 H -0.189900 0.188600 0.730000
H395 H 1.174500 0.266300 0.289500
H396 H 1.089800 0.212100 0.283600
H397 H 1.097300 0.247600 0.323400
H398 H -0.441000 0.034100 0.706100
H399 H 0.827000 0.594200 0.255600
H400 H 0.770100 0.581800 0.295400
H401 H -0.555400 0.162100 0.664600
H402 H 0.586200 0.609100 0.267100
H403 H 0.633100 0.614000 0.225100
H404 H 0.674100 0.659500 0.258300
H405 H -0.583400 0.095500 0.670500
H406 H 0.633200 0.377300 0.229100
H407 H 0.598600 0.442500 0.236200
H408 H -0.521100 -0.085600 0.670000
H409 H -0.635400 -0.110400 0.645900
H410 H -0.642600 -0.053000 0.670900
H411 H 0.682000 0.366500 0.099300
H412 H -0.511600 -0.060800 0.605300
H413 H -0.640000 -0.033700 0.602900
H414 H -0.544300 0.261700 0.513400
H415 H 0.613400 0.513500 0.184900
H416 H -0.504700 0.310600 0.544400
H417 H 0.776900 0.294300 0.129600
H418 H 0.642400 0.277900 0.131500
H419 H -0.563600 0.252900 0.558300
H420 H 0.826600 0.243100 0.188100
H421 H 0.761300 0.201000 0.156600
H422 H 0.692800 0.227300 0.190600
H423 H -0.339300 0.263300 0.532300
H424 H 0.651300 0.600800 0.155000
H425 H 0.515000 0.586600 0.154000
H426 H -0.367300 0.244900 0.575100
H427 H 0.608500 0.649900 0.093900
H428 H 0.555300 0.680600 0.129700
H429 H 0.473500 0.642700 0.099700
H430 H -0.468300 0.192500 0.605800
H431 H 0.649600 0.500300 0.052800
H432 H 0.673700 0.433700 0.045400
H433 H -0.460000 0.003500 0.563100
H434 H -0.385500 0.101900 0.491900
H435 H -0.407600 0.035200 0.499700
H436 H 0.117900 0.244200 0.556400
H437 H 0.071300 0.279800 0.518500
H438 H 0.159000 0.227400 0.514900
H439 H -0.072300 0.213200 0.536800
H440 H -0.037500 0.200500 0.493600
H441 H -0.398300 -0.121700 0.542400
H442 H -0.312600 -0.172700 0.533000
H443 H -0.363800 -0.130500 0.499100
H444 H -0.199400 -0.098600 0.562500
H445 H -0.172300 -0.102400 0.517800
H446 H -0.193400 0.144000 0.512000
H447 H -0.049700 -0.035800 0.549100
H448 H 0.350400 0.499700 0.947200
C449 C -0.196000 0.007840 0.530610
C450 C -0.078700 0.001270 0.542070
C451 C 0.448200 0.353590 0.886840
C452 C -0.002500 0.047330 0.543560
C453 C -0.046100 0.101030 0.531880
C454 C -0.164600 0.107270 0.520070
C455 C 0.420900 0.405430 0.862300
C456 C -0.241400 0.061350 0.519750
C457 C -0.233100 -0.093810 0.535290
C458 C 0.247500 0.765160 0.827100
C459 C 0.283300 0.714120 0.852650
C460 C -0.335900 -0.133110 0.526710
C461 C 0.371700 0.516670 0.832410
C462 C 0.378100 0.505680 0.871760
C463 C 0.359600 0.549380 0.897740
C464 C -0.008300 0.201000 0.521540
C465 C 0.331900 0.603390 0.883190
C466 C 0.323900 0.614500 0.843740
C467 C 0.094000 0.241690 0.528450
C468 C 0.344100 0.570790 0.817520
C469 C 0.342600 0.582430 0.774410
C470 C 1.196000 0.992160 0.469390
C471 C -0.371100 0.070550 0.511030
C472 C 1.078700 0.998730 0.457930
C473 C 0.346800 0.380700 0.746920
C474 C -0.424200 0.085720 0.548100
C475 C -0.459500 0.042020 0.572010
C476 C 1.002500 0.952670 0.456440
C477 C -0.493700 0.053970 0.608490
C478 C -0.495000 0.110510 0.622010
C479 C -0.464500 0.153680 0.597490
C480 C 0.624700 0.460880 0.058630
C481 C -0.428600 0.141840 0.561130
C482 C -0.394600 0.241800 0.547090
C483 C 0.551800 0.646410 0.113160
C484 C 0.579100 0.594570 0.137700
C485 C -0.511900 0.269100 0.540190
C486 C 0.752500 0.234840 0.172900
C487 C 0.716700 0.285880 0.147350
C488 C 0.628300 0.483330 0.167590
C489 C -0.568100 -0.040470 0.620220
C490 C 0.621900 0.494320 0.128240
C491 C 0.640400 0.450620 0.102260
C492 C -0.594000 -0.075390 0.654770
C493 C 0.668100 0.396610 0.116810
C494 C 0.676100 0.385500 0.156260
C495 C 0.655900 0.429210 0.182480
C496 C -0.523400 0.122840 0.663370
C497 C 0.657400 0.417570 0.225590
C498 C 0.653200 0.619300 0.253080
C499 C -0.417200 0.117610 0.692030
C500 C -0.389700 0.065810 0.710540
C501 C 0.755900 0.580850 0.266700
C502 C -0.288100 0.059290 0.735560
C503 C -0.213100 0.104850 0.742700
C504 C -0.240500 0.156810 0.725000
C505 C 1.099600 0.250360 0.295200
C506 C -0.341900 0.163330 0.699780
C507 C -0.303000 0.262840 0.686380
C508 C 1.002700 0.289000 0.278320
C509 C 0.907400 0.487990 0.288520
C510 C -0.361800 0.310090 0.662440
C511 C 0.805900 0.481000 0.264130
C512 C 0.773900 0.427070 0.249540
C513 C 0.848000 0.380950 0.259340
C514 C -0.324500 -0.041250 0.744760
C515 C 0.949600 0.388140 0.283590
C516 C 0.979800 0.441900 0.298630
C517 C -0.268600 -0.088910 0.768270
C518 C 1.088200 0.450220 0.327080
C519 C 1.011300 0.643370 0.367210
C520 C 0.993600 0.592070 0.392620
C521 C -0.098900 0.097130 0.767090
C522 C 1.183900 0.270540 0.419820
C523 C 1.054700 0.279100 0.419380
C524 C -0.098100 0.106540 0.810860
C525 C -0.077300 0.160760 0.826550
C526 C -0.067400 0.168710 0.866880
C527 C 0.983700 0.481610 0.426100
C528 C -0.077800 0.123220 0.891950
C529 C -0.102500 0.069310 0.876250
C530 C -0.110700 0.061490 0.835890
C531 C 1.020300 0.490150 0.389430
C532 C -0.034200 0.259370 0.813260
C533 C 1.057600 0.443900 0.368320
C534 C 1.062000 0.389730 0.385390
C535 C -0.009200 0.293140 0.778360
C536 C 1.025200 0.381530 0.422270
C537 C 0.984000 0.427200 0.443050
C538 C 0.932200 0.417860 0.481100
C539 C -0.157800 -0.028390 0.889040
C540 C 0.749100 0.603460 0.484140
C541 C 0.681200 0.549230 0.476430
C542 C -0.175600 -0.064380 0.924370
C543 C 0.626800 0.185370 0.427540
C544 C 0.691500 0.237060 0.442770
C545 C 0.649800 0.336840 0.453550
C546 C -0.058000 0.131850 0.935740
C547 C 0.765500 0.348980 0.464940
C548 C 0.802700 0.405090 0.472770
C549 C 0.067800 0.119650 0.950750
C550 C 0.104400 0.063990 0.960030
C551 C 0.720400 0.448430 0.470410
C552 C 0.220400 0.051570 0.970410
C553 C 0.302700 0.094910 0.972770
C554 C 0.265500 0.151020 0.964940
C555 C 0.604400 0.436010 0.460030
C556 C 0.149800 0.163160 0.953550
C557 C 0.191500 0.262940 0.942770
C558 C 0.567800 0.380350 0.450750
C559 C 0.442000 0.368150 0.435740
C560 C 0.126800 0.314630 0.927540
C561 C 0.324400 0.564380 0.424370
C562 C 0.342200 0.528390 0.389040
C563 C 0.490800 0.206860 0.278360
C564 C 0.181200 -0.049230 0.976430
C565 C 0.465800 0.240630 0.313260
C566 C 0.389300 0.438510 0.335890
C567 C 0.249100 -0.103460 0.984140
C568 C 0.397500 0.430690 0.376250
C569 C 0.422200 0.376780 0.391950
C570 C 0.432600 0.331290 0.366880
C571 C 0.432200 0.082140 0.981100
C572 C 0.422700 0.339240 0.326550
C573 C 0.401900 0.393460 0.310860
C574 C 0.484000 0.072800 0.943050
C575 C 0.525200 0.118470 0.922270
C576 C 0.562000 0.110270 0.885390
C577 C 0.401100 0.402870 0.267090
C578 C 0.557600 0.056100 0.868320
C579 C 0.520300 0.009850 0.889430
C580 C 0.483700 0.018390 0.926100
C581 C 0.231400 0.588910 0.268270
C582 C 0.554700 0.220900 0.919380
C583 C 0.175500 0.541250 0.244760
C584 C 0.138200 0.189910 0.162440
C585 C 0.683900 0.229460 0.919820
C586 C 0.197000 0.237160 0.186380
C587 C 0.158100 0.336670 0.199780
C588 C 0.259500 0.343190 0.225000
C589 C 0.493600 -0.092070 0.892620
C590 C 0.286900 0.395150 0.242700
C591 C 0.211900 0.440710 0.235560
C592 C 0.511300 -0.143370 0.867210
C593 C 0.110300 0.434190 0.210540
C594 C 0.082800 0.382390 0.192030
C595 C -0.023400 0.377160 0.163370
C596 C 0.588200 0.049780 0.827080
C597 C -0.094000 0.575390 0.154770
C598 C -0.068100 0.540470 0.120220
C599 C 0.479800 0.058100 0.798630
C600 C 0.449600 0.111860 0.783590
C601 C 0.348000 0.119050 0.759340
C602 C -0.011900 0.230900 0.040190
C603 C 0.273900 0.072930 0.749540
C604 C 0.305900 0.019000 0.764130
C605 C 0.407400 0.012010 0.788520
C606 C 0.105400 0.258200 0.047090
C607 C 0.502700 0.211000 0.778320
C608 C 0.071400 0.358160 0.061130
C609 C 0.035500 0.346320 0.097490
C610 C 0.599600 0.249640 0.795200
C611 C 0.005000 0.389490 0.122010
C612 C 0.006300 0.446030 0.108490
C613 C 0.040500 0.457980 0.072010
C614 C 0.255900 -0.080850 0.766700
C615 C 0.075800 0.414280 0.048100
C616 C 0.128900 0.429450 0.011030
C617 C 0.153200 -0.119300 0.753080
C618 C 0.594000 0.258310 0.028450
C619 C 0.491700 0.299000 0.021540
C620 C 0.164100 0.633110 0.026710
C621 C 0.157400 0.082430 0.725590
C622 C 0.266900 0.593810 0.035290
C623 C 0.258600 0.438650 0.019750
C624 C 0.155900 0.070790 0.682480
C625 C 0.176100 0.114500 0.656260
C626 C 0.168100 0.103390 0.616810
C627 C 0.335400 0.392730 0.020070
C628 C 0.140400 0.049380 0.602260
C629 C 0.121900 0.005680 0.628240
C630 C 0.128300 0.016670 0.667590
C631 C 0.453900 0.398970 0.031880
C632 C 0.216700 0.214120 0.647350
C633 C 0.497500 0.452670 0.043560
C634 C 0.421300 0.498730 0.042070
C635 C 0.252500 0.265160 0.672900
C636 C 0.304000 0.492160 0.030610
C637 C 1.046100 0.898970 0.468120
C638 C 0.244100 0.419150 0.733300
C639 C 0.079100 -0.094570 0.637700
C640 C 1.164600 0.892730 0.479930
C641 C 1.241400 0.938650 0.480250
C642 C 0.051800 -0.146410 0.613160
C643 C 1.233100 1.093810 0.464710
C644 C -0.099600 0.749640 0.704800
C645 C 1.335900 1.133110 0.473290
C646 C 0.124700 0.039120 0.558630
C647 C 1.008300 0.799000 0.478460
C648 C -0.002700 0.711000 0.721680
C649 C 0.906000 0.758310 0.471550
C650 C 0.092600 0.512010 0.711480
C651 C 0.194100 0.519000 0.735870
C652 C 0.226100 0.572930 0.750460
C653 C 1.371100 0.929450 0.488970
C654 C 0.152000 0.619050 0.740660
C655 C 0.375300 0.539120 0.941370
C656 C 0.050400 0.611860 0.716410
C657 C 0.020200 0.558100 0.701370
C658 C 1.424200 0.914280 0.451900
C659 C 1.459500 0.957980 0.427990
C660 C -0.088200 0.549780 0.672920
C661 C 1.493700 0.946030 0.391510
C662 C 1.495000 0.889490 0.377990
C663 C 1.464500 0.846320 0.402510
C664 C -0.011300 0.356630 0.632790
C665 C 0.696000 0.507840 0.969390
C666 C 0.578700 0.501270 0.957930
C667 C 1.428600 0.858160 0.438870
C668 C 0.502500 0.547330 0.956440
C669 C 0.546100 0.601030 0.968120
C670 C 0.664600 0.607270 0.979930
C671 C 1.394600 0.758200 0.452910
C672 C 0.741400 0.561350 0.980250
C673 C 0.733100 0.406190 0.964710
C674 C 0.006400 0.407930 0.607380
C675 C 1.511900 0.730900 0.459810
C676 C 0.835900 0.366890 0.973290
C677 C 1.568100 1.040470 0.379780
C678 C 1.594000 1.075390 0.345230
C679 C -0.183900 0.729460 0.580180
C680 C 0.508300 0.701000 0.978460
C681 C 0.875300 0.960880 0.441370
C682 C 0.948200 1.146410 0.386840
C683 C 0.406000 0.741690 0.971550
C684 C 0.920900 1.094570 0.362300
C685 C 0.747500 0.734840 0.327100
C686 C 0.783300 0.785880 0.352650
C687 C 0.871100 0.570550 0.988970
C688 C 0.871700 0.983330 0.332410
C689 C 0.878100 0.994320 0.371760
C690 C 0.924200 0.585720 0.951900
C691 C 0.959500 0.542020 0.927990
C692 C 0.859600 0.950620 0.397740
C693 C 0.993700 0.553970 0.891510
C694 C 0.995000 0.610510 0.877990
C695 C 0.964500 0.653680 0.902510
C696 C 0.831900 0.896610 0.383190
C697 C 0.928600 0.641840 0.938870
C698 C 0.894600 0.741800 0.952910
C699 C 0.823900 0.885500 0.343740
C700 C 0.844100 0.929210 0.317520
C701 C 1.011900 0.769100 0.959810
C702 C 0.842600 0.917570 0.274410
C703 C 0.846800 1.119300 0.246920
C704 C 0.744100 1.080850 0.233300
C705 C 1.068100 0.459530 0.879780
C706 C 0.400400 0.750360 0.204800
C707 C 0.497300 0.789000 0.221680
C708 C 1.094000 0.424610 0.845230
C709 C 0.592600 0.987990 0.211480
C710 C 0.694100 0.981000 0.235870
C711 C 0.726100 0.927070 0.250460
C712 C 1.023400 0.622840 0.836630
C713 C 0.652000 0.880950 0.240660
C714 C 0.550400 0.888140 0.216410
C715 C 0.917200 0.617610 0.807970
C716 C 0.889700 0.565810 0.789460
C717 C 0.520200 0.941900 0.201370
C718 C 0.788100 0.559290 0.764440
C719 C 0.713100 0.604850 0.757300
C720 C 0.740500 0.656810 0.775000
C721 C 0.411800 0.950220 0.172920
C722 C 0.841900 0.663330 0.800220
C723 C 0.803000 0.762840 0.813620
C724 C 0.488700 1.143370 0.132790
C725 C 0.506400 1.092070 0.107380
C726 C 0.861800 0.810090 0.837560
C727 C 0.316100 0.770540 0.080180
C728 C 0.445300 0.779100 0.080620
C729 C 0.516300 0.981610 0.073900
C730 C 0.824500 0.458750 0.755240
C731 C 0.479700 0.990150 0.110570
C732 C 0.442400 0.943900 0.131680
C733 C 0.768600 0.411090 0.731730
C734 C 0.438000 0.889730 0.114610
C735 C 0.474800 0.881530 0.077730
C736 C 0.516000 0.927200 0.056950
C737 C 0.598900 0.597130 0.732910
C738 C 0.567800 0.917860 0.018900
C739 C 0.750900 1.103460 0.015860
C740 C 0.598100 0.606540 0.689140
C741 C 0.577300 0.660760 0.673450
C742 C 0.567400 0.668710 0.633120
C743 C 0.818800 1.049230 0.023570
C744 C 0.577800 0.623220 0.608050
C745 C 0.602500 0.569310 0.623750
C746 C 0.610700 0.561490 0.664110
C747 C 0.873200 0.685370 0.072460
C748 C 0.534200 0.759370 0.686740
C749 C 0.808500 0.737060 0.057230
C750 C 0.850200 0.836840 0.046450
C751 C 0.509200 0.793140 0.721640
C752 C 0.734500 0.848980 0.035060
C753 C 0.697300 0.905090 0.027230
C754 C 0.779600 0.948430 0.029590
C755 C 0.657800 0.471610 0.610960
C756 C 0.895600 0.936010 0.039970
C757 C 0.932200 0.880350 0.049250
C758 C 0.675600 0.435620 0.575630
C759 C 1.058000 0.868150 0.064260
C760 C 1.175600 1.064380 0.075630
C761 C 1.157800 1.028390 0.110960
C762 C 0.558000 0.631850 0.564260
C763 C 1.009200 0.706860 0.221640
C764 C 1.034200 0.740630 0.186740
C765 C 0.432200 0.619650 0.549250
C766 C 0.395600 0.563990 0.539970
C767 C 1.110700 0.938510 0.164110
C768 C 0.279600 0.551570 0.529590
C769 C 0.197300 0.594910 0.527230
C770 C 0.234500 0.651020 0.535060
C771 C 1.102500 0.930690 0.123750
C772 C 0.350200 0.663160 0.546450
C773 C 0.308500 0.762940 0.557230
C774 C 1.077800 0.876780 0.108050
C775 C 1.067400 0.831290 0.133120
C776 C 0.373200 0.814630 0.572460
C777 C 1.077300 0.839240 0.173450
C778 C 1.098100 0.893460 0.189140
C779 C 1.098900 0.902870 0.232910
C780 C 0.318800 0.450770 0.523570
C781 C 1.268600 1.088910 0.231730
C782 C 1.324500 1.041250 0.255240
C783 C 0.250900 0.396540 0.515860
C784 C 1.361800 0.689910 0.337560
C785 C 1.303000 0.737160 0.313620
C786 C 1.341900 0.836670 0.300220
C787 C 0.067800 0.582140 0.518900
C788 C 1.240500 0.843190 0.275000
C789 C 1.213100 0.895150 0.257300
C790 C 0.016000 0.572800 0.556950
C791 C -0.025200 0.618470 0.577730
C792 C -0.062000 0.610270 0.614610
C793 C 1.288100 0.940710 0.264440
C794 C -0.057600 0.556100 0.631680
C795 C -0.020300 0.509850 0.610570
C796 C 0.016300 0.518390 0.573900
C797 C 1.389700 0.934190 0.289460
C798 C -0.054700 0.720900 0.580620
C799 C 1.417200 0.882390 0.307970
C800 C 1.523400 0.877160 0.336630
O801 O 0.224640 0.536790 0.029000
O802 O 0.532890 0.354570 0.033670
O803 O 0.107020 0.316610 0.036070
O804 O -0.021290 0.488150 0.134490
O805 O 0.124500 0.286540 0.180850
O806 O 0.244180 0.491480 0.253850
O807 O 0.434800 0.295910 0.300190
O808 O 0.406700 0.452320 0.887840
O809 O 0.296160 0.667080 0.827380
O810 O 0.272200 0.475110 0.746050
O811 O -0.024100 0.656150 0.704710
O812 O -0.021150 0.457230 0.628580
O813 O -0.025240 0.671400 0.559290
O814 O 0.237900 0.496760 0.522020
O815 O 0.390660 0.717540 0.556360
O816 O 0.613100 0.525450 0.597420
O817 O 0.755820 0.508520 0.746150
O818 O 0.875500 0.713460 0.819150
O819 O 1.021290 0.511850 0.865510
O820 O 0.892980 0.683390 0.963930
O821 O 0.467110 0.645430 0.966330
O822 O 0.775360 0.463210 0.971000
O823 O 0.386900 0.474550 0.402580
O824 O 0.609340 0.282460 0.443640
O825 O 0.762100 0.503240 0.477980
O826 O 1.025240 0.328600 0.440710
O827 O 1.021150 0.542770 0.371420
O828 O 1.024100 0.343850 0.295290
O829 O 0.727800 0.524890 0.253950
O830 O 0.703840 0.332920 0.172620
O831 O 0.593300 0.547680 0.112160
O832 O -0.275360 -0.036790 0.529000
O833 O 0.032890 0.145430 0.533670
O834 O -0.392980 0.183390 0.536070
O835 O -0.521290 0.011850 0.634490
O836 O 0.906700 1.047680 0.387840
O837 O -0.375500 0.213460 0.680850
O838 O 0.796160 0.832920 0.327380
O839 O 0.772200 1.024890 0.246050
O840 O -0.255820 0.008520 0.753850
O841 O -0.065200 0.204090 0.800190
O842 O -0.113100 0.025450 0.902580
O843 O 0.475900 0.843850 0.204710
O844 O 0.109340 0.217540 0.943640
O845 O 0.262100 -0.003240 0.977980
O846 O 0.525240 0.171400 0.940710
O847 O 0.478850 1.042770 0.128580
O848 O 0.521150 -0.042770 0.871420
O849 O 0.474760 0.828600 0.059290
O850 O 0.737900 1.003240 0.022020
O851 O 0.524100 0.156150 0.795290
O852 O 0.890660 0.782460 0.056360
O853 O 1.113100 0.974550 0.097420
O854 O 1.065200 0.795910 0.199810
O855 O 0.227800 -0.024890 0.753950
O856 O 1.255820 0.991480 0.246150
O857 O 1.375500 0.786540 0.319150
O858 O 0.203840 0.167080 0.672620
O859 O 1.521290 0.988150 0.365510
O860 O 1.392980 0.816610 0.463930
O861 O 0.967110 0.854570 0.466330
O862 O 0.565200 0.704090 0.699810
O863 O 0.093300 -0.047680 0.612160
O864 O 1.275360 1.036790 0.471000

#END
