./ACOKEK_from_POSCAR.cif_generated_by_CrystalShift
_symmetry_cell_setting triclinic
_symmetry_space_group_name_H-M 'P 1'
loop_
_symmetry_equiv_pos_site_id
_symmetry_equiv_pos_as_xyz
1 x,y,z
_cell_length_a 46.342000
_cell_length_b 12.654000
_cell_length_c 25.206000
_cell_angle_alpha 90.000000
_cell_angle_beta 122.625000
_cell_angle_gamma 90.000000
_cell_volume 12448.890840
loop_
_atom_site_label
_atom_site_type_symbol
_atom_site_fract_x
_atom_site_fract_y
_atom_site_fract_z
H1 H 0.513900 0.406000 0.866300
H2 H 0.522200 0.398100 0.812400
H3 H 0.567600 0.488600 0.932700
H4 H 0.573900 0.485500 0.876200
H5 H 0.627100 1.151500 0.962600
H6 H 0.599200 1.220300 0.903800
H7 H 0.625100 1.145900 0.897300
H8 H 0.572400 1.072200 0.913600
H9 H 0.571500 1.063600 0.849200
H10 H 0.539300 0.927900 0.845100
H11 H 0.604300 0.625700 0.939000
H12 H 0.010800 0.802200 0.212800
H13 H 0.012700 0.675700 0.216200
H14 H 0.650000 0.859900 1.005600
H15 H 0.652600 0.734300 1.012200
H16 H 0.021000 0.895900 0.140400
H17 H 0.667200 0.427400 1.002800
H18 H 0.670700 0.351000 0.956000
H19 H 0.637300 0.422700 0.929800
H20 H 0.033600 0.578700 0.062000
H21 H 0.704300 0.502900 0.975500
H22 H 0.673800 0.500300 0.902600
H23 H 0.046800 0.449700 0.138300
H24 H 0.007600 0.442800 0.080100
H25 H 0.752500 1.148200 0.947800
H26 H 0.031200 0.376400 0.205400
H27 H 0.020000 0.297800 0.147700
H28 H -0.008000 0.371400 0.148100
H29 H 0.722000 1.228900 0.930200
H30 H 0.050000 1.024200 0.130200
H31 H 0.012000 1.033100 0.068400
H32 H 0.720300 1.155900 0.876700
H33 H 0.072700 1.096500 0.073800
H34 H 0.045500 1.176800 0.072200
H35 H 0.034900 1.104900 0.012100
H36 H 0.715900 1.079900 0.978900
H37 H 0.035300 0.677300 -0.020800
H38 H 0.037900 0.803600 -0.017400
H39 H 0.684500 1.082800 0.906500
H40 H 0.674300 0.950200 0.956100
H41 H 0.093600 0.889800 0.043400
H42 H 0.711600 0.631500 0.920800
H43 H 0.760600 0.849400 0.927300
H44 H 0.759400 0.723100 0.926800
H45 H 0.147500 0.560600 0.093100
H46 H 0.751100 0.427900 0.890500
H47 H 0.726900 0.349300 0.833800
H48 H 0.111500 0.437100 0.095300
H49 H 0.109000 0.436100 0.029300
H50 H 0.710900 0.423000 0.863300
H51 H 0.055700 0.369700 0.045900
H52 H 0.078700 0.292100 0.033300
H53 H 0.052400 0.371600 -0.020700
H54 H 0.736700 0.493000 0.789000
H55 H 0.134100 1.012100 0.114600
H56 H 0.130100 1.018100 0.047200
H57 H 0.697700 0.502500 0.770100
H58 H 0.192200 1.067400 0.161800
H59 H 0.165400 1.155600 0.116700
H60 H 0.184800 1.085000 0.092600
H61 H 0.708700 1.156700 0.668200
H62 H 0.205300 0.772300 0.129800
H63 H 0.202600 0.645900 0.127700
H64 H 0.700500 1.227600 0.711100
H65 H 0.671900 1.150100 0.659300
H66 H 0.209300 0.869700 0.218600
H67 H 0.733000 1.087500 0.771500
H68 H 0.694900 1.070200 0.755800
H69 H 0.731500 0.947000 0.828700
H70 H 0.231500 0.553000 0.328700
H71 H 0.709300 0.630300 0.718600
H72 H 0.702600 0.854100 0.627700
H73 H 0.194900 0.429800 0.255800
H74 H 0.233000 0.412500 0.271500
H75 H 0.705300 0.727700 0.629800
H76 H 0.171900 0.349900 0.159300
H77 H 0.200500 0.272400 0.211100
H78 H 0.208700 0.343300 0.168200
H79 H 0.684800 0.415000 0.592600
H80 H 0.197700 0.997500 0.270100
H81 H 0.236700 1.007000 0.289000
H82 H 0.665400 0.344400 0.616700
H83 H 0.210900 1.077000 0.363300
H84 H 0.226900 1.150700 0.333800
H85 H 0.251100 1.072100 0.390500
H86 H 0.692200 0.432600 0.661800
H87 H 0.259400 0.776900 0.426800
H88 H 0.260600 0.650600 0.427300
H89 H 0.630100 0.481900 0.547200
H90 H 0.634100 0.487900 0.614600
H91 H 0.211600 0.868500 0.420800
H92 H 0.552400 1.128400 0.479300
H93 H 0.578700 1.207900 0.533300
H94 H 0.555700 1.130300 0.545900
H95 H 0.174300 0.549800 0.456100
H96 H 0.609000 1.063900 0.529300
H97 H 0.611500 1.062900 0.595300
H98 H 0.184500 0.417200 0.406500
H99 H 0.215900 0.420100 0.478900
H100 H 0.647500 0.939400 0.593100
H101 H 0.220300 0.344100 0.376700
H102 H 0.222000 0.271100 0.430200
H103 H 0.252500 0.351800 0.447800
H104 H 0.593600 0.610200 0.543400
H105 H 0.173800 0.999700 0.402600
H106 H 0.204300 0.997100 0.475500
H107 H 0.537900 0.696400 0.482600
H108 H 0.137300 1.077300 0.429800
H109 H 0.170700 1.149000 0.456000
H110 H 0.167200 1.072600 0.502800
H111 H 0.535300 0.822700 0.479200
H112 H 0.152600 0.765700 0.512200
H113 H 0.150000 0.640100 0.505600
H114 H 0.534900 0.395100 0.512100
H115 H 0.545500 0.323200 0.572200
H116 H 0.104300 0.874300 0.439000
H117 H 0.572700 0.403500 0.573800
H118 H 0.512000 0.466900 0.568400
H119 H 0.550000 0.475800 0.630200
H120 H 0.039300 0.572100 0.345100
H121 H 0.492000 1.128600 0.648100
H122 H 0.520000 1.202200 0.647700
H123 H 0.071500 0.436400 0.349200
H124 H 0.072400 0.427800 0.413600
H125 H 0.531200 1.123600 0.705400
H126 H 0.125100 0.354100 0.397300
H127 H 0.099200 0.279700 0.403800
H128 H 0.127100 0.348500 0.462600
H129 H 0.507600 1.057200 0.580100
H130 H 0.073900 1.014500 0.376200
H131 H 0.067600 1.011400 0.432700
H132 H 0.546800 1.050300 0.638300
H133 H 0.022200 1.101900 0.312400
H134 H 0.044800 1.166800 0.376600
H135 H 0.013900 1.094000 0.366300
H136 H 0.533600 0.921300 0.562000
H137 H 0.521000 0.604100 0.640400
H138 H 0.512700 0.824300 0.716200
H139 H 0.510800 0.697800 0.712800
H140 H 0.486100 0.406000 0.633700
H141 H 0.455200 0.333200 0.623400
H142 H 0.477800 0.398100 0.687600
H143 H 0.432400 0.488600 0.567300
H144 H 0.426100 0.485500 0.623800
H145 H 0.372900 1.151500 0.537400
H146 H 0.400800 1.220300 0.596200
H147 H -0.010800 0.802200 0.287200
H148 H -0.012700 0.675700 0.283800
H149 H 0.374900 1.145900 0.602700
H150 H 0.427600 1.072200 0.586400
H151 H -0.021000 0.895900 0.359600
H152 H 0.428500 1.063600 0.650800
H153 H 0.460700 0.927900 0.654900
H154 H 0.395700 0.625700 0.561000
H155 H -0.033600 0.578700 0.438000
H156 H 0.350000 0.859900 0.494400
H157 H 0.347400 0.734300 0.487800
H158 H -0.046800 0.449700 0.361700
H159 H -0.007600 0.442800 0.419900
H160 H 0.332800 0.427400 0.497200
H161 H -0.031200 0.376400 0.294600
H162 H -0.020000 0.297800 0.352300
H163 H 0.008000 0.371400 0.351900
H164 H 0.329300 0.351000 0.544000
H165 H -0.050000 1.024200 0.369800
H166 H -0.012000 1.033100 0.431600
H167 H 0.362700 0.422700 0.570200
H168 H -0.072700 1.096500 0.426200
H169 H -0.045500 1.176800 0.427800
H170 H -0.034900 1.104900 0.487900
H171 H 0.295700 0.502900 0.524500
H172 H -0.035300 0.677300 0.520800
H173 H -0.037900 0.803600 0.517400
H174 H 0.326200 0.500300 0.597400
H175 H 0.247500 1.148200 0.552200
H176 H -0.093600 0.889800 0.456600
H177 H 0.278000 1.228900 0.569800
H178 H 0.279700 1.155900 0.623300
H179 H 0.284100 1.079900 0.521100
H180 H -0.147500 0.560600 0.406900
H181 H 0.315500 1.082800 0.593500
H182 H 0.325700 0.950200 0.543900
H183 H -0.111500 0.437100 0.404700
H184 H -0.109000 0.436100 0.470700
H185 H 0.288400 0.631500 0.579200
H186 H -0.055700 0.369700 0.454100
H187 H -0.078700 0.292100 0.466700
H188 H -0.052400 0.371600 0.520700
H189 H 0.239400 0.849400 0.572700
H190 H -0.134100 1.012100 0.385400
H191 H -0.130100 1.018100 0.452800
H192 H 0.240600 0.723100 0.573200
H193 H -0.192200 1.067400 0.338200
H194 H -0.165400 1.155600 0.383300
H195 H -0.184800 1.085000 0.407400
H196 H 0.248900 0.427900 0.609500
H197 H -0.205300 0.772300 0.370200
H198 H -0.202600 0.645900 0.372300
H199 H 0.273100 0.349300 0.666200
H200 H 0.289100 0.423000 0.636700
H201 H -0.209300 0.869700 0.281400
H202 H 0.263300 0.493000 0.711000
H203 H 0.302300 0.502500 0.729900
H204 H 0.291300 1.156700 0.831800
H205 H -0.231500 0.553000 0.171300
H206 H 0.299500 1.227600 0.788900
H207 H 0.328100 1.150100 0.840700
H208 H -0.194900 0.429800 0.244200
H209 H -0.233000 0.412500 0.228500
H210 H 0.267000 1.087500 0.728500
H211 H -0.171900 0.349900 0.340700
H212 H -0.200500 0.272400 0.288900
H213 H -0.208700 0.343300 0.331800
H214 H 0.305100 1.070200 0.744200
H215 H -0.197700 0.997500 0.229900
H216 H -0.236700 1.007000 0.211000
H217 H 0.268500 0.947000 0.671300
H218 H -0.210900 1.077000 0.136700
H219 H -0.226900 1.150700 0.166200
H220 H -0.251100 1.072100 0.109500
H221 H 0.290700 0.630300 0.781400
H222 H -0.259400 0.776900 0.073200
H223 H -0.260600 0.650600 0.072700
H224 H 0.297400 0.854100 0.872300
H225 H 0.294700 0.727700 0.870200
H226 H -0.211600 0.868500 0.079200
H227 H 0.315200 0.415000 0.907400
H228 H 0.334600 0.344400 0.883300
H229 H 0.307800 0.432600 0.838200
H230 H -0.174300 0.549800 0.043900
H231 H 0.369900 0.481900 0.952800
H232 H 0.365900 0.487900 0.885400
H233 H -0.184500 0.417200 0.093500
H234 H -0.215900 0.420100 0.021100
H235 H 0.447600 1.128400 1.020700
H236 H -0.220300 0.344100 0.123300
H237 H -0.222000 0.271100 0.069800
H238 H -0.252500 0.351800 0.052200
H239 H 0.421300 1.207900 0.966700
H240 H -0.173800 0.999700 0.097400
H241 H -0.204300 0.997100 0.024500
H242 H 0.444300 1.130300 0.954100
H243 H -0.137300 1.077300 0.070200
H244 H -0.170700 1.149000 0.044000
H245 H -0.167200 1.072600 -0.002800
H246 H 0.391000 1.063900 0.970700
H247 H -0.152600 0.765700 -0.012200
H248 H -0.150000 0.640100 -0.005600
H249 H 0.388500 1.062900 0.904700
H250 H 0.352500 0.939400 0.906900
H251 H -0.104300 0.874300 0.061000
H252 H 0.406400 0.610200 0.956600
H253 H 0.462100 0.696400 1.017400
H254 H 0.464700 0.822700 1.020800
H255 H -0.039300 0.572100 0.154900
H256 H 0.465100 0.395100 0.987900
H257 H 0.454500 0.323200 0.927800
H258 H -0.071500 0.436400 0.150800
H259 H -0.072400 0.427800 0.086400
H260 H 0.427300 0.403500 0.926200
H261 H -0.125100 0.354100 0.102700
H262 H -0.099200 0.279700 0.096200
H263 H -0.127100 0.348500 0.037400
H264 H 0.488000 0.466900 0.931600
H265 H -0.073900 1.014500 0.123800
H266 H -0.067600 1.011400 0.067300
H267 H 0.450000 0.475800 0.869800
H268 H -0.022200 1.101900 0.187600
H269 H -0.044800 1.166800 0.123400
H270 H -0.013900 1.094000 0.133700
H271 H 0.508000 1.128600 0.851900
H272 H 0.480000 1.202200 0.852300
H273 H 0.468800 1.123600 0.794600
H274 H 0.492400 1.057200 0.919900
H275 H 0.453200 1.050300 0.861700
H276 H 0.466400 0.921300 0.938000
H277 H 0.479000 0.604100 0.859600
H278 H 0.487300 0.824300 0.783800
H279 H 0.489200 0.697800 0.787200
H280 H 1.013900 -0.094000 0.866300
H281 H 1.044800 -0.166800 0.876600
H282 H 1.010800 0.802200 0.212800
H283 H 1.012700 0.675700 0.216200
H284 H 1.022200 -0.101900 0.812400
H285 H 1.067600 -0.011400 0.932700
H286 H 1.021000 0.895900 0.140400
H287 H 1.073900 -0.014500 0.876200
H288 H 1.127100 0.651500 0.962600
H289 H 1.099200 0.720300 0.903800
H290 H 1.033600 0.578700 0.062000
H291 H 1.125100 0.645900 0.897300
H292 H 1.072400 0.572200 0.913600
H293 H 1.046800 0.449700 0.138300
H294 H 1.007600 0.442800 0.080100
H295 H 1.071500 0.563600 0.849200
H296 H 1.031200 0.376400 0.205400
H297 H 1.020000 0.297800 0.147700
H298 H 0.992000 0.371400 0.148100
H299 H 1.039300 0.427900 0.845100
H300 H 1.050000 1.024200 0.130200
H301 H 1.012000 1.033100 0.068400
H302 H 1.104300 0.125700 0.939000
H303 H 1.072700 1.096500 0.073800
H304 H 1.045500 1.176800 0.072200
H305 H 1.034900 1.104900 0.012100
H306 H 1.150000 0.359900 1.005600
H307 H 1.035300 0.677300 -0.020800
H308 H 1.037900 0.803600 -0.017400
H309 H 1.152600 0.234300 1.012200
H310 H 1.167200 -0.072600 1.002800
H311 H 1.093600 0.889800 0.043400
H312 H 1.170700 -0.149000 0.956000
H313 H 1.137300 -0.077300 0.929800
H314 H 1.204300 0.002900 0.975500
H315 H 1.147500 0.560600 0.093100
H316 H 1.173800 0.000300 0.902600
H317 H 1.252500 0.648200 0.947800
H318 H 1.111500 0.437100 0.095300
H319 H 1.109000 0.436100 0.029300
H320 H 1.222000 0.728900 0.930200
H321 H 1.055700 0.369700 0.045900
H322 H 1.078700 0.292100 0.033300
H323 H 1.052400 0.371600 -0.020700
H324 H 1.220300 0.655900 0.876700
H325 H 1.134100 1.012100 0.114600
H326 H 1.130100 1.018100 0.047200
H327 H 1.215900 0.579900 0.978900
H328 H 1.192200 1.067400 0.161800
H329 H 1.165400 1.155600 0.116700
H330 H 1.184800 1.085000 0.092600
H331 H 1.184500 0.582800 0.906500
H332 H 1.205300 0.772300 0.129800
H333 H 1.202600 0.645900 0.127700
H334 H 1.174300 0.450200 0.956100
H335 H 1.211600 0.131500 0.920800
H336 H 1.209300 0.869700 0.218600
H337 H 1.260600 0.349400 0.927300
H338 H 1.259400 0.223100 0.926800
H339 H 1.251100 -0.072100 0.890500
H340 H 1.231500 0.553000 0.328700
H341 H 1.226900 -0.150700 0.833800
H342 H 1.210900 -0.077000 0.863300
H343 H 1.194900 0.429800 0.255800
H344 H 1.233000 0.412500 0.271500
H345 H 1.236700 -0.007000 0.789000
H346 H 1.171900 0.349900 0.159300
H347 H 1.200500 0.272400 0.211100
H348 H 1.208700 0.343300 0.168200
H349 H 1.197700 0.002500 0.770100
H350 H 1.197700 0.997500 0.270100
H351 H 1.236700 1.007000 0.289000
H352 H 1.208700 0.656700 0.668200
H353 H 1.210900 1.077000 0.363300
H354 H 1.226900 1.150700 0.333800
H355 H 1.251100 1.072100 0.390500
H356 H 1.200500 0.727600 0.711100
H357 H 1.259400 0.776900 0.426800
H358 H 1.260600 0.650600 0.427300
H359 H 1.171900 0.650100 0.659300
H360 H 1.233000 0.587500 0.771500
H361 H 1.211600 0.868500 0.420800
H362 H 1.194900 0.570200 0.755800
H363 H 1.231500 0.447000 0.828700
H364 H 1.209300 0.130300 0.718600
H365 H 1.174300 0.549800 0.456100
H366 H 1.202600 0.354100 0.627700
H367 H 1.205300 0.227700 0.629800
H368 H 1.184500 0.417200 0.406500
H369 H 1.215900 0.420100 0.478900
H370 H 1.184800 -0.085000 0.592600
H371 H 1.220300 0.344100 0.376700
H372 H 1.222000 0.271100 0.430200
H373 H 1.252500 0.351800 0.447800
H374 H 1.165400 -0.155600 0.616700
H375 H 1.173800 0.999700 0.402600
H376 H 1.204300 0.997100 0.475500
H377 H 1.192200 -0.067400 0.661800
H378 H 1.137300 1.077300 0.429800
H379 H 1.170700 1.149000 0.456000
H380 H 1.167200 1.072600 0.502800
H381 H 1.130100 -0.018100 0.547200
H382 H 1.152600 0.765700 0.512200
H383 H 1.150000 0.640100 0.505600
H384 H 1.134100 -0.012100 0.614600
H385 H 1.052400 0.628400 0.479300
H386 H 1.104300 0.874300 0.439000
H387 H 1.078700 0.707900 0.533300
H388 H 1.055700 0.630300 0.545900
H389 H 1.109000 0.563900 0.529300
H390 H 1.039300 0.572100 0.345100
H391 H 1.111500 0.562900 0.595300
H392 H 1.147500 0.439400 0.593100
H393 H 1.071500 0.436400 0.349200
H394 H 1.072400 0.427800 0.413600
H395 H 1.093600 0.110200 0.543400
H396 H 1.125100 0.354100 0.397300
H397 H 1.099200 0.279700 0.403800
H398 H 1.127100 0.348500 0.462600
H399 H 1.037900 0.196400 0.482600
H400 H 1.073900 1.014500 0.376200
H401 H 1.067600 1.011400 0.432700
H402 H 1.035300 0.322700 0.479200
H403 H 1.022200 1.101900 0.312400
H404 H 1.044800 1.166800 0.376600
H405 H 1.013900 1.094000 0.366300
H406 H 1.034900 -0.104900 0.512100
H407 H 1.045500 -0.176800 0.572200
H408 H 1.072700 -0.096500 0.573800
H409 H 1.012000 -0.033100 0.568400
H410 H 1.050000 -0.024200 0.630200
H411 H 0.992000 0.628600 0.648100
H412 H 1.020000 0.702200 0.647700
H413 H 1.031200 0.623600 0.705400
H414 H 1.007600 0.557200 0.580100
H415 H 1.046800 0.550300 0.638300
H416 H 1.033600 0.421300 0.562000
H417 H 0.989200 0.802200 0.287200
H418 H 0.987300 0.675700 0.283800
H419 H 1.021000 0.104100 0.640400
H420 H 1.012700 0.324300 0.716200
H421 H 0.979000 0.895900 0.359600
H422 H 1.010800 0.197800 0.712800
H423 H 0.986100 -0.094000 0.633700
H424 H 0.955200 -0.166800 0.623400
H425 H 0.966400 0.578700 0.438000
H426 H 0.977800 -0.101900 0.687600
H427 H 0.932400 -0.011400 0.567300
H428 H 0.953200 0.449700 0.361700
H429 H 0.992400 0.442800 0.419900
H430 H 0.926100 -0.014500 0.623800
H431 H 0.968800 0.376400 0.294600
H432 H 0.980000 0.297800 0.352300
H433 H 1.008000 0.371400 0.351900
H434 H 0.872900 0.651500 0.537400
H435 H 0.950000 1.024200 0.369800
H436 H 0.988000 1.033100 0.431600
H437 H 0.900800 0.720300 0.596200
H438 H 0.927300 1.096500 0.426200
H439 H 0.954500 1.176800 0.427800
H440 H 0.965100 1.104900 0.487900
H441 H 0.874900 0.645900 0.602700
H442 H 0.964700 0.677300 0.520800
H443 H 0.962100 0.803600 0.517400
H444 H 0.927600 0.572200 0.586400
H445 H 0.928500 0.563600 0.650800
H446 H 0.906400 0.889800 0.456600
H447 H 0.960700 0.427900 0.654900
H448 H 0.895700 0.125700 0.561000
H449 H 0.850000 0.359900 0.494400
H450 H 0.852500 0.560600 0.406900
H451 H 0.847400 0.234300 0.487800
H452 H 0.832800 -0.072600 0.497200
H453 H 0.888500 0.437100 0.404700
H454 H 0.891000 0.436100 0.470700
H455 H 0.829300 -0.149000 0.544000
H456 H 0.944300 0.369700 0.454100
H457 H 0.921300 0.292100 0.466700
H458 H 0.947600 0.371600 0.520700
H459 H 0.862700 -0.077300 0.570200
H460 H 0.865900 1.012100 0.385400
H461 H 0.869900 1.018100 0.452800
H462 H 0.795700 0.002900 0.524500
H463 H 0.807800 1.067400 0.338200
H464 H 0.834600 1.155600 0.383300
H465 H 0.815200 1.085000 0.407400
H466 H 0.826200 0.000300 0.597400
H467 H 0.794700 0.772300 0.370200
H468 H 0.797400 0.645900 0.372300
H469 H 0.747500 0.648200 0.552200
H470 H 0.778000 0.728900 0.569800
H471 H 0.790700 0.869700 0.281400
H472 H 0.779700 0.655900 0.623300
H473 H 0.784100 0.579900 0.521100
H474 H 0.815500 0.582800 0.593500
H475 H 0.768500 0.553000 0.171300
H476 H 0.825700 0.450200 0.543900
H477 H 0.788400 0.131500 0.579200
H478 H 0.805100 0.429800 0.244200
H479 H 0.767000 0.412500 0.228500
H480 H 0.739400 0.349400 0.572700
H481 H 0.828100 0.349900 0.340700
H482 H 0.799500 0.272400 0.288900
H483 H 0.791300 0.343300 0.331800
H484 H 0.740600 0.223100 0.573200
H485 H 0.802300 0.997500 0.229900
H486 H 0.763300 1.007000 0.211000
H487 H 0.748900 -0.072100 0.609500
H488 H 0.789100 1.077000 0.136700
H489 H 0.773100 1.150700 0.166200
H490 H 0.748900 1.072100 0.109500
H491 H 0.773100 -0.150700 0.666200
H492 H 0.740600 0.776900 0.073200
H493 H 0.739400 0.650600 0.072700
H494 H 0.789100 -0.077000 0.636700
H495 H 0.763300 -0.007000 0.711000
H496 H 0.788400 0.868500 0.079200
H497 H 0.802300 0.002500 0.729900
H498 H 0.791300 0.656700 0.831800
H499 H 0.799500 0.727600 0.788900
H500 H 0.825700 0.549800 0.043900
H501 H 0.828100 0.650100 0.840700
H502 H 0.767000 0.587500 0.728500
H503 H 0.815500 0.417200 0.093500
H504 H 0.784100 0.420100 0.021100
H505 H 0.805100 0.570200 0.744200
H506 H 0.779700 0.344100 0.123300
H507 H 0.778000 0.271100 0.069800
H508 H 0.747500 0.351800 0.052200
H509 H 0.768500 0.447000 0.671300
H510 H 0.826200 0.999700 0.097400
H511 H 0.795700 0.997100 0.024500
H512 H 0.790700 0.130300 0.781400
H513 H 0.862700 1.077300 0.070200
H514 H 0.829300 1.149000 0.044000
H515 H 0.832800 1.072600 -0.002800
H516 H 0.797400 0.354100 0.872300
H517 H 0.847400 0.765700 -0.012200
H518 H 0.850000 0.640100 -0.005600
H519 H 0.794700 0.227700 0.870200
H520 H 0.815200 -0.085000 0.907400
H521 H 0.895700 0.874300 0.061000
H522 H 0.834600 -0.155600 0.883300
H523 H 0.807800 -0.067400 0.838200
H524 H 0.869900 -0.018100 0.952800
H525 H 0.960700 0.572100 0.154900
H526 H 0.865900 -0.012100 0.885400
H527 H 0.947600 0.628400 1.020700
H528 H 0.928500 0.436400 0.150800
H529 H 0.927600 0.427800 0.086400
H530 H 0.921300 0.707900 0.966700
H531 H 0.874900 0.354100 0.102700
H532 H 0.900800 0.279700 0.096200
H533 H 0.872900 0.348500 0.037400
H534 H 0.944300 0.630300 0.954100
H535 H 0.926100 1.014500 0.123800
H536 H 0.932400 1.011400 0.067300
H537 H 0.891000 0.563900 0.970700
H538 H 0.977800 1.101900 0.187600
H539 H 0.955200 1.166800 0.123400
H540 H 0.986100 1.094000 0.133700
H541 H 0.888500 0.562900 0.904700
H542 H 0.852500 0.439400 0.906900
H543 H 0.906400 0.110200 0.956600
H544 H 0.962100 0.196400 1.017400
H545 H 0.964700 0.322700 1.020800
H546 H 0.965100 -0.104900 0.987900
H547 H 0.954500 -0.176800 0.927800
H548 H 0.927300 -0.096500 0.926200
H549 H 0.988000 -0.033100 0.931600
H550 H 0.950000 -0.024200 0.869800
H551 H 1.008000 0.628600 0.851900
H552 H 0.510800 0.302200 0.212800
H553 H 0.512700 0.175700 0.216200
H554 H 0.980000 0.702200 0.852300
H555 H 0.968800 0.623600 0.794600
H556 H 0.521000 0.395900 0.140400
H557 H 0.992400 0.557200 0.919900
H558 H 0.953200 0.550300 0.861700
H559 H 0.966400 0.421300 0.938000
H560 H 0.533600 0.078700 0.062000
H561 H 0.979000 0.104100 0.859600
H562 H 0.987300 0.324300 0.783800
H563 H 0.546800 -0.050300 0.138300
H564 H 0.507600 -0.057200 0.080100
H565 H 0.989200 0.197800 0.787200
H566 H 0.531200 -0.123600 0.205400
H567 H 0.520000 -0.202200 0.147700
H568 H 0.492000 -0.128600 0.148100
H569 H 0.013900 -0.094000 0.866300
H570 H 0.550000 0.524200 0.130200
H571 H 0.512000 0.533100 0.068400
H572 H 0.044800 -0.166800 0.876600
H573 H 0.572700 0.596500 0.073800
H574 H 0.545500 0.676800 0.072200
H575 H 0.534900 0.604900 0.012100
H576 H 0.022200 -0.101900 0.812400
H577 H 0.535300 0.177300 -0.020800
H578 H 0.537900 0.303600 -0.017400
H579 H 0.067600 -0.011400 0.932700
H580 H 0.073900 -0.014500 0.876200
H581 H 0.593600 0.389800 0.043400
H582 H 0.127100 0.651500 0.962600
H583 H 0.099200 0.720300 0.903800
H584 H 0.125100 0.645900 0.897300
H585 H 0.647500 0.060600 0.093100
H586 H 0.072400 0.572200 0.913600
H587 H 0.071500 0.563600 0.849200
H588 H 0.611500 -0.062900 0.095300
H589 H 0.609000 -0.063900 0.029300
H590 H 0.039300 0.427900 0.845100
H591 H 0.555700 -0.130300 0.045900
H592 H 0.578700 -0.207900 0.033300
H593 H 0.552400 -0.128400 -0.020700
H594 H 0.104300 0.125700 0.939000
H595 H 0.634100 0.512100 0.114600
H596 H 0.630100 0.518100 0.047200
H597 H 0.150000 0.359900 1.005600
H598 H 0.692200 0.567400 0.161800
H599 H 0.665400 0.655600 0.116700
H600 H 0.684800 0.585000 0.092600
H601 H 0.152600 0.234300 1.012200
H602 H 0.705300 0.272300 0.129800
H603 H 0.702600 0.145900 0.127700
H604 H 0.167200 -0.072600 1.002800
H605 H 0.170700 -0.149000 0.956000
H606 H 0.709300 0.369700 0.218600
H607 H 0.137300 -0.077300 0.929800
H608 H 0.204300 0.002900 0.975500
H609 H 0.173800 0.000300 0.902600
H610 H 0.731500 0.053000 0.328700
H611 H 0.252500 0.648200 0.947800
H612 H 0.222000 0.728900 0.930200
H613 H 0.694900 -0.070200 0.255800
H614 H 0.733000 -0.087500 0.271500
H615 H 0.220300 0.655900 0.876700
H616 H 0.671900 -0.150100 0.159300
H617 H 0.700500 -0.227600 0.211100
H618 H 0.708700 -0.156700 0.168200
H619 H 0.215900 0.579900 0.978900
H620 H 0.697700 0.497500 0.270100
H621 H 0.736700 0.507000 0.289000
H622 H 0.184500 0.582800 0.906500
H623 H 0.710900 0.577000 0.363300
H624 H 0.726900 0.650700 0.333800
H625 H 0.751100 0.572100 0.390500
H626 H 0.174300 0.450200 0.956100
H627 H 0.759400 0.276900 0.426800
H628 H 0.760600 0.150600 0.427300
H629 H 0.211600 0.131500 0.920800
H630 H 0.260600 0.349400 0.927300
H631 H 0.711600 0.368500 0.420800
H632 H 0.259400 0.223100 0.926800
H633 H 0.251100 -0.072100 0.890500
H634 H 0.226900 -0.150700 0.833800
H635 H 0.674300 0.049800 0.456100
H636 H 0.210900 -0.077000 0.863300
H637 H 0.236700 -0.007000 0.789000
H638 H 0.684500 -0.082800 0.406500
H639 H 0.715900 -0.079900 0.478900
H640 H 0.197700 0.002500 0.770100
H641 H 0.720300 -0.155900 0.376700
H642 H 0.722000 -0.228900 0.430200
H643 H 0.752500 -0.148200 0.447800
H644 H 0.208700 0.656700 0.668200
H645 H 0.673800 0.499700 0.402600
H646 H 0.704300 0.497100 0.475500
H647 H 0.200500 0.727600 0.711100
H648 H 0.637300 0.577300 0.429800
H649 H 0.670700 0.649000 0.456000
H650 H 0.667200 0.572600 0.502800
H651 H 0.171900 0.650100 0.659300
H652 H 0.652600 0.265700 0.512200
H653 H 0.650000 0.140100 0.505600
H654 H 0.233000 0.587500 0.771500
H655 H 0.194900 0.570200 0.755800
H656 H 0.604300 0.374300 0.439000
H657 H 0.231500 0.447000 0.828700
H658 H 0.209300 0.130300 0.718600
H659 H 0.202600 0.354100 0.627700
H660 H 0.539300 0.072100 0.345100
H661 H 0.205300 0.227700 0.629800
H662 H 0.184800 -0.085000 0.592600
H663 H 0.571500 -0.063600 0.349200
H664 H 0.572400 -0.072200 0.413600
H665 H 0.165400 -0.155600 0.616700
H666 H 0.625100 -0.145900 0.397300
H667 H 0.599200 -0.220300 0.403800
H668 H 0.627100 -0.151500 0.462600
H669 H 0.192200 -0.067400 0.661800
H670 H 0.573900 0.514500 0.376200
H671 H 0.567600 0.511400 0.432700
H672 H 0.130100 -0.018100 0.547200
H673 H 0.522200 0.601900 0.312400
H674 H 0.544800 0.666800 0.376600
H675 H 0.513900 0.594000 0.366300
H676 H 0.134100 -0.012100 0.614600
H677 H 0.052400 0.628400 0.479300
H678 H 0.078700 0.707900 0.533300
H679 H 0.055700 0.630300 0.545900
H680 H 0.109000 0.563900 0.529300
H681 H 0.111500 0.562900 0.595300
H682 H 0.147500 0.439400 0.593100
H683 H 0.093600 0.110200 0.543400
H684 H 0.037900 0.196400 0.482600
H685 H 0.035300 0.322700 0.479200
H686 H 0.034900 -0.104900 0.512100
H687 H 0.489200 0.302200 0.287200
H688 H 0.487300 0.175700 0.283800
H689 H 0.045500 -0.176800 0.572200
H690 H 0.072700 -0.096500 0.573800
H691 H 0.479000 0.395900 0.359600
H692 H 0.012000 -0.033100 0.568400
H693 H 0.050000 -0.024200 0.630200
H694 H -0.008000 0.628600 0.648100
H695 H 0.466400 0.078700 0.438000
H696 H 0.020000 0.702200 0.647700
H697 H 0.031200 0.623600 0.705400
H698 H 0.453200 -0.050300 0.361700
H699 H 0.492400 -0.057200 0.419900
H700 H 0.007600 0.557200 0.580100
H701 H 0.468800 -0.123600 0.294600
H702 H 0.480000 -0.202200 0.352300
H703 H 0.508000 -0.128600 0.351900
H704 H 0.046800 0.550300 0.638300
H705 H 0.450000 0.524200 0.369800
H706 H 0.488000 0.533100 0.431600
H707 H 0.033600 0.421300 0.562000
H708 H 0.427300 0.596500 0.426200
H709 H 0.454500 0.676800 0.427800
H710 H 0.465100 0.604900 0.487900
H711 H 0.021000 0.104100 0.640400
H712 H 0.464700 0.177300 0.520800
H713 H 0.462100 0.303600 0.517400
H714 H 0.012700 0.324300 0.716200
H715 H 0.010800 0.197800 0.712800
H716 H 0.406400 0.389800 0.456600
H717 H -0.013900 -0.094000 0.633700
H718 H -0.044800 -0.166800 0.623400
H719 H -0.022200 -0.101900 0.687600
H720 H 0.352500 0.060600 0.406900
H721 H -0.067600 -0.011400 0.567300
H722 H -0.073900 -0.014500 0.623800
H723 H 0.388500 -0.062900 0.404700
H724 H 0.391000 -0.063900 0.470700
H725 H -0.127100 0.651500 0.537400
H726 H 0.444300 -0.130300 0.454100
H727 H 0.421300 -0.207900 0.466700
H728 H 0.447600 -0.128400 0.520700
H729 H -0.099200 0.720300 0.596200
H730 H 0.365900 0.512100 0.385400
H731 H 0.369900 0.518100 0.452800
H732 H -0.125100 0.645900 0.602700
H733 H 0.307800 0.567400 0.338200
H734 H 0.334600 0.655600 0.383300
H735 H 0.315200 0.585000 0.407400
H736 H -0.072400 0.572200 0.586400
H737 H 0.294700 0.272300 0.370200
H738 H 0.297400 0.145900 0.372300
H739 H -0.071500 0.563600 0.650800
H740 H -0.039300 0.427900 0.654900
H741 H 0.290700 0.369700 0.281400
H742 H -0.104300 0.125700 0.561000
H743 H -0.150000 0.359900 0.494400
H744 H -0.152600 0.234300 0.487800
H745 H 0.268500 0.053000 0.171300
H746 H -0.167200 -0.072600 0.497200
H747 H -0.170700 -0.149000 0.544000
H748 H 0.305100 -0.070200 0.244200
H749 H 0.267000 -0.087500 0.228500
H750 H -0.137300 -0.077300 0.570200
H751 H 0.328100 -0.150100 0.340700
H752 H 0.299500 -0.227600 0.288900
H753 H 0.291300 -0.156700 0.331800
H754 H -0.204300 0.002900 0.524500
H755 H 0.302300 0.497500 0.229900
H756 H 0.263300 0.507000 0.211000
H757 H -0.173800 0.000300 0.597400
H758 H 0.289100 0.577000 0.136700
H759 H 0.273100 0.650700 0.166200
H760 H 0.248900 0.572100 0.109500
H761 H -0.252500 0.648200 0.552200
H762 H 0.240600 0.276900 0.073200
H763 H 0.239400 0.150600 0.072700
H764 H -0.222000 0.728900 0.569800
H765 H -0.220300 0.655900 0.623300
H766 H 0.288400 0.368500 0.079200
H767 H -0.215900 0.579900 0.521100
H768 H -0.184500 0.582800 0.593500
H769 H -0.174300 0.450200 0.543900
H770 H 0.325700 0.049800 0.043900
H771 H -0.211600 0.131500 0.579200
H772 H -0.260600 0.349400 0.572700
H773 H 0.315500 -0.082800 0.093500
H774 H 0.284100 -0.079900 0.021100
H775 H -0.259400 0.223100 0.573200
H776 H 0.279700 -0.155900 0.123300
H777 H 0.278000 -0.228900 0.069800
H778 H 0.247500 -0.148200 0.052200
H779 H -0.251100 -0.072100 0.609500
H780 H 0.326200 0.499700 0.097400
H781 H 0.295700 0.497100 0.024500
H782 H -0.226900 -0.150700 0.666200
H783 H 0.362700 0.577300 0.070200
H784 H 0.329300 0.649000 0.044000
H785 H 0.332800 0.572600 -0.002800
H786 H -0.210900 -0.077000 0.636700
H787 H 0.347400 0.265700 -0.012200
H788 H 0.350000 0.140100 -0.005600
H789 H -0.236700 -0.007000 0.711000
H790 H -0.197700 0.002500 0.729900
H791 H 0.395700 0.374300 0.061000
H792 H -0.208700 0.656700 0.831800
H793 H -0.200500 0.727600 0.788900
H794 H -0.171900 0.650100 0.840700
H795 H 0.460700 0.072100 0.154900
H796 H -0.233000 0.587500 0.728500
H797 H -0.194900 0.570200 0.744200
H798 H 0.428500 -0.063600 0.150800
H799 H 0.427600 -0.072200 0.086400
H800 H -0.231500 0.447000 0.671300
H801 H 0.374900 -0.145900 0.102700
H802 H 0.400800 -0.220300 0.096200
H803 H 0.372900 -0.151500 0.037400
H804 H -0.209300 0.130300 0.781400
H805 H 0.426100 0.514500 0.123800
H806 H 0.432400 0.511400 0.067300
H807 H -0.202600 0.354100 0.872300
H808 H 0.477800 0.601900 0.187600
H809 H 0.455200 0.666800 0.123400
H810 H 0.486100 0.594000 0.133700
H811 H -0.205300 0.227700 0.870200
H812 H -0.184800 -0.085000 0.907400
H813 H -0.165400 -0.155600 0.883300
H814 H -0.192200 -0.067400 0.838200
H815 H -0.130100 -0.018100 0.952800
H816 H -0.134100 -0.012100 0.885400
H817 H -0.052400 0.628400 1.020700
H818 H -0.078700 0.707900 0.966700
H819 H -0.055700 0.630300 0.954100
H820 H -0.109000 0.563900 0.970700
H821 H -0.111500 0.562900 0.904700
H822 H -0.010800 0.197800 0.787200
H823 H -0.012700 0.324300 0.783800
H824 H -0.147500 0.439400 0.906900
H825 H -0.093600 0.110200 0.956600
H826 H -0.021000 0.104100 0.859600
H827 H -0.037900 0.196400 1.017400
H828 H -0.035300 0.322700 1.020800
H829 H -0.034900 -0.104900 0.987900
H830 H -0.033600 0.421300 0.938000
H831 H -0.045500 -0.176800 0.927800
H832 H -0.072700 -0.096500 0.926200
H833 H -0.046800 0.550300 0.861700
H834 H -0.007600 0.557200 0.919900
H835 H -0.012000 -0.033100 0.931600
H836 H -0.031200 0.623600 0.794600
H837 H -0.020000 0.702200 0.852300
H838 H 0.008000 0.628600 0.851900
H839 H -0.050000 -0.024200 0.869800
H840 H 0.544800 0.333200 0.876600
C841 C -0.015880 0.632900 0.840200
C842 C -0.048440 -0.107600 0.941800
C843 C -0.022600 0.547600 0.873800
C844 C -0.021650 0.357900 0.878700
C845 C -0.031010 0.356300 0.922060
C846 C -0.046510 0.261900 0.992080
C847 C -0.036810 0.261700 0.943010
C848 C -0.033610 0.168000 0.918180
C849 C -0.084770 0.269000 0.962160
C850 C -0.104470 0.177400 0.946300
C851 C -0.023500 0.169100 0.875600
C852 C -0.140350 0.183800 0.915130
C853 C -0.156870 0.281100 0.899350
C854 C -0.136780 0.372100 0.916460
C855 C -0.016880 0.263700 0.855730
C856 C -0.101140 0.365900 0.947480
C857 C -0.095640 0.555300 0.950900
C858 C -0.003290 0.263100 0.812830
C859 C 0.532220 0.399100 0.858000
C860 C -0.068240 0.637600 0.975200
C861 C 0.556100 0.490300 0.886400
C862 C 0.611660 1.153100 0.916600
C863 C 0.586740 1.064100 0.895760
C864 C -0.146550 -0.005900 0.907300
C865 C 0.588010 0.873900 0.903480
C866 C 0.552500 0.865900 0.864090
C867 C -0.174630 -0.085300 0.881900
C868 C 0.536140 0.768900 0.852120
C869 C 0.555460 0.678500 0.878600
C870 C 0.003290 0.736900 0.187170
C871 C -0.195380 0.288900 0.860880
C872 C 0.591080 0.687500 0.919710
C873 C 0.467780 0.600900 0.142000
C874 C -0.208820 0.290500 0.790540
C875 C -0.213600 0.195100 0.759200
C876 C 0.443900 0.509700 0.113600
C877 C -0.224760 0.193800 0.695310
C878 C -0.231830 0.287500 0.662060
C879 C -0.226580 0.382300 0.693720
C880 C 0.388340 -0.153100 0.083400
C881 C -0.214100 0.384000 0.758210
C882 C -0.209000 0.573500 0.762700
C883 C 0.413260 -0.064100 0.104240
C884 C 0.411990 0.126100 0.096520
C885 C -0.196470 0.659200 0.810000
C886 C 0.447500 0.134100 0.135910
C887 C 0.463860 0.231100 0.147880
C888 C 0.444540 0.321500 0.121400
C889 C -0.221900 0.003700 0.694300
C890 C 0.408920 0.312500 0.080290
C891 C 0.392680 0.215700 0.067330
C892 C -0.228260 -0.081400 0.647600
C893 C 0.354130 0.206800 0.018070
C894 C 0.337890 0.580700 0.040100
C895 C 0.320840 0.493100 0.053900
C896 C -0.245390 0.287400 0.592500
C897 C 0.272330 -0.159300 0.078800
C898 C 0.290400 -0.074800 0.065300
C899 C -0.217620 0.290600 0.578060
C900 C -0.204180 0.196800 0.571840
C901 C 0.294090 0.114500 0.068480
C902 C -0.179980 0.196500 0.554980
C903 C -0.169100 0.291600 0.543750
C904 C -0.181920 0.385000 0.550940
C905 C 0.318080 0.115000 0.050940
C906 C -0.205910 0.385500 0.568480
C907 C -0.209600 0.574800 0.565300
C908 C 0.330900 0.208400 0.043750
C909 C 0.320020 0.303500 0.054980
C910 C -0.227670 0.659300 0.578800
C911 C 0.295820 0.303200 0.071840
C912 C 0.282380 0.209400 0.078060
C913 C 0.254610 0.212600 0.092500
C914 C -0.179160 0.006900 0.553900
C915 C 0.271740 0.581400 0.147600
C916 C 0.278100 0.496300 0.194300
C917 C -0.162110 -0.080700 0.540100
C918 C 0.303530 -0.159200 0.310000
C919 C 0.291000 -0.073500 0.262700
C920 C 0.285900 0.116000 0.258210
C921 C -0.145870 0.293200 0.518070
C922 C 0.273420 0.117700 0.193720
C923 C 0.268170 0.212500 0.162060
C924 C -0.107320 0.284300 0.567330
C925 C -0.091080 0.187500 0.580290
C926 C 0.275240 0.306200 0.195310
C927 C -0.055460 0.178500 0.621400
C928 C -0.036140 0.268900 0.647880
C929 C -0.052500 0.365900 0.635910
C930 C 0.286400 0.304900 0.259200
C931 C -0.088010 0.373900 0.596520
C932 C -0.086740 0.564100 0.604240
C933 C 0.291180 0.209500 0.290540
C934 C 0.304620 0.211100 0.360880
C935 C -0.111660 0.653100 0.583400
C936 C 0.325370 0.585300 0.381900
C937 C 0.353450 0.505900 0.407300
C938 C 0.431760 -0.137600 0.475200
C939 C -0.056100 -0.009700 0.613600
C940 C 0.404360 -0.055300 0.450900
C941 C 0.398860 0.134100 0.447480
C942 C -0.032220 -0.100900 0.642000
C943 C 0.363220 0.127900 0.416460
C944 C 0.343130 0.218900 0.399350
C945 C 0.359650 0.316200 0.415130
C946 C 0.607320 0.784300 0.932670
C947 C 0.016880 0.736300 0.144270
C948 C 0.023500 0.830900 0.124400
C949 C 0.645870 0.793200 0.981930
C950 C 0.033610 0.832000 0.081820
C951 C 0.036810 0.738300 0.056990
C952 C 0.031010 0.643700 0.077940
C953 C 0.662110 0.419300 0.959900
C954 C 0.021650 0.642100 0.121300
C955 C 0.022600 0.452400 0.126200
C956 C 0.003290 0.263100 0.687170
C957 C 0.395530 0.322600 0.446300
C958 C 0.415230 0.231000 0.462160
C959 C 0.016880 0.263700 0.644270
C960 C 0.023500 0.169100 0.624400
C961 C 0.453490 0.238100 0.492080
C962 C 0.033610 0.168000 0.581820
C963 C 0.036810 0.261700 0.556990
C964 C 0.031010 0.356300 0.577940
C965 C 0.451560 0.607600 0.441800
C966 C 0.021650 0.357900 0.621300
C967 C 0.022600 0.547600 0.626200
C968 C 0.463510 0.522600 0.416400
C969 C 0.484120 -0.132900 0.340200
C970 C 0.015880 0.632900 0.659800
C971 C 0.477400 -0.047600 0.373800
C972 C 0.478350 0.142100 0.378700
C973 C 0.468990 0.143700 0.422060
C974 C 0.036490 -0.022600 0.583600
C975 C 0.463190 0.238300 0.443010
C976 C 0.466390 0.332000 0.418180
C977 C 0.048440 -0.107600 0.558200
C978 C 0.476500 0.330900 0.375600
C979 C 0.483120 0.236300 0.355730
C980 C 0.496710 0.236900 0.312830
C981 C 0.046510 0.261900 0.507920
C982 C 0.679160 0.506900 0.946100
C983 C 0.015880 0.367100 0.159800
C984 C 0.084770 0.269000 0.537840
C985 C 0.104470 0.177400 0.553700
C986 C 0.036490 1.022600 0.083600
C987 C 0.140350 0.183800 0.584870
C988 C 0.156870 0.281100 0.600650
C989 C 0.136780 0.372100 0.583540
C990 C 0.048440 1.107600 0.058200
C991 C 0.101140 0.365900 0.552520
C992 C 0.095640 0.555300 0.549100
C993 C 0.727670 1.159300 0.921200
C994 C 0.046510 0.738100 0.007920
C995 C 0.068240 0.637600 0.524800
C996 C 0.084770 0.731000 0.037840
C997 C 0.709600 1.074800 0.934700
C998 C 0.705910 0.885500 0.931520
C999 C 0.146550 -0.005900 0.592700
C1000 C 0.104470 0.822600 0.053700
C1001 C 0.532220 0.600900 0.358000
C1002 C 0.174630 -0.085300 0.618100
C1003 C 0.556100 0.509700 0.386400
C1004 C 0.611660 -0.153100 0.416600
C1005 C 0.586740 -0.064100 0.395760
C1006 C 0.195380 0.288900 0.639120
C1007 C 0.588010 0.126100 0.403480
C1008 C 0.552500 0.134100 0.364090
C1009 C 0.208820 0.290500 0.709460
C1010 C 0.213600 0.195100 0.740800
C1011 C 0.536140 0.231100 0.352120
C1012 C 0.224760 0.193800 0.804690
C1013 C 0.231830 0.287500 0.837940
C1014 C 0.226580 0.382300 0.806280
C1015 C 0.555460 0.321500 0.378600
C1016 C 0.214100 0.384000 0.741790
C1017 C 0.209000 0.573500 0.737300
C1018 C 0.591080 0.312500 0.419710
C1019 C 0.607320 0.215700 0.432670
C1020 C 0.196470 0.659200 0.690000
C1021 C 0.645870 0.206800 0.481930
C1022 C 0.662110 0.580700 0.459900
C1023 C 0.679160 0.493100 0.446100
C1024 C 0.221900 0.003700 0.805700
C1025 C 0.727670 -0.159300 0.421200
C1026 C 0.709600 -0.074800 0.434700
C1027 C 0.228260 -0.081400 0.852400
C1028 C 0.705910 0.114500 0.431520
C1029 C 0.681920 0.115000 0.449060
C1030 C 0.669100 0.208400 0.456250
C1031 C 0.245390 0.287400 0.907500
C1032 C 0.679980 0.303500 0.445020
C1033 C 0.704180 0.303200 0.428160
C1034 C 0.217620 0.290600 0.921940
C1035 C 0.204180 0.196800 0.928160
C1036 C 0.717620 0.209400 0.421940
C1037 C 0.179980 0.196500 0.945020
C1038 C 0.169100 0.291600 0.956250
C1039 C 0.181920 0.385000 0.949060
C1040 C 0.745390 0.212600 0.407500
C1041 C 0.205910 0.385500 0.931520
C1042 C 0.209600 0.574800 0.934700
C1043 C 0.728260 0.581400 0.352400
C1044 C 0.721900 0.496300 0.305700
C1045 C 0.227670 0.659300 0.921200
C1046 C 0.696470 -0.159200 0.190000
C1047 C 0.709000 -0.073500 0.237300
C1048 C 0.714100 0.116000 0.241790
C1049 C 0.179160 0.006900 0.946100
C1050 C 0.726580 0.117700 0.306280
C1051 C 0.731830 0.212500 0.337940
C1052 C 0.162110 -0.080700 0.959900
C1053 C 0.724760 0.306200 0.304690
C1054 C 0.713600 0.304900 0.240800
C1055 C 0.708820 0.209500 0.209460
C1056 C 0.145870 0.293200 0.981930
C1057 C 0.695380 0.211100 0.139120
C1058 C 0.674630 0.585300 0.118100
C1059 C 0.107320 0.284300 0.932670
C1060 C 0.091080 0.187500 0.919710
C1061 C 0.646550 0.505900 0.092700
C1062 C 0.055460 0.178500 0.878600
C1063 C 0.036140 0.268900 0.852120
C1064 C 0.052500 0.365900 0.864090
C1065 C 0.568240 -0.137600 0.024800
C1066 C 0.088010 0.373900 0.903480
C1067 C 0.086740 0.564100 0.895760
C1068 C 0.595640 -0.055300 0.049100
C1069 C 0.601140 0.134100 0.052520
C1070 C 0.111660 0.653100 0.916600
C1071 C 0.636780 0.127900 0.083540
C1072 C 0.656870 0.218900 0.100650
C1073 C 0.640350 0.316200 0.084870
C1074 C 0.056100 -0.009700 0.886400
C1075 C 0.604470 0.322600 0.053700
C1076 C 0.584770 0.231000 0.037840
C1077 C 0.032220 -0.100900 0.858000
C1078 C 0.546510 0.238100 0.007920
C1079 C 0.548440 0.607600 0.058200
C1080 C 0.536490 0.522600 0.083600
C1081 C 0.681920 0.885000 0.949060
C1082 C 0.669100 0.791600 0.956250
C1083 C 0.679980 0.696500 0.945020
C1084 C 0.140350 0.816200 0.084870
C1085 C 0.704180 0.696800 0.928160
C1086 C 0.717620 0.790600 0.921940
C1087 C 0.156870 0.718900 0.100650
C1088 C 0.136780 0.627900 0.083540
C1089 C 0.745390 0.787400 0.907500
C1090 C 0.101140 0.634100 0.052520
C1091 C 0.996710 0.263100 0.812830
C1092 C 0.515880 -0.132900 0.159800
C1093 C 0.522600 -0.047600 0.126200
C1094 C 0.983120 0.263700 0.855730
C1095 C 0.976500 0.169100 0.875600
C1096 C 0.521650 0.142100 0.121300
C1097 C 0.966390 0.168000 0.918180
C1098 C 0.963190 0.261700 0.943010
C1099 C 0.968990 0.356300 0.922060
C1100 C 0.531010 0.143700 0.077940
C1101 C 0.978350 0.357900 0.878700
C1102 C 0.977400 0.547600 0.873800
C1103 C 0.536810 0.238300 0.056990
C1104 C 0.533610 0.332000 0.081820
C1105 C 0.984120 0.632900 0.840200
C1106 C 0.523500 0.330900 0.124400
C1107 C 0.516880 0.236300 0.144270
C1108 C 0.503290 0.236900 0.187170
C1109 C 0.963510 -0.022600 0.916400
C1110 C 0.095640 0.444700 0.049100
C1111 C 0.068240 0.362400 0.024800
C1112 C 0.951560 -0.107600 0.941800
C1113 C 0.728260 0.418600 0.852400
C1114 C 0.146550 1.005900 0.092700
C1115 C 0.174630 1.085300 0.118100
C1116 C 0.953490 0.261900 0.992080
C1117 C 0.721900 0.503700 0.805700
C1118 C 0.195380 0.711100 0.139120
C1119 C 0.915230 0.269000 0.962160
C1120 C 0.895530 0.177400 0.946300
C1121 C 0.208820 0.709500 0.209460
C1122 C 0.859650 0.183800 0.915130
C1123 C 0.843130 0.281100 0.899350
C1124 C 0.863220 0.372100 0.916460
C1125 C 0.213600 0.804900 0.240800
C1126 C 0.898860 0.365900 0.947480
C1127 C 0.904360 0.555300 0.950900
C1128 C 0.696470 1.159200 0.690000
C1129 C 0.967780 1.100900 0.142000
C1130 C 0.931760 0.637600 0.975200
C1131 C 0.943900 1.009700 0.113600
C1132 C 0.888340 0.346900 0.083400
C1133 C 0.913260 0.435900 0.104240
C1134 C 0.853450 -0.005900 0.907300
C1135 C 0.911990 0.626100 0.096520
C1136 C 0.947500 0.634100 0.135910
C1137 C 0.825370 -0.085300 0.881900
C1138 C 0.963860 0.731100 0.147880
C1139 C 0.944540 0.821500 0.121400
C1140 C 0.908920 0.812500 0.080290
C1141 C 0.804620 0.288900 0.860880
C1142 C 0.892680 0.715700 0.067330
C1143 C 0.854130 0.706800 0.018070
C1144 C 0.791180 0.290500 0.790540
C1145 C 0.786400 0.195100 0.759200
C1146 C 0.837890 1.080700 0.040100
C1147 C 0.775240 0.193800 0.695310
C1148 C 0.768170 0.287500 0.662060
C1149 C 0.773420 0.382300 0.693720
C1150 C 0.820840 0.993100 0.053900
C1151 C 0.785900 0.384000 0.758210
C1152 C 0.791000 0.573500 0.762700
C1153 C 0.772330 0.340700 0.078800
C1154 C 0.790400 0.425200 0.065300
C1155 C 0.803530 0.659200 0.810000
C1156 C 0.794090 0.614500 0.068480
C1157 C 0.818080 0.615000 0.050940
C1158 C 0.830900 0.708400 0.043750
C1159 C 0.778100 0.003700 0.694300
C1160 C 0.820020 0.803500 0.054980
C1161 C 0.795820 0.803200 0.071840
C1162 C 0.771740 -0.081400 0.647600
C1163 C 0.782380 0.709400 0.078060
C1164 C 0.754610 0.712600 0.092500
C1165 C 0.771740 1.081400 0.147600
C1166 C 0.754610 0.287400 0.592500
C1167 C 0.778100 0.996300 0.194300
C1168 C 0.803530 0.340800 0.310000
C1169 C 0.782380 0.290600 0.578060
C1170 C 0.795820 0.196800 0.571840
C1171 C 0.791000 0.426500 0.262700
C1172 C 0.820020 0.196500 0.554980
C1173 C 0.830900 0.291600 0.543750
C1174 C 0.818080 0.385000 0.550940
C1175 C 0.785900 0.616000 0.258210
C1176 C 0.794090 0.385500 0.568480
C1177 C 0.790400 0.574800 0.565300
C1178 C 0.773420 0.617700 0.193720
C1179 C 0.768170 0.712500 0.162060
C1180 C 0.772330 0.659300 0.578800
C1181 C 0.775240 0.806200 0.195310
C1182 C 0.786400 0.804900 0.259200
C1183 C 0.791180 0.709500 0.290540
C1184 C 0.820840 0.006900 0.553900
C1185 C 0.804620 0.711100 0.360880
C1186 C 0.825370 1.085300 0.381900
C1187 C 0.837890 -0.080700 0.540100
C1188 C 0.853450 1.005900 0.407300
C1189 C 0.931760 0.362400 0.475200
C1190 C 0.904360 0.444700 0.450900
C1191 C 0.854130 0.293200 0.518070
C1192 C 0.898860 0.634100 0.447480
C1193 C 0.863220 0.627900 0.416460
C1194 C 0.892680 0.284300 0.567330
C1195 C 0.908920 0.187500 0.580290
C1196 C 0.843130 0.718900 0.399350
C1197 C 0.944540 0.178500 0.621400
C1198 C 0.963860 0.268900 0.647880
C1199 C 0.947500 0.365900 0.635910
C1200 C 0.859650 0.816200 0.415130
C1201 C 0.911990 0.373900 0.596520
C1202 C 0.913260 0.564100 0.604240
C1203 C 0.895530 0.822600 0.446300
C1204 C 0.915230 0.731000 0.462160
C1205 C 0.888340 0.653100 0.583400
C1206 C 0.953490 0.738100 0.492080
C1207 C 0.951560 1.107600 0.441800
C1208 C 0.963510 1.022600 0.416400
C1209 C 0.943900 -0.009700 0.613600
C1210 C 0.984120 0.367100 0.340200
C1211 C 0.977400 0.452400 0.373800
C1212 C 0.967780 -0.100900 0.642000
C1213 C 0.978350 0.642100 0.378700
C1214 C 0.968990 0.643700 0.422060
C1215 C 0.963190 0.738300 0.443010
C1216 C 0.224760 0.806200 0.304690
C1217 C 0.231830 0.712500 0.337940
C1218 C 0.709000 1.073500 0.737300
C1219 C 0.714100 0.884000 0.741790
C1220 C 0.226580 0.617700 0.306280
C1221 C 0.726580 0.882300 0.806280
C1222 C 0.731830 0.787500 0.837940
C1223 C 0.724760 0.693800 0.804690
C1224 C 0.214100 0.616000 0.241790
C1225 C 0.713600 0.695100 0.740800
C1226 C 1.003290 0.263100 0.687170
C1227 C 0.966390 0.832000 0.418180
C1228 C 0.976500 0.830900 0.375600
C1229 C 1.016880 0.263700 0.644270
C1230 C 1.023500 0.169100 0.624400
C1231 C 0.983120 0.736300 0.355730
C1232 C 1.033610 0.168000 0.581820
C1233 C 1.036810 0.261700 0.556990
C1234 C 1.031010 0.356300 0.577940
C1235 C 0.996710 0.736900 0.312830
C1236 C 1.021650 0.357900 0.621300
C1237 C 1.022600 0.547600 0.626200
C1238 C 0.708820 0.790500 0.709460
C1239 C 0.209000 0.426500 0.237300
C1240 C 1.015880 0.632900 0.659800
C1241 C 0.196470 0.340800 0.190000
C1242 C 0.695380 0.788900 0.639120
C1243 C 0.221900 0.996300 0.305700
C1244 C 1.036490 -0.022600 0.583600
C1245 C 0.228260 1.081400 0.352400
C1246 C 0.245390 0.712600 0.407500
C1247 C 1.048440 -0.107600 0.558200
C1248 C 0.674630 0.414700 0.618100
C1249 C 0.217620 0.709400 0.421940
C1250 C 0.204180 0.803200 0.428160
C1251 C 1.046510 0.261900 0.507920
C1252 C 1.032220 1.100900 0.358000
C1253 C 1.056100 1.009700 0.386400
C1254 C 1.084770 0.269000 0.537840
C1255 C 1.104470 0.177400 0.553700
C1256 C 1.111660 0.346900 0.416600
C1257 C 1.140350 0.183800 0.584870
C1258 C 1.156870 0.281100 0.600650
C1259 C 1.136780 0.372100 0.583540
C1260 C 1.086740 0.435900 0.395760
C1261 C 1.101140 0.365900 0.552520
C1262 C 1.095640 0.555300 0.549100
C1263 C 1.088010 0.626100 0.403480
C1264 C 1.052500 0.634100 0.364090
C1265 C 1.068240 0.637600 0.524800
C1266 C 1.036140 0.731100 0.352120
C1267 C 1.055460 0.821500 0.378600
C1268 C 1.091080 0.812500 0.419710
C1269 C 1.146550 -0.005900 0.592700
C1270 C 1.107320 0.715700 0.432670
C1271 C 1.145870 0.706800 0.481930
C1272 C 1.174630 -0.085300 0.618100
C1273 C 1.162110 1.080700 0.459900
C1274 C 1.179160 0.993100 0.446100
C1275 C 1.227670 0.340700 0.421200
C1276 C 1.195380 0.288900 0.639120
C1277 C 1.209600 0.425200 0.434700
C1278 C 1.205910 0.614500 0.431520
C1279 C 1.208820 0.290500 0.709460
C1280 C 1.213600 0.195100 0.740800
C1281 C 1.181920 0.615000 0.449060
C1282 C 1.224760 0.193800 0.804690
C1283 C 1.231830 0.287500 0.837940
C1284 C 1.226580 0.382300 0.806280
C1285 C 1.169100 0.708400 0.456250
C1286 C 1.214100 0.384000 0.741790
C1287 C 1.209000 0.573500 0.737300
C1288 C 1.179980 0.803500 0.445020
C1289 C 1.204180 0.803200 0.428160
C1290 C 1.196470 0.659200 0.690000
C1291 C 1.217620 0.709400 0.421940
C1292 C 1.245390 0.712600 0.407500
C1293 C 1.228260 1.081400 0.352400
C1294 C 1.221900 0.003700 0.805700
C1295 C 1.221900 0.996300 0.305700
C1296 C 1.196470 0.340800 0.190000
C1297 C 1.228260 -0.081400 0.852400
C1298 C 1.209000 0.426500 0.237300
C1299 C 1.214100 0.616000 0.241790
C1300 C 1.226580 0.617700 0.306280
C1301 C 1.245390 0.287400 0.907500
C1302 C 1.231830 0.712500 0.337940
C1303 C 1.224760 0.806200 0.304690
C1304 C 1.217620 0.290600 0.921940
C1305 C 1.204180 0.196800 0.928160
C1306 C 1.213600 0.804900 0.240800
C1307 C 1.179980 0.196500 0.945020
C1308 C 1.169100 0.291600 0.956250
C1309 C 1.181920 0.385000 0.949060
C1310 C 1.208820 0.709500 0.209460
C1311 C 1.205910 0.385500 0.931520
C1312 C 1.209600 0.574800 0.934700
C1313 C 1.195380 0.711100 0.139120
C1314 C 1.174630 1.085300 0.118100
C1315 C 1.227670 0.659300 0.921200
C1316 C 1.146550 1.005900 0.092700
C1317 C 1.068240 0.362400 0.024800
C1318 C 1.095640 0.444700 0.049100
C1319 C 1.179160 0.006900 0.946100
C1320 C 1.101140 0.634100 0.052520
C1321 C 1.136780 0.627900 0.083540
C1322 C 1.162110 -0.080700 0.959900
C1323 C 1.156870 0.718900 0.100650
C1324 C 1.140350 0.816200 0.084870
C1325 C 1.104470 0.822600 0.053700
C1326 C 1.145870 0.293200 0.981930
C1327 C 1.084770 0.731000 0.037840
C1328 C 1.046510 0.738100 0.007920
C1329 C 1.107320 0.284300 0.932670
C1330 C 1.091080 0.187500 0.919710
C1331 C 1.048440 1.107600 0.058200
C1332 C 1.055460 0.178500 0.878600
C1333 C 1.036140 0.268900 0.852120
C1334 C 1.052500 0.365900 0.864090
C1335 C 1.036490 1.022600 0.083600
C1336 C 1.088010 0.373900 0.903480
C1337 C 1.086740 0.564100 0.895760
C1338 C 1.015880 0.367100 0.159800
C1339 C 1.022600 0.452400 0.126200
C1340 C 1.111660 0.653100 0.916600
C1341 C 1.021650 0.642100 0.121300
C1342 C 1.031010 0.643700 0.077940
C1343 C 1.036810 0.738300 0.056990
C1344 C 1.056100 -0.009700 0.886400
C1345 C 1.033610 0.832000 0.081820
C1346 C 1.023500 0.830900 0.124400
C1347 C 1.032220 -0.100900 0.858000
C1348 C 1.016880 0.736300 0.144270
C1349 C 1.003290 0.736900 0.187170
C1350 C 0.646550 0.494100 0.592700
C1351 C 0.179980 0.803500 0.445020
C1352 C 0.169100 0.708400 0.456250
C1353 C 0.181920 0.615000 0.449060
C1354 C 0.568240 1.137600 0.524800
C1355 C 0.205910 0.614500 0.431520
C1356 C 0.209600 0.425200 0.434700
C1357 C 0.595640 1.055300 0.549100
C1358 C 0.601140 0.865900 0.552520
C1359 C 0.227670 0.340700 0.421200
C1360 C 0.636780 0.872100 0.583540
C1361 C 0.496710 0.763100 0.812830
C1362 C 0.656870 0.781100 0.600650
C1363 C 0.640350 0.683800 0.584870
C1364 C 0.483120 0.763700 0.855730
C1365 C 0.476500 0.669100 0.875600
C1366 C 0.179160 0.993100 0.446100
C1367 C 0.466390 0.668000 0.918180
C1368 C 0.463190 0.761700 0.943010
C1369 C 0.468990 0.856300 0.922060
C1370 C 0.604470 0.677400 0.553700
C1371 C 0.478350 0.857900 0.878700
C1372 C 0.477400 1.047600 0.873800
C1373 C 0.584770 0.769000 0.537840
C1374 C 0.162110 1.080700 0.459900
C1375 C 0.484120 1.132900 0.840200
C1376 C 0.145870 0.706800 0.481930
C1377 C 0.546510 0.761900 0.507920
C1378 C 0.107320 0.715700 0.432670
C1379 C 0.463510 0.477400 0.916400
C1380 C -0.032220 1.100900 0.142000
C1381 C -0.056100 1.009700 0.113600
C1382 C 0.451560 0.392400 0.941800
C1383 C -0.111660 0.346900 0.083400
C1384 C -0.086740 0.435900 0.104240
C1385 C -0.088010 0.626100 0.096520
C1386 C 0.453490 0.761900 0.992080
C1387 C -0.052500 0.634100 0.135910
C1388 C -0.036140 0.731100 0.147880
C1389 C 0.415230 0.769000 0.962160
C1390 C 0.395530 0.677400 0.946300
C1391 C -0.055460 0.821500 0.121400
C1392 C 0.359650 0.683800 0.915130
C1393 C 0.343130 0.781100 0.899350
C1394 C 0.363220 0.872100 0.916460
C1395 C -0.091080 0.812500 0.080290
C1396 C 0.398860 0.865900 0.947480
C1397 C 0.404360 1.055300 0.950900
C1398 C -0.107320 0.715700 0.067330
C1399 C -0.145870 0.706800 0.018070
C1400 C 0.431760 1.137600 0.975200
C1401 C -0.162110 1.080700 0.040100
C1402 C -0.179160 0.993100 0.053900
C1403 C -0.227670 0.340700 0.078800
C1404 C 0.353450 0.494100 0.907300
C1405 C -0.209600 0.425200 0.065300
C1406 C -0.205910 0.614500 0.068480
C1407 C 0.325370 0.414700 0.881900
C1408 C -0.181920 0.615000 0.050940
C1409 C -0.169100 0.708400 0.043750
C1410 C -0.179980 0.803500 0.054980
C1411 C 0.304620 0.788900 0.860880
C1412 C -0.204180 0.803200 0.071840
C1413 C -0.217620 0.709400 0.078060
C1414 C 0.291180 0.790500 0.790540
C1415 C 0.286400 0.695100 0.759200
C1416 C -0.245390 0.712600 0.092500
C1417 C 0.275240 0.693800 0.695310
C1418 C 0.268170 0.787500 0.662060
C1419 C 0.273420 0.882300 0.693720
C1420 C -0.228260 1.081400 0.147600
C1421 C 0.285900 0.884000 0.758210
C1422 C 0.291000 1.073500 0.762700
C1423 C -0.221900 0.996300 0.194300
C1424 C -0.196470 0.340800 0.310000
C1425 C 0.303530 1.159200 0.810000
C1426 C -0.209000 0.426500 0.262700
C1427 C -0.214100 0.616000 0.258210
C1428 C -0.226580 0.617700 0.193720
C1429 C 0.278100 0.503700 0.694300
C1430 C -0.231830 0.712500 0.162060
C1431 C -0.224760 0.806200 0.195310
C1432 C 0.271740 0.418600 0.647600
C1433 C -0.213600 0.804900 0.259200
C1434 C -0.208820 0.709500 0.290540
C1435 C -0.195380 0.711100 0.360880
C1436 C 0.254610 0.787400 0.592500
C1437 C -0.174630 1.085300 0.381900
C1438 C -0.146550 1.005900 0.407300
C1439 C 0.282380 0.790600 0.578060
C1440 C 0.295820 0.696800 0.571840
C1441 C -0.068240 0.362400 0.475200
C1442 C 0.320020 0.696500 0.554980
C1443 C 0.330900 0.791600 0.543750
C1444 C 0.318080 0.885000 0.550940
C1445 C -0.095640 0.444700 0.450900
C1446 C 0.294090 0.885500 0.568480
C1447 C 0.290400 1.074800 0.565300
C1448 C -0.101140 0.634100 0.447480
C1449 C -0.136780 0.627900 0.416460
C1450 C 0.272330 1.159300 0.578800
C1451 C -0.156870 0.718900 0.399350
C1452 C -0.140350 0.816200 0.415130
C1453 C -0.104470 0.822600 0.446300
C1454 C 0.320840 0.506900 0.553900
C1455 C -0.084770 0.731000 0.462160
C1456 C -0.046510 0.738100 0.492080
C1457 C 0.337890 0.419300 0.540100
C1458 C -0.048440 1.107600 0.441800
C1459 C -0.036490 1.022600 0.416400
C1460 C -0.015880 0.367100 0.340200
C1461 C 0.354130 0.793200 0.518070
C1462 C -0.022600 0.452400 0.373800
C1463 C -0.021650 0.642100 0.378700
C1464 C 0.392680 0.784300 0.567330
C1465 C 0.408920 0.687500 0.580290
C1466 C -0.031010 0.643700 0.422060
C1467 C 0.444540 0.678500 0.621400
C1468 C 0.463860 0.768900 0.647880
C1469 C 0.447500 0.865900 0.635910
C1470 C -0.036810 0.738300 0.443010
C1471 C 0.411990 0.873900 0.596520
C1472 C 0.413260 1.064100 0.604240
C1473 C -0.033610 0.832000 0.418180
C1474 C -0.023500 0.830900 0.375600
C1475 C 0.388340 1.153100 0.583400
C1476 C -0.016880 0.736300 0.355730
C1477 C -0.003290 0.736900 0.312830
C1478 C 0.091080 0.812500 0.419710
C1479 C 0.443900 0.490300 0.613600
C1480 C 0.055460 0.821500 0.378600
C1481 C 0.548440 0.392400 0.558200
C1482 C 0.467780 0.399100 0.642000
C1483 C 0.036140 0.731100 0.352120
C1484 C 0.052500 0.634100 0.364090
C1485 C 0.536490 0.477400 0.583600
C1486 C 0.088010 0.626100 0.403480
C1487 C 0.086740 0.435900 0.395760
C1488 C 0.111660 0.346900 0.416600
C1489 C 0.515880 1.132900 0.659800
C1490 C 0.056100 1.009700 0.386400
C1491 C 0.032220 1.100900 0.358000
C1492 C 0.522600 1.047600 0.626200
C1493 C 0.521650 0.857900 0.621300
C1494 C 0.531010 0.856300 0.577940
C1495 C 0.536810 0.761700 0.556990
C1496 C 0.503290 0.763100 0.687170
C1497 C 0.533610 0.668000 0.581820
C1498 C 0.523500 0.669100 0.624400
C1499 C 0.516880 0.763700 0.644270
C1500 C -0.036490 -0.022600 0.916400
O1501 O -0.041180 0.923200 0.438640
O1502 O -0.161220 0.904400 0.397410
O1503 O 0.537940 0.584500 0.862770
O1504 O 0.605840 0.967700 0.917360
O1505 O -0.015630 0.551100 0.355810
O1506 O 0.666600 0.605610 0.953750
O1507 O 0.720160 0.976100 0.924130
O1508 O 0.729690 0.602200 0.838370
O1509 O 0.706980 0.976200 0.707660
O1510 O 0.661220 0.595600 0.602590
O1511 O 0.580170 0.954300 0.534830
O1512 O 0.541180 0.576800 0.561360
O1513 O 0.515630 0.948900 0.644190
O1514 O -0.206980 0.523800 0.292340
O1515 O -0.229690 0.897800 0.161630
O1516 O -0.220160 0.523900 0.075870
O1517 O -0.166600 0.894390 0.046250
O1518 O -0.105840 0.532300 0.082640
O1519 O -0.037940 0.915500 0.137230
O1520 O 1.015630 0.551100 0.144190
O1521 O 1.041180 0.923200 0.061360
O1522 O 1.080170 0.545700 0.034830
O1523 O 1.161220 0.904400 0.102590
O1524 O 1.206980 0.523800 0.207660
O1525 O 1.229690 0.897800 0.338370
O1526 O 1.220160 0.523900 0.424130
O1527 O 1.166600 0.894390 0.453750
O1528 O 1.105840 0.532300 0.417360
O1529 O 0.462060 0.584500 0.637230
O1530 O 0.394160 0.967700 0.582640
O1531 O 0.333400 0.605610 0.546250
O1532 O 0.279840 0.976100 0.575870
O1533 O 0.270310 0.602200 0.661630
O1534 O 0.293020 0.976200 0.792340
O1535 O 0.338780 0.595600 0.897410
O1536 O 0.419830 0.954300 0.965170
O1537 O 0.458820 0.576800 0.938640
O1538 O 0.484370 0.948900 0.855810
O1539 O 1.037940 0.915500 0.362770
O1540 O 0.984370 0.551100 0.355810
O1541 O 0.958820 0.923200 0.438640
O1542 O 0.919830 0.545700 0.465170
O1543 O 0.838780 0.904400 0.397410
O1544 O 0.793020 0.523800 0.292340
O1545 O 0.770310 0.897800 0.161630
O1546 O 0.779840 0.523900 0.075870
O1547 O 0.833400 0.894390 0.046250
O1548 O 0.894160 0.532300 0.082640
O1549 O 0.962060 0.915500 0.137230
O1550 O 1.037940 0.084500 0.862770
O1551 O 1.105840 0.467700 0.917360
O1552 O 1.166600 0.105610 0.953750
O1553 O 1.220160 0.476100 0.924130
O1554 O 1.229690 0.102200 0.838370
O1555 O 1.206980 0.476200 0.707660
O1556 O 1.161220 0.095600 0.602590
O1557 O 1.080170 0.454300 0.534830
O1558 O 1.041180 0.076800 0.561360
O1559 O 1.015630 0.448900 0.644190
O1560 O 0.515630 0.051100 0.144190
O1561 O 0.541180 0.423200 0.061360
O1562 O 0.580170 0.045700 0.034830
O1563 O 0.661220 0.404400 0.102590
O1564 O 0.706980 0.023800 0.207660
O1565 O 0.729690 0.397800 0.338370
O1566 O 0.720160 0.023900 0.424130
O1567 O 0.666600 0.394390 0.453750
O1568 O 0.605840 0.032300 0.417360
O1569 O 0.537940 0.415500 0.362770
O1570 O 0.962060 0.084500 0.637230
O1571 O 0.894160 0.467700 0.582640
O1572 O 0.833400 0.105610 0.546250
O1573 O 0.779840 0.476100 0.575870
O1574 O 0.770310 0.102200 0.661630
O1575 O 0.793020 0.476200 0.792340
O1576 O 0.838780 0.095600 0.897410
O1577 O 0.919830 0.454300 0.965170
O1578 O 0.958820 0.076800 0.938640
O1579 O 0.984370 0.448900 0.855810
O1580 O 0.484370 0.051100 0.355810
O1581 O 0.458820 0.423200 0.438640
O1582 O 0.419830 0.045700 0.465170
O1583 O 0.338780 0.404400 0.397410
O1584 O 0.293020 0.023800 0.292340
O1585 O 0.270310 0.397800 0.161630
O1586 O 0.279840 0.023900 0.075870
O1587 O 0.333400 0.394390 0.046250
O1588 O 0.394160 0.032300 0.082640
O1589 O 0.462060 0.415500 0.137230
O1590 O 0.037940 0.084500 0.862770
O1591 O 0.105840 0.467700 0.917360
O1592 O 0.166600 0.105610 0.953750
O1593 O 0.220160 0.476100 0.924130
O1594 O 0.229690 0.102200 0.838370
O1595 O 0.206980 0.476200 0.707660
O1596 O 0.161220 0.095600 0.602590
O1597 O 0.080170 0.454300 0.534830
O1598 O 0.041180 0.076800 0.561360
O1599 O 0.015630 0.448900 0.644190
O1600 O -0.015630 0.448900 0.855810
O1601 O -0.041180 0.076800 0.938640
O1602 O -0.080170 0.454300 0.965170
O1603 O -0.161220 0.095600 0.897410
O1604 O -0.206980 0.476200 0.792340
O1605 O 0.037940 0.915500 0.362770
O1606 O -0.229690 0.102200 0.661630
O1607 O -0.220160 0.476100 0.575870
O1608 O 0.105840 0.532300 0.417360
O1609 O 0.166600 0.894390 0.453750
O1610 O -0.166600 0.105610 0.546250
O1611 O 0.220160 0.523900 0.424130
O1612 O 0.229690 0.897800 0.338370
O1613 O 0.206980 0.523800 0.207660
O1614 O -0.105840 0.467700 0.582640
O1615 O 0.161220 0.904400 0.102590
O1616 O 0.080170 0.545700 0.034830
O1617 O -0.037940 0.084500 0.637230
O1618 O 0.041180 0.923200 0.061360
O1619 O -0.080170 0.545700 0.465170
O1620 O 0.015630 0.551100 0.144190

#END
