
#######################################################################
#
#                 Cambridge Crystallographic Data Centre
#                                CCDC 
#
#######################################################################
#
# If this CIF has been generated from an entry in the Cambridge 
# Structural Database, then it will include bibliographic, chemical, 
# crystal, experimental, refinement or atomic coordinate data resulting 
# from the CCDC's data processing and validation procedures.
#
#######################################################################

data_ACOLUB
_symmetry_cell_setting           monoclinic
_symmetry_space_group_name_H-M   'C 2/c'
_symmetry_Int_Tables_number      15
_space_group_name_Hall           '-C 2yn'
loop_
_symmetry_equiv_pos_site_id
_symmetry_equiv_pos_as_xyz
1 x,y,z
2 -x,y,1/2-z
3 1/2+x,1/2+y,z
4 1/2-x,1/2+y,1/2-z
5 -x,-y,-z
6 x,-y,1/2+z
7 1/2-x,1/2-y,-z
8 1/2+x,1/2-y,1/2+z
_cell_length_a                   29.766(6)
_cell_length_b                   20.293(5)
_cell_length_c                   16.483(4)
_cell_angle_alpha                90
_cell_angle_beta                 111.107(4)
_cell_angle_gamma                90
_cell_volume                     9288.43
loop_
_atom_site_label
_atom_site_type_symbol
_atom_site_fract_x
_atom_site_fract_y
_atom_site_fract_z
Cd1 Cd 0.7500 0.2500 0.5000
Cd2 Cd 0.77216(3) 0.41563(3) 0.54923(4)
N1 N 0.7665(3) 0.5188(3) 0.5865(5)
N2 N 0.7584(3) 0.6253(3) 0.5736(5)
O1 O 0.5000 0.3243(4) 0.7500
O2 O 0.6223(2) 0.3297(3) 0.8745(4)
O3 O 0.5952(2) 0.3086(3) 1.0485(4)
O4 O 0.4815(2) 0.2926(4) 0.9384(5)
O5 O 0.7482(2) 0.3788(3) 0.6496(4)
O6 O 0.7281(2) 0.2739(3) 0.6119(4)
O7 O 0.7233(3) 0.4494(4) 1.3965(4)
O8 O 0.7194(2) 0.3497(3) 1.4436(4)
O9 O 0.3189(2) 0.1880(3) 1.0613(4)
O10 O 0.3397(3) 0.0940(4) 1.0177(6)
C1 C 0.5493(3) 0.3146(4) 0.8985(5)
C2 C 0.5216(3) 0.3621(5) 0.8263(5)
H1 H 0.4971 0.3850 0.8415
H2 H 0.5433 0.3946 0.8173
C3 C 0.5887(3) 0.2797(5) 0.8758(6)
H3 H 0.6044 0.2465 0.9190
H4 H 0.5753 0.2586 0.8194
C4 C 0.5719(3) 0.3519(5) 0.9812(5)
H5 H 0.5949 0.3834 0.9746
H6 H 0.5474 0.3761 0.9947
C5 C 0.5154(3) 0.2597(5) 0.9092(6)
H7 H 0.4990 0.2377 0.8543
H8 H 0.5336 0.2273 0.9516
C6 C 0.6486(3) 0.3230(4) 0.8217(5)
C7 C 0.6499(3) 0.2674(5) 0.7760(6)
H9 H 0.6327 0.2301 0.7802
C8 C 0.6774(3) 0.2671(4) 0.7231(5)
H10 H 0.6787 0.2295 0.6918
C9 C 0.7026(3) 0.3231(4) 0.7174(5)
C10 C 0.7019(3) 0.3763(5) 0.7658(6)
H11 H 0.7195 0.4136 0.7631
C11 C 0.6758(3) 0.3760(5) 0.8186(6)
H12 H 0.6766 0.4126 0.8530
C12 C 0.7282(3) 0.3249(5) 0.6545(5)
C13 C 0.6212(3) 0.3323(5) 1.1284(6)
C14 C 0.6292(4) 0.3970(6) 1.1493(7)
H13 H 0.6156 0.4285 1.1064
C15 C 0.6568(4) 0.4176(5) 1.2323(6)
H14 H 0.6611 0.4622 1.2455
C16 C 0.6778(3) 0.3711(5) 1.2944(6)
C17 C 0.6686(4) 0.3065(5) 1.2729(6)
H15 H 0.6810 0.2749 1.3161
C18 C 0.6421(4) 0.2859(5) 1.1913(6)
H16 H 0.6382 0.2412 1.1783
C19 C 0.7090(4) 0.3916(5) 1.3826(6)
C20 C 0.4509(3) 0.2557(5) 0.9609(7)
C21 C 0.4233(4) 0.2869(5) 0.9964(8)
H17 H 0.4271 0.3321 1.0054
C22 C 0.3894(4) 0.2550(5) 1.0204(7)
H18 H 0.3708 0.2786 1.0452
C23 C 0.3828(3) 0.1889(5) 1.0082(6)
C24 C 0.4107(4) 0.1562(5) 0.9731(8)
H19 H 0.4077 0.1108 0.9658
C25 C 0.4446(4) 0.1907(6) 0.9472(7)
H20 H 0.4627 0.1681 0.9205
C26 C 0.3447(3) 0.1541(5) 1.0303(6)
C27 C 0.7646(3) 0.5681(4) 0.5363(7)
H21 H 0.7671 0.5650 0.4819
C28 C 0.7556(4) 0.6083(6) 0.6520(7)
H22 H 0.7510 0.6370 0.6922
C29 C 0.7608(5) 0.5427(5) 0.6602(8)
H23 H 0.7606 0.5178 0.7075
C30 C 0.7549(3) 0.6899(4) 0.5372(6)
C31 C 0.7805(3) 0.7049(4) 0.4877(7)
H24 H 0.8013 0.6737 0.4792
C32 C 0.7235(4) 0.7340(4) 0.5507(6)
H25 H 0.7055 0.7231 0.5846
Cd1 Cd 0.7500 0.2500 1.5000
Cd1A Cd 0.2500 0.2500 1.0000
Cd1A Cd 0.2500 0.2500 0.0000
Cd2A Cd 0.22784(3) 0.41563(3) 0.95077(4)
Cd2 Cd 0.77216(3) 0.41563(3) 1.54923(4)
Cd2G Cd 0.27216(3) 0.08437(3) 1.04923(4)
Cd2F Cd 0.72784(3) 1.08437(3) 0.45077(4)
Cd2A Cd 0.22784(3) 0.41563(3) -0.04923(4)
Cd2F Cd 0.72784(3) 0.08437(3) 0.45077(4)
N1F N 0.7335(3) 0.9812(3) 0.4135(5)
N1A N 0.2335(3) 0.5188(3) 0.9135(5)
N2F N 0.7416(3) 0.8747(3) 0.4264(5)
O2A O 0.3777(2) 0.3297(3) 0.6255(4)
O3A O 0.4048(2) 0.3086(3) 0.4515(4)
O4A O 0.5185(2) 0.2926(4) 0.5616(5)
O5A O 0.2518(2) 0.3788(3) 0.8504(4)
O6A O 0.2719(2) 0.2739(3) 0.8881(4)
O6F O 0.7719(2) 0.2261(3) 0.3881(4)
O7A O 0.2767(3) 0.4494(4) 0.1035(4)
O7 O 0.7233(3) 0.4494(4) 0.3965(4)
O7A O 0.2767(3) 0.4494(4) 1.1035(4)
O8A O 0.2806(2) 0.3497(3) 0.0564(4)
O8 O 0.7194(2) 0.3497(3) 0.4436(4)
O8F O 0.7806(2) 0.1503(3) 0.5564(4)
O8A O 0.2806(2) 0.3497(3) 1.0564(4)
O9A O 0.6811(2) 0.1880(3) 0.4387(4)
O9G O 0.8189(2) 0.3120(3) 0.5613(4)
O9F O 0.1811(2) 0.3120(3) 0.9387(4)
O10A O 0.6603(3) 0.0940(4) 0.4823(6)
O10G O 0.8397(3) 0.4060(4) 0.5177(6)
O10F O 0.1603(3) 0.4060(4) 0.9823(6)
C1A C 0.4507(3) 0.3146(4) 0.6015(5)
C2A C 0.4784(3) 0.3621(5) 0.6737(5)
H1A H 0.5029 0.3850 0.6585
H2A H 0.4567 0.3946 0.6827
C3A C 0.4113(3) 0.2797(5) 0.6242(6)
H3A H 0.3956 0.2465 0.5810
H4A H 0.4247 0.2586 0.6806
C4A C 0.4281(3) 0.3519(5) 0.5188(5)
H5A H 0.4051 0.3834 0.5254
H6A H 0.4526 0.3761 0.5053
C5A C 0.4846(3) 0.2597(5) 0.5908(6)
H7A H 0.5010 0.2377 0.6457
H8A H 0.4664 0.2273 0.5484
C6A C 0.3514(3) 0.3230(4) 0.6783(5)
C7A C 0.3501(3) 0.2674(5) 0.7240(6)
H9A H 0.3673 0.2301 0.7198
C8A C 0.3226(3) 0.2671(4) 0.7769(5)
H10A H 0.3213 0.2295 0.8082
C9A C 0.2974(3) 0.3231(4) 0.7826(5)
C10A C 0.2981(3) 0.3763(5) 0.7342(6)
H11A H 0.2805 0.4136 0.7369
C11A C 0.3242(3) 0.3760(5) 0.6814(6)
H12A H 0.3234 0.4126 0.6470
C12A C 0.2718(3) 0.3249(5) 0.8455(5)
C13A C 0.3788(3) 0.3323(5) 0.3716(6)
C14A C 0.3708(4) 0.3970(6) 0.3507(7)
H13A H 0.3844 0.4285 0.3936
C15A C 0.3432(4) 0.4176(5) 0.2677(6)
H14A H 0.3389 0.4622 0.2545
C16A C 0.3222(3) 0.3711(5) 0.2056(6)
C17A C 0.3314(4) 0.3065(5) 0.2271(6)
H15A H 0.3190 0.2749 0.1839
C18A C 0.3579(4) 0.2859(5) 0.3087(6)
H16A H 0.3618 0.2412 0.3217
C19A C 0.2910(4) 0.3916(5) 0.1174(6)
C20A C 0.5491(3) 0.2557(5) 0.5391(7)
C21A C 0.5767(4) 0.2869(5) 0.5036(8)
H17A H 0.5729 0.3321 0.4946
C22A C 0.6106(4) 0.2550(5) 0.4796(7)
H18A H 0.6292 0.2786 0.4548
C23A C 0.6172(3) 0.1889(5) 0.4918(6)
C24A C 0.5893(4) 0.1562(5) 0.5269(8)
H19A H 0.5923 0.1108 0.5342
C25A C 0.5554(4) 0.1907(6) 0.5528(7)
H20A H 0.5373 0.1681 0.5795
C26A C 0.6553(3) 0.1541(5) 0.4697(6)
C27F C 0.7354(3) 0.9319(4) 0.4637(7)
H21F H 0.7329 0.9350 0.5181
C28F C 0.7444(4) 0.8917(6) 0.3480(7)
H22F H 0.7490 0.8630 0.3078
C29F C 0.7392(5) 0.9573(5) 0.3398(8)
H23F H 0.7394 0.9822 0.2925
C30F C 0.7451(3) 0.8101(4) 0.4628(6)
C31F C 0.7195(3) 0.7951(4) 0.5123(7)
H24F H 0.6987 0.8263 0.5208
C32F C 0.7765(4) 0.7660(4) 0.4493(6)
H25F H 0.7945 0.7769 0.4154
N2 N 0.2416(3) 0.6253(3) 0.9264(5)
C27 C 0.2354(3) 0.5681(4) 0.9637(7)
H21 H 0.2329 0.5650 1.0181
C28 C 0.2444(4) 0.6083(6) 0.8480(7)
H22 H 0.2490 0.6370 0.8078
C29 C 0.2392(5) 0.5427(5) 0.8398(8)
H23 H 0.2394 0.5178 0.7925
C30 C 0.2451(3) 0.6899(4) 0.9628(6)
C31 C 0.2195(3) 0.7049(4) 1.0123(7)
H24 H 0.1987 0.6737 1.0208
C32 C 0.2765(4) 0.7340(4) 0.9493(6)
H25 H 0.2945 0.7231 0.9154
Cd2F Cd 0.27216(3) 1.08437(3) 1.04923(4)
N1F N 0.2665(3) 0.9812(3) 1.0865(5)
N2F N 0.2584(3) 0.8747(3) 1.0736(5)
O6F O 0.2281(2) 0.2261(3) 1.1119(4)
O8F O 0.2194(2) 0.1503(3) 0.9436(4)
C27F C 0.2646(3) 0.9319(4) 1.0363(7)
H21F H 0.2671 0.9350 0.9819
C28F C 0.2556(4) 0.8917(6) 1.1520(7)
H22F H 0.2510 0.8630 1.1922
C29F C 0.2608(5) 0.9573(5) 1.1602(8)
H23F H 0.2606 0.9822 1.2075
C30F C 0.2549(3) 0.8101(4) 1.0372(6)
C31F C 0.2805(3) 0.7951(4) 0.9877(7)
H24F H 0.3013 0.8263 0.9792
C32F C 0.2235(4) 0.7660(4) 1.0507(6)
H25F H 0.2055 0.7769 1.0846
N1 N 0.7335(3) -0.0188(3) 0.4135(5)
N2 N 0.7416(3) -0.1253(3) 0.4264(5)
O1 O 1.0000 0.1757(4) 0.2500
O2 O 0.8777(2) 0.1703(3) 0.1255(4)
O3 O 0.9048(2) 0.1914(3) -0.0485(4)
O4 O 1.0185(2) 0.2074(4) 0.0616(5)
O5 O 0.7518(2) 0.1212(3) 0.3504(4)
O7 O 0.7767(3) 0.0506(4) -0.3965(4)
O8 O 0.7806(2) 0.1503(3) -0.4436(4)
O9 O 1.1811(2) 0.3120(3) -0.0613(4)
O10 O 1.1603(3) 0.4060(4) -0.0177(6)
C1 C 0.9507(3) 0.1854(4) 0.1015(5)
C2 C 0.9784(3) 0.1379(5) 0.1737(5)
H1 H 1.0029 0.1150 0.1585
H2 H 0.9567 0.1054 0.1827
C3 C 0.9113(3) 0.2203(5) 0.1242(6)
H3 H 0.8956 0.2535 0.0810
H4 H 0.9247 0.2414 0.1806
C4 C 0.9281(3) 0.1481(5) 0.0188(5)
H5 H 0.9051 0.1166 0.0254
H6 H 0.9526 0.1239 0.0053
C5 C 0.9846(3) 0.2403(5) 0.0908(6)
H7 H 1.0010 0.2623 0.1457
H8 H 0.9664 0.2727 0.0484
C6 C 0.8514(3) 0.1770(4) 0.1783(5)
C7 C 0.8501(3) 0.2326(5) 0.2240(6)
H9 H 0.8673 0.2699 0.2198
C8 C 0.8226(3) 0.2329(4) 0.2769(5)
H10 H 0.8213 0.2705 0.3082
C9 C 0.7974(3) 0.1769(4) 0.2826(5)
C10 C 0.7981(3) 0.1237(5) 0.2342(6)
H11 H 0.7805 0.0864 0.2369
C11 C 0.8242(3) 0.1240(5) 0.1814(6)
H12 H 0.8234 0.0874 0.1470
C12 C 0.7718(3) 0.1751(5) 0.3455(5)
C13 C 0.8788(3) 0.1677(5) -0.1284(6)
C14 C 0.8708(4) 0.1030(6) -0.1493(7)
H13 H 0.8844 0.0715 -0.1064
C15 C 0.8432(4) 0.0824(5) -0.2323(6)
H14 H 0.8389 0.0378 -0.2455
C16 C 0.8222(3) 0.1289(5) -0.2944(6)
C17 C 0.8314(4) 0.1935(5) -0.2729(6)
H15 H 0.8190 0.2251 -0.3161
C18 C 0.8579(4) 0.2141(5) -0.1913(6)
H16 H 0.8618 0.2588 -0.1783
C19 C 0.7910(4) 0.1084(5) -0.3826(6)
C20 C 1.0491(3) 0.2443(5) 0.0391(7)
C21 C 1.0767(4) 0.2131(5) 0.0036(8)
H17 H 1.0729 0.1679 -0.0054
C22 C 1.1106(4) 0.2450(5) -0.0204(7)
H18 H 1.1292 0.2214 -0.0452
C23 C 1.1172(3) 0.3111(5) -0.0082(6)
C24 C 1.0893(4) 0.3438(5) 0.0269(8)
H19 H 1.0923 0.3892 0.0342
C25 C 1.0554(4) 0.3093(6) 0.0528(7)
H20 H 1.0373 0.3319 0.0795
C26 C 1.1553(3) 0.3459(5) -0.0303(6)
C27 C 0.7354(3) -0.0681(4) 0.4637(7)
H21 H 0.7329 -0.0650 0.5181
C28 C 0.7444(4) -0.1083(6) 0.3480(7)
H22 H 0.7490 -0.1370 0.3078
C29 C 0.7392(5) -0.0427(5) 0.3398(8)
H23 H 0.7394 -0.0178 0.2925
C30 C 0.7451(3) -0.1899(4) 0.4628(6)
C31 C 0.7195(3) -0.2049(4) 0.5123(7)
H24 H 0.6987 -0.1737 0.5208
C32 C 0.7765(4) -0.2340(4) 0.4493(6)
H25 H 0.7945 -0.2231 0.4154
Cd1 Cd 0.7500 0.2500 -0.5000
Cd1A Cd 1.2500 0.2500 0.0000
Cd1A Cd 1.2500 0.2500 1.0000
Cd2A Cd 1.27216(3) 0.08437(3) 0.04923(4)
Cd2 Cd 0.72784(3) 0.08437(3) -0.54923(4)
Cd2G Cd 1.22784(3) 0.41563(3) -0.04923(4)
Cd2F Cd 0.77216(3) -0.58437(3) 0.54923(4)
Cd2A Cd 1.27216(3) 0.08437(3) 1.04923(4)
N1F N 0.7665(3) -0.4812(3) 0.5865(5)
N1A N 1.2665(3) -0.0188(3) 0.0865(5)
N2F N 0.7584(3) -0.3747(3) 0.5736(5)
O2A O 1.1223(2) 0.1703(3) 0.3745(4)
O3A O 1.0952(2) 0.1914(3) 0.5485(4)
O4A O 0.9815(2) 0.2074(4) 0.4384(5)
O5A O 1.2482(2) 0.1212(3) 0.1496(4)
O6A O 1.2281(2) 0.2261(3) 0.1119(4)
O7A O 1.2233(3) 0.0506(4) 0.8965(4)
O7 O 0.7767(3) 0.0506(4) 0.6035(4)
O7A O 1.2233(3) 0.0506(4) -0.1035(4)
O8A O 1.2194(2) 0.1503(3) 0.9436(4)
O8A O 1.2194(2) 0.1503(3) -0.0564(4)
O9F O 1.3189(2) 0.1880(3) 0.0613(4)
O10F O 1.3397(3) 0.0940(4) 0.0177(6)
C1A C 1.0493(3) 0.1854(4) 0.3985(5)
C2A C 1.0216(3) 0.1379(5) 0.3263(5)
H1A H 0.9971 0.1150 0.3415
H2A H 1.0433 0.1054 0.3173
C3A C 1.0887(3) 0.2203(5) 0.3758(6)
H3A H 1.1044 0.2535 0.4190
H4A H 1.0753 0.2414 0.3194
C4A C 1.0719(3) 0.1481(5) 0.4812(5)
H5A H 1.0949 0.1166 0.4746
H6A H 1.0474 0.1239 0.4947
C5A C 1.0154(3) 0.2403(5) 0.4092(6)
H7A H 0.9990 0.2623 0.3543
H8A H 1.0336 0.2727 0.4516
C6A C 1.1486(3) 0.1770(4) 0.3217(5)
C7A C 1.1499(3) 0.2326(5) 0.2760(6)
H9A H 1.1327 0.2699 0.2802
C8A C 1.1774(3) 0.2329(4) 0.2231(5)
H10A H 1.1787 0.2705 0.1918
C9A C 1.2026(3) 0.1769(4) 0.2174(5)
C10A C 1.2019(3) 0.1237(5) 0.2658(6)
H11A H 1.2195 0.0864 0.2631
C11A C 1.1758(3) 0.1240(5) 0.3186(6)
H12A H 1.1766 0.0874 0.3530
C12A C 1.2282(3) 0.1751(5) 0.1545(5)
C13A C 1.1212(3) 0.1677(5) 0.6284(6)
C14A C 1.1292(4) 0.1030(6) 0.6493(7)
H13A H 1.1156 0.0715 0.6064
C15A C 1.1568(4) 0.0824(5) 0.7323(6)
H14A H 1.1611 0.0378 0.7455
C16A C 1.1778(3) 0.1289(5) 0.7944(6)
C17A C 1.1686(4) 0.1935(5) 0.7729(6)
H15A H 1.1810 0.2251 0.8161
C18A C 1.1421(4) 0.2141(5) 0.6913(6)
H16A H 1.1382 0.2588 0.6783
C19A C 1.2090(4) 0.1084(5) 0.8826(6)
C20A C 0.9509(3) 0.2443(5) 0.4609(7)
C21A C 0.9233(4) 0.2131(5) 0.4964(8)
H17A H 0.9271 0.1679 0.5054
C22A C 0.8894(4) 0.2450(5) 0.5204(7)
H18A H 0.8708 0.2214 0.5452
C23A C 0.8828(3) 0.3111(5) 0.5082(6)
C24A C 0.9107(4) 0.3438(5) 0.4731(8)
H19A H 0.9077 0.3892 0.4658
C25A C 0.9446(4) 0.3093(6) 0.4472(7)
H20A H 0.9627 0.3319 0.4205
C26A C 0.8447(3) 0.3459(5) 0.5303(6)
C27F C 0.7646(3) -0.4319(4) 0.5363(7)
H21F H 0.7671 -0.4350 0.4819
C28F C 0.7556(4) -0.3917(6) 0.6520(7)
H22F H 0.7510 -0.3630 0.6922
C29F C 0.7608(5) -0.4573(5) 0.6602(8)
H23F H 0.7606 -0.4822 0.7075
C30F C 0.7549(3) -0.3101(4) 0.5372(6)
C31F C 0.7805(3) -0.2951(4) 0.4877(7)
H24F H 0.8013 -0.3263 0.4792
C32F C 0.7235(4) -0.2660(4) 0.5507(6)
H25F H 0.7055 -0.2769 0.5846
Cd2 Cd 0.27216(3) 0.08437(3) 0.04923(4)
N1 N 0.2665(3) -0.0188(3) 0.0865(5)
N2 N 0.2584(3) -0.1253(3) 0.0736(5)
O1 O 0.0000 0.1757(4) 0.2500
O2 O 0.1223(2) 0.1703(3) 0.3745(4)
O3 O 0.0952(2) 0.1914(3) 0.5485(4)
O4 O -0.0185(2) 0.2074(4) 0.4384(5)
O5 O 0.2482(2) 0.1212(3) 0.1496(4)
O6 O 0.2281(2) 0.2261(3) 0.1119(4)
O7 O 0.2233(3) 0.0506(4) 0.8965(4)
O9 O -0.1811(2) 0.3120(3) 0.5613(4)
O10 O -0.1603(3) 0.4060(4) 0.5177(6)
C1 C 0.0493(3) 0.1854(4) 0.3985(5)
C2 C 0.0216(3) 0.1379(5) 0.3263(5)
H1 H -0.0029 0.1150 0.3415
H2 H 0.0433 0.1054 0.3173
C3 C 0.0887(3) 0.2203(5) 0.3758(6)
H3 H 0.1044 0.2535 0.4190
H4 H 0.0753 0.2414 0.3194
C4 C 0.0719(3) 0.1481(5) 0.4812(5)
H5 H 0.0949 0.1166 0.4746
H6 H 0.0474 0.1239 0.4947
C5 C 0.0154(3) 0.2403(5) 0.4092(6)
H7 H -0.0010 0.2623 0.3543
H8 H 0.0336 0.2727 0.4516
C6 C 0.1486(3) 0.1770(4) 0.3217(5)
C7 C 0.1499(3) 0.2326(5) 0.2760(6)
H9 H 0.1327 0.2699 0.2802
C8 C 0.1774(3) 0.2329(4) 0.2231(5)
H10 H 0.1787 0.2705 0.1918
C9 C 0.2026(3) 0.1769(4) 0.2174(5)
C10 C 0.2019(3) 0.1237(5) 0.2658(6)
H11 H 0.2195 0.0864 0.2631
C11 C 0.1758(3) 0.1240(5) 0.3186(6)
H12 H 0.1766 0.0874 0.3530
C12 C 0.2282(3) 0.1751(5) 0.1545(5)
C13 C 0.1212(3) 0.1677(5) 0.6284(6)
C14 C 0.1292(4) 0.1030(6) 0.6493(7)
H13 H 0.1156 0.0715 0.6064
C15 C 0.1568(4) 0.0824(5) 0.7323(6)
H14 H 0.1611 0.0378 0.7455
C16 C 0.1778(3) 0.1289(5) 0.7944(6)
C17 C 0.1686(4) 0.1935(5) 0.7729(6)
H15 H 0.1810 0.2251 0.8161
C18 C 0.1421(4) 0.2141(5) 0.6913(6)
H16 H 0.1382 0.2588 0.6783
C19 C 0.2090(4) 0.1084(5) 0.8826(6)
C20 C -0.0491(3) 0.2443(5) 0.4609(7)
C21 C -0.0767(4) 0.2131(5) 0.4964(8)
H17 H -0.0729 0.1679 0.5054
C22 C -0.1106(4) 0.2450(5) 0.5204(7)
H18 H -0.1292 0.2214 0.5452
C23 C -0.1172(3) 0.3111(5) 0.5082(6)
C24 C -0.0893(4) 0.3438(5) 0.4731(8)
H19 H -0.0923 0.3892 0.4658
C25 C -0.0554(4) 0.3093(6) 0.4472(7)
H20 H -0.0373 0.3319 0.4205
C26 C -0.1553(3) 0.3459(5) 0.5303(6)
C27 C 0.2646(3) -0.0681(4) 0.0363(7)
H21 H 0.2671 -0.0650 -0.0181
C28 C 0.2556(4) -0.1083(6) 0.1520(7)
H22 H 0.2510 -0.1370 0.1922
C29 C 0.2608(5) -0.0427(5) 0.1602(8)
H23 H 0.2606 -0.0178 0.2075
C30 C 0.2549(3) -0.1899(4) 0.0372(6)
C31 C 0.2805(3) -0.2049(4) -0.0123(7)
H24 H 0.3013 -0.1737 -0.0208
C32 C 0.2235(4) -0.2340(4) 0.0507(6)
H25 H 0.2055 -0.2231 0.0846
Cd1A Cd -0.2500 0.2500 0.5000
Cd1A Cd -0.2500 0.2500 -0.5000
Cd2A Cd -0.27216(3) 0.08437(3) 0.45077(4)
Cd2G Cd -0.22784(3) 0.41563(3) 0.54923(4)
Cd2F Cd 0.22784(3) -0.58437(3) -0.04923(4)
Cd2A Cd -0.27216(3) 0.08437(3) -0.54923(4)
N1F N 0.2335(3) -0.4812(3) -0.0865(5)
N1A N -0.2665(3) -0.0188(3) 0.4135(5)
N2F N 0.2416(3) -0.3747(3) -0.0736(5)
O2A O -0.1223(2) 0.1703(3) 0.1255(4)
O3A O -0.0952(2) 0.1914(3) -0.0485(4)
O4A O 0.0185(2) 0.2074(4) 0.0616(5)
O5A O -0.2482(2) 0.1212(3) 0.3504(4)
O6A O -0.2281(2) 0.2261(3) 0.3881(4)
O6F O 0.2719(2) 0.2739(3) -0.1119(4)
O7A O -0.2233(3) 0.0506(4) -0.3965(4)
O7 O 0.2233(3) 0.0506(4) -0.1035(4)
O7A O -0.2233(3) 0.0506(4) 0.6035(4)
O8A O -0.2194(2) 0.1503(3) -0.4436(4)
O8 O 0.2194(2) 0.1503(3) -0.0564(4)
O8A O -0.2194(2) 0.1503(3) 0.5564(4)
O9A O 0.1811(2) 0.3120(3) -0.0613(4)
O9G O 0.3189(2) 0.1880(3) 0.0613(4)
O9F O -0.3189(2) 0.1880(3) 0.4387(4)
O10A O 0.1603(3) 0.4060(4) -0.0177(6)
O10G O 0.3397(3) 0.0940(4) 0.0177(6)
O10F O -0.3397(3) 0.0940(4) 0.4823(6)
C1A C -0.0493(3) 0.1854(4) 0.1015(5)
C2A C -0.0216(3) 0.1379(5) 0.1737(5)
H1A H 0.0029 0.1150 0.1585
H2A H -0.0433 0.1054 0.1827
C3A C -0.0887(3) 0.2203(5) 0.1242(6)
H3A H -0.1044 0.2535 0.0810
H4A H -0.0753 0.2414 0.1806
C4A C -0.0719(3) 0.1481(5) 0.0188(5)
H5A H -0.0949 0.1166 0.0254
H6A H -0.0474 0.1239 0.0053
C5A C -0.0154(3) 0.2403(5) 0.0908(6)
H7A H 0.0010 0.2623 0.1457
H8A H -0.0336 0.2727 0.0484
C6A C -0.1486(3) 0.1770(4) 0.1783(5)
C7A C -0.1499(3) 0.2326(5) 0.2240(6)
H9A H -0.1327 0.2699 0.2198
C8A C -0.1774(3) 0.2329(4) 0.2769(5)
H10A H -0.1787 0.2705 0.3082
C9A C -0.2026(3) 0.1769(4) 0.2826(5)
C10A C -0.2019(3) 0.1237(5) 0.2342(6)
H11A H -0.2195 0.0864 0.2369
C11A C -0.1758(3) 0.1240(5) 0.1814(6)
H12A H -0.1766 0.0874 0.1470
C12A C -0.2282(3) 0.1751(5) 0.3455(5)
C13A C -0.1212(3) 0.1677(5) -0.1284(6)
C14A C -0.1292(4) 0.1030(6) -0.1493(7)
H13A H -0.1156 0.0715 -0.1064
C15A C -0.1568(4) 0.0824(5) -0.2323(6)
H14A H -0.1611 0.0378 -0.2455
C16A C -0.1778(3) 0.1289(5) -0.2944(6)
C17A C -0.1686(4) 0.1935(5) -0.2729(6)
H15A H -0.1810 0.2251 -0.3161
C18A C -0.1421(4) 0.2141(5) -0.1913(6)
H16A H -0.1382 0.2588 -0.1783
C19A C -0.2090(4) 0.1084(5) -0.3826(6)
C20A C 0.0491(3) 0.2443(5) 0.0391(7)
C21A C 0.0767(4) 0.2131(5) 0.0036(8)
H17A H 0.0729 0.1679 -0.0054
C22A C 0.1106(4) 0.2450(5) -0.0204(7)
H18A H 0.1292 0.2214 -0.0452
C23A C 0.1172(3) 0.3111(5) -0.0082(6)
C24A C 0.0893(4) 0.3438(5) 0.0269(8)
H19A H 0.0923 0.3892 0.0342
C25A C 0.0554(4) 0.3093(6) 0.0528(7)
H20A H 0.0373 0.3319 0.0795
C26A C 0.1553(3) 0.3459(5) -0.0303(6)
C27F C 0.2354(3) -0.4319(4) -0.0363(7)
H21F H 0.2329 -0.4350 0.0181
C28F C 0.2444(4) -0.3917(6) -0.1520(7)
H22F H 0.2490 -0.3630 -0.1922
C29F C 0.2392(5) -0.4573(5) -0.1602(8)
H23F H 0.2394 -0.4822 -0.2075
C30F C 0.2451(3) -0.3101(4) -0.0372(6)
C31F C 0.2195(3) -0.2951(4) 0.0123(7)
H24F H 0.1987 -0.3263 0.0208
C32F C 0.2765(4) -0.2660(4) -0.0507(6)
H25F H 0.2945 -0.2769 -0.0846
Cd1 Cd 0.2500 0.7500 0.5000
Cd2 Cd 0.27216(3) 0.91563(3) 0.54923(4)
N1 N 0.2665(3) 1.0188(3) 0.5865(5)
N2 N 0.2584(3) 1.1253(3) 0.5736(5)
O1 O 0.0000 0.8243(4) 0.7500
O2 O 0.1223(2) 0.8297(3) 0.8745(4)
O3 O 0.0952(2) 0.8086(3) 1.0485(4)
O4 O -0.0185(2) 0.7926(4) 0.9384(5)
O5 O 0.2482(2) 0.8788(3) 0.6496(4)
O6 O 0.2281(2) 0.7739(3) 0.6119(4)
O7 O 0.2233(3) 0.9494(4) 1.3965(4)
O8 O 0.2194(2) 0.8497(3) 1.4436(4)
O9 O -0.1811(2) 0.6880(3) 1.0613(4)
O10 O -0.1603(3) 0.5940(4) 1.0177(6)
C1 C 0.0493(3) 0.8146(4) 0.8985(5)
C2 C 0.0216(3) 0.8621(5) 0.8263(5)
H1 H -0.0029 0.8850 0.8415
H2 H 0.0433 0.8946 0.8173
C3 C 0.0887(3) 0.7797(5) 0.8758(6)
H3 H 0.1044 0.7465 0.9190
H4 H 0.0753 0.7586 0.8194
C4 C 0.0719(3) 0.8519(5) 0.9812(5)
H5 H 0.0949 0.8834 0.9746
H6 H 0.0474 0.8761 0.9947
C5 C 0.0154(3) 0.7597(5) 0.9092(6)
H7 H -0.0010 0.7377 0.8543
H8 H 0.0336 0.7273 0.9516
C6 C 0.1486(3) 0.8230(4) 0.8217(5)
C7 C 0.1499(3) 0.7674(5) 0.7760(6)
H9 H 0.1327 0.7301 0.7802
C8 C 0.1774(3) 0.7671(4) 0.7231(5)
H10 H 0.1787 0.7295 0.6918
C9 C 0.2026(3) 0.8231(4) 0.7174(5)
C10 C 0.2019(3) 0.8763(5) 0.7658(6)
H11 H 0.2195 0.9136 0.7631
C11 C 0.1758(3) 0.8760(5) 0.8186(6)
H12 H 0.1766 0.9126 0.8530
C12 C 0.2282(3) 0.8249(5) 0.6545(5)
C13 C 0.1212(3) 0.8323(5) 1.1284(6)
C14 C 0.1292(4) 0.8970(6) 1.1493(7)
H13 H 0.1156 0.9285 1.1064
C15 C 0.1568(4) 0.9176(5) 1.2323(6)
H14 H 0.1611 0.9622 1.2455
C16 C 0.1778(3) 0.8711(5) 1.2944(6)
C17 C 0.1686(4) 0.8065(5) 1.2729(6)
H15 H 0.1810 0.7749 1.3161
C18 C 0.1421(4) 0.7859(5) 1.1913(6)
H16 H 0.1382 0.7412 1.1783
C19 C 0.2090(4) 0.8916(5) 1.3826(6)
C20 C -0.0491(3) 0.7557(5) 0.9609(7)
C21 C -0.0767(4) 0.7869(5) 0.9964(8)
H17 H -0.0729 0.8321 1.0054
C22 C -0.1106(4) 0.7550(5) 1.0204(7)
H18 H -0.1292 0.7786 1.0452
C23 C -0.1172(3) 0.6889(5) 1.0082(6)
C24 C -0.0893(4) 0.6562(5) 0.9731(8)
H19 H -0.0923 0.6108 0.9658
C25 C -0.0554(4) 0.6907(6) 0.9472(7)
H20 H -0.0373 0.6681 0.9205
C26 C -0.1553(3) 0.6541(5) 1.0303(6)
C27 C 0.2646(3) 1.0681(4) 0.5363(7)
H21 H 0.2671 1.0650 0.4819
C28 C 0.2556(4) 1.1083(6) 0.6520(7)
H22 H 0.2510 1.1370 0.6922
C29 C 0.2608(5) 1.0427(5) 0.6602(8)
H23 H 0.2606 1.0178 0.7075
C30 C 0.2549(3) 1.1899(4) 0.5372(6)
C31 C 0.2805(3) 1.2049(4) 0.4877(7)
H24 H 0.3013 1.1737 0.4792
C32 C 0.2235(4) 1.2340(4) 0.5507(6)
H25 H 0.2055 1.2231 0.5846
Cd1 Cd 0.2500 0.7500 1.5000
Cd1A Cd -0.2500 0.7500 1.0000
Cd1A Cd -0.2500 0.7500 0.0000
Cd2A Cd -0.27216(3) 0.91563(3) 0.95077(4)
Cd2 Cd 0.27216(3) 0.91563(3) 1.54923(4)
Cd2G Cd -0.22784(3) 0.58437(3) 1.04923(4)
Cd2F Cd 0.22784(3) 1.58437(3) 0.45077(4)
Cd2A Cd -0.27216(3) 0.91563(3) -0.04923(4)
Cd2F Cd 0.22784(3) 0.58437(3) 0.45077(4)
N1F N 0.2335(3) 1.4812(3) 0.4135(5)
N1A N -0.2665(3) 1.0188(3) 0.9135(5)
N2F N 0.2416(3) 1.3747(3) 0.4264(5)
O2A O -0.1223(2) 0.8297(3) 0.6255(4)
O3A O -0.0952(2) 0.8086(3) 0.4515(4)
O4A O 0.0185(2) 0.7926(4) 0.5616(5)
O5A O -0.2482(2) 0.8788(3) 0.8504(4)
O6A O -0.2281(2) 0.7739(3) 0.8881(4)
O6F O 0.2719(2) 0.7261(3) 0.3881(4)
O7A O -0.2233(3) 0.9494(4) 0.1035(4)
O7 O 0.2233(3) 0.9494(4) 0.3965(4)
O7A O -0.2233(3) 0.9494(4) 1.1035(4)
O8A O -0.2194(2) 0.8497(3) 0.0564(4)
O8 O 0.2194(2) 0.8497(3) 0.4436(4)
O8F O 0.2806(2) 0.6503(3) 0.5564(4)
O8A O -0.2194(2) 0.8497(3) 1.0564(4)
O9A O 0.1811(2) 0.6880(3) 0.4387(4)
O9G O 0.3189(2) 0.8120(3) 0.5613(4)
O9F O -0.3189(2) 0.8120(3) 0.9387(4)
O10A O 0.1603(3) 0.5940(4) 0.4823(6)
O10G O 0.3397(3) 0.9060(4) 0.5177(6)
O10F O -0.3397(3) 0.9060(4) 0.9823(6)
C1A C -0.0493(3) 0.8146(4) 0.6015(5)
C2A C -0.0216(3) 0.8621(5) 0.6737(5)
H1A H 0.0029 0.8850 0.6585
H2A H -0.0433 0.8946 0.6827
C3A C -0.0887(3) 0.7797(5) 0.6242(6)
H3A H -0.1044 0.7465 0.5810
H4A H -0.0753 0.7586 0.6806
C4A C -0.0719(3) 0.8519(5) 0.5188(5)
H5A H -0.0949 0.8834 0.5254
H6A H -0.0474 0.8761 0.5053
C5A C -0.0154(3) 0.7597(5) 0.5908(6)
H7A H 0.0010 0.7377 0.6457
H8A H -0.0336 0.7273 0.5484
C6A C -0.1486(3) 0.8230(4) 0.6783(5)
C7A C -0.1499(3) 0.7674(5) 0.7240(6)
H9A H -0.1327 0.7301 0.7198
C8A C -0.1774(3) 0.7671(4) 0.7769(5)
H10A H -0.1787 0.7295 0.8082
C9A C -0.2026(3) 0.8231(4) 0.7826(5)
C10A C -0.2019(3) 0.8763(5) 0.7342(6)
H11A H -0.2195 0.9136 0.7369
C11A C -0.1758(3) 0.8760(5) 0.6814(6)
H12A H -0.1766 0.9126 0.6470
C12A C -0.2282(3) 0.8249(5) 0.8455(5)
C13A C -0.1212(3) 0.8323(5) 0.3716(6)
C14A C -0.1292(4) 0.8970(6) 0.3507(7)
H13A H -0.1156 0.9285 0.3936
C15A C -0.1568(4) 0.9176(5) 0.2677(6)
H14A H -0.1611 0.9622 0.2545
C16A C -0.1778(3) 0.8711(5) 0.2056(6)
C17A C -0.1686(4) 0.8065(5) 0.2271(6)
H15A H -0.1810 0.7749 0.1839
C18A C -0.1421(4) 0.7859(5) 0.3087(6)
H16A H -0.1382 0.7412 0.3217
C19A C -0.2090(4) 0.8916(5) 0.1174(6)
C20A C 0.0491(3) 0.7557(5) 0.5391(7)
C21A C 0.0767(4) 0.7869(5) 0.5036(8)
H17A H 0.0729 0.8321 0.4946
C22A C 0.1106(4) 0.7550(5) 0.4796(7)
H18A H 0.1292 0.7786 0.4548
C23A C 0.1172(3) 0.6889(5) 0.4918(6)
C24A C 0.0893(4) 0.6562(5) 0.5269(8)
H19A H 0.0923 0.6108 0.5342
C25A C 0.0554(4) 0.6907(6) 0.5528(7)
H20A H 0.0373 0.6681 0.5795
C26A C 0.1553(3) 0.6541(5) 0.4697(6)
C27F C 0.2354(3) 1.4319(4) 0.4637(7)
H21F H 0.2329 1.4350 0.5181
C28F C 0.2444(4) 1.3917(6) 0.3480(7)
H22F H 0.2490 1.3630 0.3078
C29F C 0.2392(5) 1.4573(5) 0.3398(8)
H23F H 0.2394 1.4822 0.2925
C30F C 0.2451(3) 1.3101(4) 0.4628(6)
C31F C 0.2195(3) 1.2951(4) 0.5123(7)
H24F H 0.1987 1.3263 0.5208
C32F C 0.2765(4) 1.2660(4) 0.4493(6)
H25F H 0.2945 1.2769 0.4154
Cd1 Cd 0.7500 0.7500 1.0000
Cd2 Cd 0.72784(3) 0.91563(3) 0.95077(4)
N1 N 0.7335(3) 1.0188(3) 0.9135(5)
N2 N 0.7416(3) 1.1253(3) 0.9264(5)
O1 O 1.0000 0.8243(4) 0.7500
O2 O 0.8777(2) 0.8297(3) 0.6255(4)
O3 O 0.9048(2) 0.8086(3) 0.4515(4)
O4 O 1.0185(2) 0.7926(4) 0.5616(5)
O5 O 0.7518(2) 0.8788(3) 0.8504(4)
O6 O 0.7719(2) 0.7739(3) 0.8881(4)
O7 O 0.7767(3) 0.9494(4) 0.1035(4)
O8 O 0.7806(2) 0.8497(3) 0.0564(4)
O9 O 1.1811(2) 0.6880(3) 0.4387(4)
O10 O 1.1603(3) 0.5940(4) 0.4823(6)
C1 C 0.9507(3) 0.8146(4) 0.6015(5)
C2 C 0.9784(3) 0.8621(5) 0.6737(5)
H1 H 1.0029 0.8850 0.6585
H2 H 0.9567 0.8946 0.6827
C3 C 0.9113(3) 0.7797(5) 0.6242(6)
H3 H 0.8956 0.7465 0.5810
H4 H 0.9247 0.7586 0.6806
C4 C 0.9281(3) 0.8519(5) 0.5188(5)
H5 H 0.9051 0.8834 0.5254
H6 H 0.9526 0.8761 0.5053
C5 C 0.9846(3) 0.7597(5) 0.5908(6)
H7 H 1.0010 0.7377 0.6457
H8 H 0.9664 0.7273 0.5484
C6 C 0.8514(3) 0.8230(4) 0.6783(5)
C7 C 0.8501(3) 0.7674(5) 0.7240(6)
H9 H 0.8673 0.7301 0.7198
C8 C 0.8226(3) 0.7671(4) 0.7769(5)
H10 H 0.8213 0.7295 0.8082
C9 C 0.7974(3) 0.8231(4) 0.7826(5)
C10 C 0.7981(3) 0.8763(5) 0.7342(6)
H11 H 0.7805 0.9136 0.7369
C11 C 0.8242(3) 0.8760(5) 0.6814(6)
H12 H 0.8234 0.9126 0.6470
C12 C 0.7718(3) 0.8249(5) 0.8455(5)
C13 C 0.8788(3) 0.8323(5) 0.3716(6)
C14 C 0.8708(4) 0.8970(6) 0.3507(7)
H13 H 0.8844 0.9285 0.3936
C15 C 0.8432(4) 0.9176(5) 0.2677(6)
H14 H 0.8389 0.9622 0.2545
C16 C 0.8222(3) 0.8711(5) 0.2056(6)
C17 C 0.8314(4) 0.8065(5) 0.2271(6)
H15 H 0.8190 0.7749 0.1839
C18 C 0.8579(4) 0.7859(5) 0.3087(6)
H16 H 0.8618 0.7412 0.3217
C19 C 0.7910(4) 0.8916(5) 0.1174(6)
C20 C 1.0491(3) 0.7557(5) 0.5391(7)
C21 C 1.0767(4) 0.7869(5) 0.5036(8)
H17 H 1.0729 0.8321 0.4946
C22 C 1.1106(4) 0.7550(5) 0.4796(7)
H18 H 1.1292 0.7786 0.4548
C23 C 1.1172(3) 0.6889(5) 0.4918(6)
C24 C 1.0893(4) 0.6562(5) 0.5269(8)
H19 H 1.0923 0.6108 0.5342
C25 C 1.0554(4) 0.6907(6) 0.5528(7)
H20 H 1.0373 0.6681 0.5795
C26 C 1.1553(3) 0.6541(5) 0.4697(6)
C27 C 0.7354(3) 1.0681(4) 0.9637(7)
H21 H 0.7329 1.0650 1.0181
C28 C 0.7444(4) 1.1083(6) 0.8480(7)
H22 H 0.7490 1.1370 0.8078
C29 C 0.7392(5) 1.0427(5) 0.8398(8)
H23 H 0.7394 1.0178 0.7925
C30 C 0.7451(3) 1.1899(4) 0.9628(6)
C31 C 0.7195(3) 1.2049(4) 1.0123(7)
H24 H 0.6987 1.1737 1.0208
C32 C 0.7765(4) 1.2340(4) 0.9493(6)
H25 H 0.7945 1.2231 0.9154
Cd1 Cd 0.7500 0.7500 0.0000
Cd1A Cd 1.2500 0.7500 0.5000
Cd1A Cd 1.2500 0.7500 1.5000
Cd2A Cd 1.27216(3) 0.91563(3) 0.54923(4)
Cd2 Cd 0.72784(3) 0.91563(3) -0.04923(4)
Cd2G Cd 1.22784(3) 0.58437(3) 0.45077(4)
Cd2F Cd 0.77216(3) 1.58437(3) 1.04923(4)
Cd2A Cd 1.27216(3) 0.91563(3) 1.54923(4)
Cd2F Cd 0.77216(3) 0.58437(3) 1.04923(4)
N1F N 0.7665(3) 1.4812(3) 1.0865(5)
N1A N 1.2665(3) 1.0188(3) 0.5865(5)
N2F N 0.7584(3) 1.3747(3) 1.0736(5)
O2A O 1.1223(2) 0.8297(3) 0.8745(4)
O3A O 1.0952(2) 0.8086(3) 1.0485(4)
O4A O 0.9815(2) 0.7926(4) 0.9384(5)
O5A O 1.2482(2) 0.8788(3) 0.6496(4)
O6A O 1.2281(2) 0.7739(3) 0.6119(4)
O6F O 0.7281(2) 0.7261(3) 1.1119(4)
O7A O 1.2233(3) 0.9494(4) 1.3965(4)
O7 O 0.7767(3) 0.9494(4) 1.1035(4)
O7A O 1.2233(3) 0.9494(4) 0.3965(4)
O8A O 1.2194(2) 0.8497(3) 1.4436(4)
O8 O 0.7806(2) 0.8497(3) 1.0564(4)
O8F O 0.7194(2) 0.6503(3) 0.9436(4)
O8A O 1.2194(2) 0.8497(3) 0.4436(4)
O9A O 0.8189(2) 0.6880(3) 1.0613(4)
O9G O 0.6811(2) 0.8120(3) 0.9387(4)
O9F O 1.3189(2) 0.8120(3) 0.5613(4)
O10A O 0.8397(3) 0.5940(4) 1.0177(6)
O10G O 0.6603(3) 0.9060(4) 0.9823(6)
O10F O 1.3397(3) 0.9060(4) 0.5177(6)
C1A C 1.0493(3) 0.8146(4) 0.8985(5)
C2A C 1.0216(3) 0.8621(5) 0.8263(5)
H1A H 0.9971 0.8850 0.8415
H2A H 1.0433 0.8946 0.8173
C3A C 1.0887(3) 0.7797(5) 0.8758(6)
H3A H 1.1044 0.7465 0.9190
H4A H 1.0753 0.7586 0.8194
C4A C 1.0719(3) 0.8519(5) 0.9812(5)
H5A H 1.0949 0.8834 0.9746
H6A H 1.0474 0.8761 0.9947
C5A C 1.0154(3) 0.7597(5) 0.9092(6)
H7A H 0.9990 0.7377 0.8543
H8A H 1.0336 0.7273 0.9516
C6A C 1.1486(3) 0.8230(4) 0.8217(5)
C7A C 1.1499(3) 0.7674(5) 0.7760(6)
H9A H 1.1327 0.7301 0.7802
C8A C 1.1774(3) 0.7671(4) 0.7231(5)
H10A H 1.1787 0.7295 0.6918
C9A C 1.2026(3) 0.8231(4) 0.7174(5)
C10A C 1.2019(3) 0.8763(5) 0.7658(6)
H11A H 1.2195 0.9136 0.7631
C11A C 1.1758(3) 0.8760(5) 0.8186(6)
H12A H 1.1766 0.9126 0.8530
C12A C 1.2282(3) 0.8249(5) 0.6545(5)
C13A C 1.1212(3) 0.8323(5) 1.1284(6)
C14A C 1.1292(4) 0.8970(6) 1.1493(7)
H13A H 1.1156 0.9285 1.1064
C15A C 1.1568(4) 0.9176(5) 1.2323(6)
H14A H 1.1611 0.9622 1.2455
C16A C 1.1778(3) 0.8711(5) 1.2944(6)
C17A C 1.1686(4) 0.8065(5) 1.2729(6)
H15A H 1.1810 0.7749 1.3161
C18A C 1.1421(4) 0.7859(5) 1.1913(6)
H16A H 1.1382 0.7412 1.1783
C19A C 1.2090(4) 0.8916(5) 1.3826(6)
C20A C 0.9509(3) 0.7557(5) 0.9609(7)
C21A C 0.9233(4) 0.7869(5) 0.9964(8)
H17A H 0.9271 0.8321 1.0054
C22A C 0.8894(4) 0.7550(5) 1.0204(7)
H18A H 0.8708 0.7786 1.0452
C23A C 0.8828(3) 0.6889(5) 1.0082(6)
C24A C 0.9107(4) 0.6562(5) 0.9731(8)
H19A H 0.9077 0.6108 0.9658
C25A C 0.9446(4) 0.6907(6) 0.9472(7)
H20A H 0.9627 0.6681 0.9205
C26A C 0.8447(3) 0.6541(5) 1.0303(6)
C27F C 0.7646(3) 1.4319(4) 1.0363(7)
H21F H 0.7671 1.4350 0.9819
C28F C 0.7556(4) 1.3917(6) 1.1520(7)
H22F H 0.7510 1.3630 1.1922
C29F C 0.7608(5) 1.4573(5) 1.1602(8)
H23F H 0.7606 1.4822 1.2075
C30F C 0.7549(3) 1.3101(4) 1.0372(6)
C31F C 0.7805(3) 1.2951(4) 0.9877(7)
H24F H 0.8013 1.3263 0.9792
C32F C 0.7235(4) 1.2660(4) 1.0507(6)
H25F H 0.7055 1.2769 1.0846
N1 N 0.2335(3) 0.4812(3) 0.4135(5)
N2 N 0.2416(3) 0.3747(3) 0.4264(5)
O1 O 0.5000 0.6757(4) 0.2500
O2 O 0.3777(2) 0.6703(3) 0.1255(4)
O3 O 0.4048(2) 0.6914(3) -0.0485(4)
O4 O 0.5185(2) 0.7074(4) 0.0616(5)
O5 O 0.2518(2) 0.6212(3) 0.3504(4)
O7 O 0.2767(3) 0.5506(4) -0.3965(4)
O8 O 0.2806(2) 0.6503(3) -0.4436(4)
O9 O 0.6811(2) 0.8120(3) -0.0613(4)
O10 O 0.6603(3) 0.9060(4) -0.0177(6)
C1 C 0.4507(3) 0.6854(4) 0.1015(5)
C2 C 0.4784(3) 0.6379(5) 0.1737(5)
H1 H 0.5029 0.6150 0.1585
H2 H 0.4567 0.6054 0.1827
C3 C 0.4113(3) 0.7203(5) 0.1242(6)
H3 H 0.3956 0.7535 0.0810
H4 H 0.4247 0.7414 0.1806
C4 C 0.4281(3) 0.6481(5) 0.0188(5)
H5 H 0.4051 0.6166 0.0254
H6 H 0.4526 0.6239 0.0053
C5 C 0.4846(3) 0.7403(5) 0.0908(6)
H7 H 0.5010 0.7623 0.1457
H8 H 0.4664 0.7727 0.0484
C6 C 0.3514(3) 0.6770(4) 0.1783(5)
C7 C 0.3501(3) 0.7326(5) 0.2240(6)
H9 H 0.3673 0.7699 0.2198
C8 C 0.3226(3) 0.7329(4) 0.2769(5)
H10 H 0.3213 0.7705 0.3082
C9 C 0.2974(3) 0.6769(4) 0.2826(5)
C10 C 0.2981(3) 0.6237(5) 0.2342(6)
H11 H 0.2805 0.5864 0.2369
C11 C 0.3242(3) 0.6240(5) 0.1814(6)
H12 H 0.3234 0.5874 0.1470
C12 C 0.2718(3) 0.6751(5) 0.3455(5)
C13 C 0.3788(3) 0.6677(5) -0.1284(6)
C14 C 0.3708(4) 0.6030(6) -0.1493(7)
H13 H 0.3844 0.5715 -0.1064
C15 C 0.3432(4) 0.5824(5) -0.2323(6)
H14 H 0.3389 0.5378 -0.2455
C16 C 0.3222(3) 0.6289(5) -0.2944(6)
C17 C 0.3314(4) 0.6935(5) -0.2729(6)
H15 H 0.3190 0.7251 -0.3161
C18 C 0.3579(4) 0.7141(5) -0.1913(6)
H16 H 0.3618 0.7588 -0.1783
C19 C 0.2910(4) 0.6084(5) -0.3826(6)
C20 C 0.5491(3) 0.7443(5) 0.0391(7)
C21 C 0.5767(4) 0.7131(5) 0.0036(8)
H17 H 0.5729 0.6679 -0.0054
C22 C 0.6106(4) 0.7450(5) -0.0204(7)
H18 H 0.6292 0.7214 -0.0452
C23 C 0.6172(3) 0.8111(5) -0.0082(6)
C24 C 0.5893(4) 0.8438(5) 0.0269(8)
H19 H 0.5923 0.8892 0.0342
C25 C 0.5554(4) 0.8093(6) 0.0528(7)
H20 H 0.5373 0.8319 0.0795
C26 C 0.6553(3) 0.8459(5) -0.0303(6)
C27 C 0.2354(3) 0.4319(4) 0.4637(7)
H21 H 0.2329 0.4350 0.5181
C28 C 0.2444(4) 0.3917(6) 0.3480(7)
H22 H 0.2490 0.3630 0.3078
C29 C 0.2392(5) 0.4573(5) 0.3398(8)
H23 H 0.2394 0.4822 0.2925
C30 C 0.2451(3) 0.3101(4) 0.4628(6)
C31 C 0.2195(3) 0.2951(4) 0.5123(7)
H24 H 0.1987 0.3263 0.5208
C32 C 0.2765(4) 0.2660(4) 0.4493(6)
H25 H 0.2945 0.2769 0.4154
Cd1 Cd 0.2500 0.7500 -0.5000
Cd2A Cd 0.77216(3) 0.58437(3) 0.04923(4)
Cd2 Cd 0.22784(3) 0.58437(3) -0.54923(4)
Cd2F Cd 0.27216(3) -0.08437(3) 0.54923(4)
N1F N 0.2665(3) 0.0188(3) 0.5865(5)
N1A N 0.7665(3) 0.4812(3) 0.0865(5)
N2F N 0.2584(3) 0.1253(3) 0.5736(5)
O2A O 0.6223(2) 0.6703(3) 0.3745(4)
O3A O 0.5952(2) 0.6914(3) 0.5485(4)
O4A O 0.4815(2) 0.7074(4) 0.4384(5)
O5A O 0.7482(2) 0.6212(3) 0.1496(4)
O6A O 0.7281(2) 0.7261(3) 0.1119(4)
O7A O 0.7233(3) 0.5506(4) 0.8965(4)
O7 O 0.2767(3) 0.5506(4) 0.6035(4)
O7A O 0.7233(3) 0.5506(4) -0.1035(4)
O8A O 0.7194(2) 0.6503(3) -0.0564(4)
O9F O 0.8189(2) 0.6880(3) 0.0613(4)
O10F O 0.8397(3) 0.5940(4) 0.0177(6)
C1A C 0.5493(3) 0.6854(4) 0.3985(5)
C2A C 0.5216(3) 0.6379(5) 0.3263(5)
H1A H 0.4971 0.6150 0.3415
H2A H 0.5433 0.6054 0.3173
C3A C 0.5887(3) 0.7203(5) 0.3758(6)
H3A H 0.6044 0.7535 0.4190
H4A H 0.5753 0.7414 0.3194
C4A C 0.5719(3) 0.6481(5) 0.4812(5)
H5A H 0.5949 0.6166 0.4746
H6A H 0.5474 0.6239 0.4947
C5A C 0.5154(3) 0.7403(5) 0.4092(6)
H7A H 0.4990 0.7623 0.3543
H8A H 0.5336 0.7727 0.4516
C6A C 0.6486(3) 0.6770(4) 0.3217(5)
C7A C 0.6499(3) 0.7326(5) 0.2760(6)
H9A H 0.6327 0.7699 0.2802
C8A C 0.6774(3) 0.7329(4) 0.2231(5)
H10A H 0.6787 0.7705 0.1918
C9A C 0.7026(3) 0.6769(4) 0.2174(5)
C10A C 0.7019(3) 0.6237(5) 0.2658(6)
H11A H 0.7195 0.5864 0.2631
C11A C 0.6758(3) 0.6240(5) 0.3186(6)
H12A H 0.6766 0.5874 0.3530
C12A C 0.7282(3) 0.6751(5) 0.1545(5)
C13A C 0.6212(3) 0.6677(5) 0.6284(6)
C14A C 0.6292(4) 0.6030(6) 0.6493(7)
H13A H 0.6156 0.5715 0.6064
C15A C 0.6568(4) 0.5824(5) 0.7323(6)
H14A H 0.6611 0.5378 0.7455
C16A C 0.6778(3) 0.6289(5) 0.7944(6)
C17A C 0.6686(4) 0.6935(5) 0.7729(6)
H15A H 0.6810 0.7251 0.8161
C18A C 0.6421(4) 0.7141(5) 0.6913(6)
H16A H 0.6382 0.7588 0.6783
C19A C 0.7090(4) 0.6084(5) 0.8826(6)
C20A C 0.4509(3) 0.7443(5) 0.4609(7)
C21A C 0.4233(4) 0.7131(5) 0.4964(8)
H17A H 0.4271 0.6679 0.5054
C22A C 0.3894(4) 0.7450(5) 0.5204(7)
H18A H 0.3708 0.7214 0.5452
C23A C 0.3828(3) 0.8111(5) 0.5082(6)
C24A C 0.4107(4) 0.8438(5) 0.4731(8)
H19A H 0.4077 0.8892 0.4658
C25A C 0.4446(4) 0.8093(6) 0.4472(7)
H20A H 0.4627 0.8319 0.4205
C26A C 0.3447(3) 0.8459(5) 0.5303(6)
C27F C 0.2646(3) 0.0681(4) 0.5363(7)
H21F H 0.2671 0.0650 0.4819
C28F C 0.2556(4) 0.1083(6) 0.6520(7)
H22F H 0.2510 0.1370 0.6922
C29F C 0.2608(5) 0.0427(5) 0.6602(8)
H23F H 0.2606 0.0178 0.7075
C30F C 0.2549(3) 0.1899(4) 0.5372(6)
C31F C 0.2805(3) 0.2049(4) 0.4877(7)
H24F H 0.3013 0.1737 0.4792
C32F C 0.2235(4) 0.2340(4) 0.5507(6)
H25F H 0.2055 0.2231 0.5846
N2 N 0.7584(3) 0.3747(3) 0.0736(5)
C27 C 0.7646(3) 0.4319(4) 0.0363(7)
H21 H 0.7671 0.4350 -0.0181
C28 C 0.7556(4) 0.3917(6) 0.1520(7)
H22 H 0.7510 0.3630 0.1922
C29 C 0.7608(5) 0.4573(5) 0.1602(8)
H23 H 0.7606 0.4822 0.2075
C30 C 0.7549(3) 0.3101(4) 0.0372(6)
C31 C 0.7805(3) 0.2951(4) -0.0123(7)
H24 H 0.8013 0.3263 -0.0208
C32 C 0.7235(4) 0.2660(4) 0.0507(6)
H25 H 0.7055 0.2769 0.0846
Cd2F Cd 0.72784(3) -0.08437(3) -0.04923(4)
N1F N 0.7335(3) 0.0188(3) -0.0865(5)
N2F N 0.7416(3) 0.1253(3) -0.0736(5)
O6F O 0.7719(2) 0.7739(3) -0.1119(4)
C27F C 0.7354(3) 0.0681(4) -0.0363(7)
H21F H 0.7329 0.0650 0.0181
C28F C 0.7444(4) 0.1083(6) -0.1520(7)
H22F H 0.7490 0.1370 -0.1922
C29F C 0.7392(5) 0.0427(5) -0.1602(8)
H23F H 0.7394 0.0178 -0.2075
C30F C 0.7451(3) 0.1899(4) -0.0372(6)
C31F C 0.7195(3) 0.2049(4) 0.0123(7)
H24F H 0.6987 0.1737 0.0208
C32F C 0.7765(4) 0.2340(4) -0.0507(6)
H25F H 0.7945 0.2231 -0.0846

#END
