./ACOMEK_from_POSCAR.cif_generated_by_CrystalShift
_symmetry_cell_setting triclinic
_symmetry_space_group_name_H-M 'P 1'
loop_
_symmetry_equiv_pos_site_id
_symmetry_equiv_pos_as_xyz
1 x,y,z
_cell_length_a 16.107000
_cell_length_b 15.244600
_cell_length_c 16.255700
_cell_angle_alpha 90.000000
_cell_angle_beta 118.082000
_cell_angle_gamma 90.000000
_cell_volume 3521.601745
loop_
_atom_site_label
_atom_site_type_symbol
_atom_site_fract_x
_atom_site_fract_y
_atom_site_fract_z
H1 H -0.126700 1.125700 0.996500
H2 H 0.669000 1.099000 0.869000
H3 H 0.676500 1.083100 0.969500
H4 H 0.464500 1.076200 0.756200
H5 H 0.460100 0.972500 0.739400
H6 H 0.536600 1.030500 0.727600
H7 H 0.534600 1.003100 0.901000
H8 H 0.492800 0.774800 0.901400
H9 H 0.488500 0.877400 0.919800
H10 H 0.579200 0.821300 0.987400
H11 H 0.178500 0.647800 0.036400
H12 H 0.597600 0.719600 0.841500
H13 H 0.255600 0.716200 0.221500
H14 H 0.213900 0.777400 0.130900
H15 H 0.304900 0.718400 0.156000
H16 H 0.685800 0.763900 0.927600
H17 H 0.041600 0.612500 0.049800
H18 H 0.057600 0.716400 0.055600
H19 H 0.084800 0.661200 0.148600
H20 H 0.664800 0.785200 0.823100
H21 H 0.107600 0.489900 0.087200
H22 H 0.523100 0.855300 0.794900
H23 H 0.279400 0.396300 0.147300
H24 H 0.177900 0.352700 0.111800
H25 H 0.225000 0.406500 0.207600
H26 H 0.840700 1.152100 1.243300
H27 H 0.125900 0.533400 -0.042600
H28 H 0.121200 0.428700 -0.038800
H29 H 0.220300 0.476700 -0.005700
H30 H 0.830000 1.237000 1.181100
H31 H 0.548700 0.589500 0.132000
H32 H 0.841100 1.142100 1.145500
H33 H 0.354800 0.641500 0.028400
H34 H 0.423400 0.626400 -0.016500
H35 H 0.442200 0.705800 0.054600
H36 H 0.986400 1.181000 1.133600
H37 H 0.493900 0.452500 0.146900
H38 H 0.449500 0.475800 0.038400
H39 H 0.387100 0.485000 0.090800
H40 H 0.954400 1.276900 1.147300
H41 H 0.513500 0.735000 0.198400
H42 H 1.060800 1.245700 1.210500
H43 H 0.439200 0.745700 0.289500
H44 H 0.545600 0.776900 0.352700
H45 H 0.513600 0.681000 0.366400
H46 H 0.986500 1.235000 1.301600
H47 H 0.658900 0.642100 0.354500
H48 H 0.670000 0.737000 0.318900
H49 H 0.659300 0.652100 0.256700
H50 H 1.112900 0.985000 1.409200
H51 H 0.606300 0.312000 0.261000
H52 H 1.050500 0.975800 1.461600
H53 H 0.645200 0.267900 0.446200
H54 H 0.561200 0.331000 0.378600
H55 H 0.560200 0.229500 0.352900
H56 H 1.006100 0.952500 1.353100
H57 H 0.740100 0.230700 0.290700
H58 H 0.762100 0.213800 0.396200
H59 H 0.671600 0.170000 0.312300
H60 H 1.057800 1.205800 1.445400
H61 H 0.811800 0.356700 0.332500
H62 H 1.076600 1.126400 1.516500
H63 H 0.676900 0.365600 0.185000
H64 H 0.666900 0.467900 0.200600
H65 H 0.755300 0.433100 0.190200
H66 H 1.145200 1.141500 1.471600
H67 H 0.779400 0.535800 0.360000
H68 H 0.864800 0.476400 0.431700
H69 H 0.859600 0.505100 0.334700
H70 H 0.951300 1.089500 1.368000
H71 H 0.976900 0.355300 0.705100
H72 H 1.279700 0.976700 1.505700
H73 H 0.835200 0.285200 0.676900
H74 H 0.814200 0.263900 0.572400
H75 H 0.902400 0.219600 0.658500
H76 H 1.378800 0.928700 1.538800
H77 H 0.920800 0.321300 0.512600
H78 H 1.011500 0.377400 0.580200
H79 H 1.007200 0.274800 0.598600
H80 H 1.374100 1.033400 1.542600
H81 H 0.965400 0.503100 0.599000
H82 H 1.275000 0.906500 1.292400
H83 H 0.963400 0.530500 0.772400
H84 H 1.039900 0.472500 0.760600
H85 H 1.035500 0.576200 0.743800
H86 H 1.322100 0.852700 1.388200
H87 H 0.823500 0.583100 0.530500
H88 H 0.831000 0.599000 0.631000
H89 H 0.906800 0.642000 0.605900
H90 H 1.220600 0.896300 1.352700
H91 H 1.392400 0.989900 1.412800
H92 H 1.415200 1.161200 1.351400
H93 H 1.442400 1.216400 1.444400
H94 H 1.458400 1.112500 1.450200
H95 H 0.384100 0.637500 0.419000
H96 H 0.413400 0.376100 0.360900
H97 H 0.373300 0.374300 0.496500
H98 H 1.195100 1.218400 1.344000
H99 H 1.286100 1.277400 1.369100
H100 H 1.244400 1.216200 1.278500
H101 H 1.321500 1.147800 1.463600
H102 H 1.115900 1.137500 1.081000
H103 H 1.126700 0.874300 1.003500
H104 H 1.086600 0.876100 1.139100
H105 H 0.640400 1.005100 1.165300
H106 H 0.635200 0.976400 1.068300
H107 H 0.720600 1.035800 1.140000
H108 H 0.744700 0.933100 1.309800
H109 H 0.833100 0.967900 1.299400
H110 H 0.823100 0.865600 1.315000
H111 H 0.688200 0.856700 1.167500
H112 H 0.393700 0.688000 0.739000
H113 H 0.828400 0.670000 1.187700
H114 H 0.354800 0.732100 0.553800
H115 H 0.438800 0.669000 0.621400
H116 H 0.439800 0.770500 0.647100
H117 H 0.737900 0.713800 1.103800
H118 H 0.259900 0.769300 0.709300
H119 H 0.237900 0.786200 0.603800
H120 H 0.328400 0.830000 0.687700
H121 H 0.759900 0.730700 1.209300
H122 H 0.188200 0.643300 0.667500
H123 H 0.939800 0.729500 1.147100
H124 H 0.323100 0.634400 0.815000
H125 H 0.333100 0.532100 0.799400
H126 H 0.244700 0.566900 0.809800
H127 H 0.938800 0.831000 1.121400
H128 H 0.220600 0.464200 0.640000
H129 H 0.135200 0.523600 0.568300
H130 H 0.140400 0.494900 0.665300
H131 H 0.586600 0.623900 0.639100
H132 H 0.626700 0.625700 0.503500
H133 H 0.615900 0.362500 0.581000
H134 H 0.854800 0.767900 1.053800
H135 H 0.821500 0.352200 0.963600
H136 H 0.893700 0.812000 1.239000
H137 H 0.744400 0.283800 0.778500
H138 H 0.786100 0.222600 0.869100
H139 H 0.695100 0.281600 0.844000
H140 H 0.873300 1.125700 0.996500
H141 H 0.958400 0.387500 0.950200
H142 H 0.942400 0.283600 0.944400
H143 H 0.915200 0.338800 0.851400
H144 H 0.913400 1.123900 0.860900
H145 H 0.892400 0.510100 0.912800
H146 H 0.884100 0.862500 0.919000
H147 H 0.720600 0.603700 0.852700
H148 H 0.822100 0.647300 0.888200
H149 H 0.775000 0.593500 0.792400
H150 H 1.406800 0.858000 1.105900
H151 H 0.874100 0.466600 1.042600
H152 H 0.878800 0.571300 1.038800
H153 H 0.779700 0.523300 1.005700
H154 H 1.331000 0.901000 1.131000
H155 H 0.451300 0.410500 0.868000
H156 H 1.323500 0.916900 1.030500
H157 H 0.645200 0.358500 0.971600
H158 H 0.576600 0.373600 1.016500
H159 H 0.557800 0.294200 0.945400
H160 H 1.535500 0.923800 1.243800
H161 H 0.506100 0.547500 0.853100
H162 H 0.550500 0.524200 0.961600
H163 H 0.612900 0.515000 0.909200
H164 H 1.539900 1.027500 1.260600
H165 H 0.486500 0.265000 0.801600
H166 H 1.463400 0.969500 1.272400
H167 H 0.560800 0.254300 0.710500
H168 H 0.454400 0.223100 0.647300
H169 H 0.486400 0.319000 0.633600
H170 H 1.465400 0.996900 1.099000
H171 H 0.341100 0.357900 0.645500
H172 H 0.330000 0.263000 0.681100
H173 H 0.340700 0.347900 0.743300
H174 H 1.507200 1.225200 1.098600
H175 H 0.023100 0.644700 0.294900
H176 H 1.511500 1.122600 1.080200
H177 H 0.164800 0.714800 0.323100
H178 H 0.185800 0.736100 0.427600
H179 H 0.097600 0.780400 0.341500
H180 H 1.420800 1.178700 1.012600
H181 H 0.079200 0.678700 0.487400
H182 H -0.011500 0.622600 0.419800
H183 H -0.007200 0.725200 0.401400
H184 H 1.402400 1.280400 1.158500
H185 H 0.034600 0.496900 0.401000
H186 H 1.314200 1.236100 1.072400
H187 H 0.036600 0.469500 0.227600
H188 H -0.039900 0.527500 0.239400
H189 H -0.035500 0.423800 0.256200
H190 H 1.335200 1.214800 1.176900
H191 H 0.176500 0.416900 0.469500
H192 H 0.169000 0.401000 0.369000
H193 H 0.093200 0.358000 0.394100
H194 H 1.476900 1.144700 1.205100
H195 H 1.359600 0.994900 0.834700
H196 H 1.364800 1.023600 0.931700
H197 H 1.279400 0.964200 0.860000
H198 H 1.255300 1.066900 0.690200
H199 H 1.166900 1.032100 0.700600
H200 H 1.176900 1.134400 0.685000
H201 H 1.311800 1.143300 0.832500
H202 H 1.171600 1.330000 0.812300
H203 H 1.262100 1.286200 0.896200
H204 H -0.321500 -0.147800 -0.463600
H205 H 1.240100 1.269300 0.790700
H206 H -0.244400 -0.216200 -0.278500
H207 H -0.286100 -0.277400 -0.369100
H208 H -0.195100 -0.218400 -0.344000
H209 H 1.060200 1.270500 0.852900
H210 H -0.458400 -0.112500 -0.450200
H211 H -0.442400 -0.216400 -0.444400
H212 H -0.415200 -0.161200 -0.351400
H213 H 1.061200 1.169000 0.878600
H214 H -0.392400 0.010100 -0.412800
H215 H 1.145200 1.232100 0.946200
H216 H -0.220600 0.103700 -0.352700
H217 H -0.322100 0.147300 -0.388200
H218 H -0.275000 0.093500 -0.292400
H219 H 1.106300 1.188000 0.761000
H220 H -0.374100 -0.033400 -0.542600
H221 H -0.378800 0.071300 -0.538800
H222 H -0.279700 0.023300 -0.505700
H223 H 1.159300 0.847900 0.756700
H224 H 0.048700 -0.089500 -0.368000
H225 H 1.170000 0.763000 0.818900
H226 H -0.145200 -0.141500 -0.471600
H227 H -0.076600 -0.126400 -0.516500
H228 H -0.057800 -0.205800 -0.445400
H229 H 1.158900 0.857900 0.854500
H230 H -0.006100 0.047500 -0.353100
H231 H -0.050500 0.024200 -0.461600
H232 H -0.112900 0.015000 -0.409200
H233 H 1.013600 0.819000 0.866400
H234 H 0.013500 -0.235000 -0.301600
H235 H 1.045600 0.723100 0.852700
H236 H -0.060800 -0.245700 -0.210500
H237 H 0.045600 -0.276900 -0.147300
H238 H 0.013600 -0.181000 -0.133600
H239 H 0.939200 0.754300 0.789500
H240 H 0.158900 -0.142100 -0.145500
H241 H 0.170000 -0.237000 -0.181100
H242 H 0.159300 -0.152100 -0.243300
H243 H 1.013500 0.765000 0.698400
H244 H 0.106300 0.188000 -0.239000
H245 H 0.887100 1.015000 0.590800
H246 H 0.145200 0.232100 -0.053800
H247 H 0.061200 0.169000 -0.121400
H248 H 0.060200 0.270500 -0.147100
H249 H 0.949500 1.024200 0.538400
H250 H 0.240100 0.269300 -0.209300
H251 H 0.262100 0.286200 -0.103800
H252 H 0.171600 0.330000 -0.187700
H253 H 0.993900 1.047500 0.646900
H254 H 0.311800 0.143300 -0.167500
H255 H 0.942200 0.794200 0.554600
H256 H 0.176900 0.134400 -0.315000
H257 H 0.166900 0.032100 -0.299400
H258 H 0.255300 0.066900 -0.309800
H259 H 0.923400 0.873600 0.483500
H260 H 0.279400 -0.035800 -0.140000
H261 H 0.364800 0.023600 -0.068300
H262 H 0.359600 -0.005100 -0.165300
H263 H 0.854800 0.858500 0.528400
H264 H 0.476900 0.144700 0.205100
H265 H 1.048700 0.910500 0.632000
H266 H 0.335200 0.214800 0.176900
H267 H 0.314200 0.236100 0.072400
H268 H 0.402400 0.280400 0.158500
H269 H 0.720300 1.023300 0.494300
H270 H 0.420800 0.178700 0.012600
H271 H 0.511500 0.122600 0.080200
H272 H 0.507200 0.225200 0.098600
H273 H 0.621200 1.071300 0.461200
H274 H 0.465400 -0.003100 0.099000
H275 H 0.625900 0.966600 0.457400
H276 H 0.463400 -0.030500 0.272400
H277 H 0.539900 0.027500 0.260600
H278 H 0.535500 -0.076200 0.243800
H279 H 0.725000 1.093500 0.707600
H280 H 0.323500 -0.083100 0.030500
H281 H 0.331000 -0.099000 0.131000
H282 H 0.406800 -0.142000 0.105900
H283 H 0.677900 1.147300 0.611800
H284 H 0.779400 1.103700 0.647300
H285 H 0.607600 1.010100 0.587200
H286 H 0.584800 0.838800 0.648600
H287 H 0.557600 0.783600 0.555600
H288 H -0.115900 -0.137500 -0.081000
H289 H -0.086600 0.123900 -0.139100
H290 H -0.126700 0.125700 -0.003500
H291 H 0.541600 0.887500 0.549800
H292 H 0.804900 0.781600 0.656000
H293 H 0.713900 0.722600 0.630900
H294 H 0.755600 0.783800 0.721500
H295 H 0.678500 0.852200 0.536400
H296 H 0.593200 1.142000 -0.105900
H297 H 0.669000 1.099000 -0.131000
H298 H 0.676500 1.083100 -0.030500
H299 H 0.464500 1.076200 -0.243800
H300 H 0.460100 0.972500 -0.260600
H301 H 0.536600 1.030500 -0.272400
H302 H 0.534600 1.003100 -0.099000
H303 H 0.492800 0.774800 -0.098600
H304 H 0.488500 0.877400 -0.080200
H305 H -0.106300 -0.188000 0.239000
H306 H 0.579200 0.821300 -0.012600
H307 H -0.145200 -0.232100 0.053800
H308 H -0.061200 -0.169000 0.121400
H309 H -0.060200 -0.270500 0.147100
H310 H 0.597600 0.719600 -0.158500
H311 H -0.240100 -0.269300 0.209300
H312 H -0.262100 -0.286200 0.103800
H313 H -0.171600 -0.330000 0.187700
H314 H 0.685800 0.763900 -0.072400
H315 H -0.311800 -0.143300 0.167500
H316 H 0.664800 0.785200 -0.176900
H317 H -0.176900 -0.134400 0.315000
H318 H -0.166900 -0.032100 0.299400
H319 H -0.255300 -0.066900 0.309800
H320 H 0.523100 0.855300 -0.205100
H321 H -0.279400 0.035800 0.140000
H322 H -0.364800 -0.023600 0.068300
H323 H -0.359600 0.005100 0.165300
H324 H 0.086600 -0.123900 0.139100
H325 H 0.126700 -0.125700 0.003500
H326 H 0.115900 0.137500 0.081000
H327 H 0.840700 1.152100 0.243300
H328 H 0.321500 0.147800 0.463600
H329 H 0.830000 1.237000 0.181100
H330 H 0.244400 0.216200 0.278500
H331 H 0.286100 0.277400 0.369100
H332 H 0.195100 0.218400 0.344000
H333 H 0.841100 1.142100 0.145500
H334 H 0.458400 0.112500 0.450200
H335 H 0.442400 0.216400 0.444400
H336 H 0.415200 0.161200 0.351400
H337 H 0.986400 1.181000 0.133600
H338 H 0.392400 -0.010100 0.412800
H339 H 0.954400 1.276900 0.147300
H340 H 0.220600 -0.103700 0.352700
H341 H 0.322100 -0.147300 0.388200
H342 H 0.275000 -0.093500 0.292400
H343 H 1.060800 1.245700 0.210500
H344 H 0.374100 0.033400 0.542600
H345 H 0.378800 -0.071300 0.538800
H346 H 0.279700 -0.023300 0.505700
H347 H 0.986500 1.235000 0.301600
H348 H -0.048700 0.089500 0.368000
H349 H 1.112900 0.985000 0.409200
H350 H 0.145200 0.141500 0.471600
H351 H 0.076600 0.126400 0.516500
H352 H 0.057800 0.205800 0.445400
H353 H 1.050500 0.975800 0.461600
H354 H 0.006100 -0.047500 0.353100
H355 H 0.050500 -0.024200 0.461600
H356 H 0.112900 -0.015000 0.409200
H357 H 1.006100 0.952500 0.353100
H358 H -0.013500 0.235000 0.301600
H359 H 1.057800 1.205800 0.445400
H360 H 0.060800 0.245700 0.210500
H361 H -0.045600 0.276900 0.147300
H362 H -0.013600 0.181000 0.133600
H363 H 1.076600 1.126400 0.516500
H364 H -0.158900 0.142100 0.145500
H365 H -0.170000 0.237000 0.181100
H366 H -0.159300 0.152100 0.243300
H367 H 1.145200 1.141500 0.471600
H368 H -0.476900 -0.144700 -0.205100
H369 H 0.951300 1.089500 0.368000
H370 H -0.335200 -0.214800 -0.176900
H371 H -0.314200 -0.236100 -0.072400
H372 H -0.402400 -0.280400 -0.158500
H373 H 1.279700 0.976700 0.505700
H374 H -0.420800 -0.178700 -0.012600
H375 H -0.511500 -0.122600 -0.080200
H376 H -0.507200 -0.225200 -0.098600
H377 H 1.378800 0.928700 0.538800
H378 H -0.465400 0.003100 -0.099000
H379 H 1.374100 1.033400 0.542600
H380 H -0.463400 0.030500 -0.272400
H381 H -0.539900 -0.027500 -0.260600
H382 H -0.535500 0.076200 -0.243800
H383 H 1.275000 0.906500 0.292400
H384 H -0.323500 0.083100 -0.030500
H385 H -0.331000 0.099000 -0.131000
H386 H -0.406800 0.142000 -0.105900
H387 H 1.322100 0.852700 0.388200
H388 H 1.220600 0.896300 0.352700
H389 H 1.392400 0.989900 0.412800
H390 H 1.415200 1.161200 0.351400
H391 H 1.442400 1.216400 0.444400
H392 H 1.458400 1.112500 0.450200
H393 H 1.195100 1.218400 0.344000
H394 H 1.286100 1.277400 0.369100
H395 H 1.244400 1.216200 0.278500
H396 H 1.321500 1.147800 0.463600
H397 H -0.321500 -0.147800 0.536400
H398 H 1.115900 1.137500 0.081000
H399 H -0.244400 -0.216200 0.721500
H400 H -0.286100 -0.277400 0.630900
H401 H -0.195100 -0.218400 0.656000
H402 H 1.126700 0.874300 0.003500
H403 H -0.458400 -0.112500 0.549800
H404 H -0.442400 -0.216400 0.555600
H405 H -0.415200 -0.161200 0.648600
H406 H 1.086600 0.876100 0.139100
H407 H -0.392400 0.010100 0.587200
H408 H 0.640400 1.005100 0.165300
H409 H -0.220600 0.103700 0.647300
H410 H -0.322100 0.147300 0.611800
H411 H -0.275000 0.093500 0.707600
H412 H 0.635200 0.976400 0.068300
H413 H -0.374100 -0.033400 0.457400
H414 H -0.378800 0.071300 0.461200
H415 H -0.279700 0.023300 0.494300
H416 H 0.720600 1.035800 0.140000
H417 H 0.048700 -0.089500 0.632000
H418 H 0.744700 0.933100 0.309800
H419 H -0.145200 -0.141500 0.528400
H420 H -0.076600 -0.126400 0.483500
H421 H -0.057800 -0.205800 0.554600
H422 H 0.833100 0.967900 0.299400
H423 H -0.006100 0.047500 0.646900
H424 H -0.050500 0.024200 0.538400
H425 H -0.112900 0.015000 0.590800
H426 H 0.823100 0.865600 0.315000
H427 H 0.013500 -0.235000 0.698400
H428 H 0.688200 0.856700 0.167500
H429 H -0.060800 -0.245700 0.789500
H430 H 0.045600 -0.276900 0.852700
H431 H 0.013600 -0.181000 0.866400
H432 H 0.828400 0.670000 0.187700
H433 H 0.158900 -0.142100 0.854500
H434 H 0.170000 -0.237000 0.818900
H435 H 0.159300 -0.152100 0.756700
H436 H 0.737900 0.713800 0.103800
H437 H 0.106300 0.188000 0.761000
H438 H 0.759900 0.730700 0.209300
H439 H 0.145200 0.232100 0.946200
H440 H 0.061200 0.169000 0.878600
H441 H 0.060200 0.270500 0.852900
H442 H 0.939800 0.729500 0.147100
H443 H 0.240100 0.269300 0.790700
H444 H 0.262100 0.286200 0.896200
H445 H 0.171600 0.330000 0.812300
H446 H 0.938800 0.831000 0.121400
H447 H 0.311800 0.143300 0.832500
H448 H 0.854800 0.767900 0.053800
H449 H 0.176900 0.134400 0.685000
H450 H 0.166900 0.032100 0.700600
H451 H 0.255300 0.066900 0.690200
H452 H 0.893700 0.812000 0.239000
H453 H 0.279400 -0.035800 0.860000
H454 H 0.364800 0.023600 0.931700
H455 H 0.359600 -0.005100 0.834700
H456 H 0.873300 1.125700 -0.003500
H457 H 0.476900 0.144700 1.205100
H458 H 0.913400 1.123900 -0.139100
H459 H 0.335200 0.214800 1.176900
H460 H 0.314200 0.236100 1.072400
H461 H 0.402400 0.280400 1.158500
H462 H 0.884100 0.862500 -0.081000
H463 H 0.420800 0.178700 1.012600
H464 H 0.511500 0.122600 1.080200
H465 H 0.507200 0.225200 1.098600
H466 H 1.406800 0.858000 0.105900
H467 H 0.465400 -0.003100 1.099000
H468 H 1.331000 0.901000 0.131000
H469 H 0.463400 -0.030500 1.272400
H470 H 0.539900 0.027500 1.260600
H471 H 0.535500 -0.076200 1.243800
H472 H 1.323500 0.916900 0.030500
H473 H 0.323500 -0.083100 1.030500
H474 H 0.331000 -0.099000 1.131000
H475 H 0.406800 -0.142000 1.105900
H476 H 1.535500 0.923800 0.243800
H477 H 1.539900 1.027500 0.260600
H478 H 1.463400 0.969500 0.272400
H479 H 1.465400 0.996900 0.099000
H480 H 1.507200 1.225200 0.098600
H481 H -0.115900 -0.137500 0.919000
H482 H -0.086600 0.123900 0.860900
H483 H -0.126700 0.125700 0.996500
H484 H 1.511500 1.122600 0.080200
H485 H 1.420800 1.178700 0.012600
H486 H 1.402400 1.280400 0.158500
H487 H 1.314200 1.236100 0.072400
H488 H 1.335200 1.214800 0.176900
H489 H 1.476900 1.144700 0.205100
H490 H 1.359600 0.994900 -0.165300
H491 H 1.364800 1.023600 -0.068300
H492 H 1.279400 0.964200 -0.140000
H493 H 1.255300 1.066900 -0.309800
H494 H 1.166900 1.032100 -0.299400
H495 H 1.176900 1.134400 -0.315000
H496 H 1.311800 1.143300 -0.167500
H497 H 1.171600 1.330000 -0.187700
H498 H -0.106300 -0.188000 1.239000
H499 H 1.262100 1.286200 -0.103800
H500 H -0.145200 -0.232100 1.053800
H501 H -0.061200 -0.169000 1.121400
H502 H -0.060200 -0.270500 1.147100
H503 H 1.240100 1.269300 -0.209300
H504 H -0.240100 -0.269300 1.209300
H505 H -0.262100 -0.286200 1.103800
H506 H -0.171600 -0.330000 1.187700
H507 H 1.060200 1.270500 -0.147100
H508 H -0.311800 -0.143300 1.167500
H509 H 1.061200 1.169000 -0.121400
H510 H -0.176900 -0.134400 1.315000
H511 H -0.166900 -0.032100 1.299400
H512 H -0.255300 -0.066900 1.309800
H513 H 1.145200 1.232100 -0.053800
H514 H -0.279400 0.035800 1.140000
H515 H -0.364800 -0.023600 1.068300
H516 H -0.359600 0.005100 1.165300
H517 H 0.086600 -0.123900 1.139100
H518 H 0.126700 -0.125700 1.003500
H519 H 0.115900 0.137500 1.081000
H520 H 1.106300 1.188000 -0.239000
H521 H 0.321500 0.147800 1.463600
H522 H 1.159300 0.847900 -0.243300
H523 H 0.244400 0.216200 1.278500
H524 H 0.286100 0.277400 1.369100
H525 H 0.195100 0.218400 1.344000
H526 H 1.170000 0.763000 -0.181100
H527 H 0.458400 0.112500 1.450200
H528 H 0.442400 0.216400 1.444400
H529 H 0.415200 0.161200 1.351400
H530 H 1.158900 0.857900 -0.145500
H531 H 0.392400 -0.010100 1.412800
H532 H 1.013600 0.819000 -0.133600
H533 H 0.220600 -0.103700 1.352700
H534 H 0.322100 -0.147300 1.388200
H535 H 0.275000 -0.093500 1.292400
H536 H 1.045600 0.723100 -0.147300
H537 H 0.374100 0.033400 1.542600
H538 H 0.378800 -0.071300 1.538800
H539 H 0.279700 -0.023300 1.505700
H540 H 0.939200 0.754300 -0.210500
H541 H -0.048700 0.089500 1.368000
H542 H 1.013500 0.765000 -0.301600
H543 H 0.145200 0.141500 1.471600
H544 H 0.076600 0.126400 1.516500
H545 H 0.057800 0.205800 1.445400
H546 H 0.887100 1.015000 -0.409200
H547 H 0.006100 -0.047500 1.353100
H548 H 0.050500 -0.024200 1.461600
H549 H 0.112900 -0.015000 1.409200
H550 H 0.949500 1.024200 -0.461600
H551 H -0.013500 0.235000 1.301600
H552 H 0.993900 1.047500 -0.353100
H553 H 0.060800 0.245700 1.210500
H554 H -0.045600 0.276900 1.147300
H555 H -0.013600 0.181000 1.133600
H556 H 0.942200 0.794200 -0.445400
H557 H -0.158900 0.142100 1.145500
H558 H -0.170000 0.237000 1.181100
H559 H -0.159300 0.152100 1.243300
H560 H 0.923400 0.873600 -0.516500
H561 H -0.476900 -0.144700 0.794900
H562 H 0.854800 0.858500 -0.471600
H563 H -0.335200 -0.214800 0.823100
H564 H -0.314200 -0.236100 0.927600
H565 H -0.402400 -0.280400 0.841500
H566 H 1.048700 0.910500 -0.368000
H567 H -0.420800 -0.178700 0.987400
H568 H -0.511500 -0.122600 0.919800
H569 H -0.507200 -0.225200 0.901400
H570 H 0.720300 1.023300 -0.505700
H571 H -0.465400 0.003100 0.901000
H572 H 0.621200 1.071300 -0.538800
H573 H -0.463400 0.030500 0.727600
H574 H -0.539900 -0.027500 0.739400
H575 H -0.535500 0.076200 0.756200
H576 H 0.625900 0.966600 -0.542600
H577 H -0.323500 0.083100 0.969500
H578 H -0.331000 0.099000 0.869000
H579 H -0.406800 0.142000 0.894100
H580 H 0.725000 1.093500 -0.292400
H581 H 0.677900 1.147300 -0.388200
H582 H 0.779400 1.103700 -0.352700
H583 H 0.607600 1.010100 -0.412800
H584 H 0.584800 0.838800 -0.351400
H585 H 0.557600 0.783600 -0.444400
H586 H 0.541600 0.887500 -0.450200
H587 H 0.804900 0.781600 -0.344000
H588 H 0.713900 0.722600 -0.369100
H589 H 0.755600 0.783800 -0.278500
H590 H -0.321500 0.852200 -0.463600
H591 H 0.678500 0.852200 -0.463600
H592 H -0.244400 0.783800 -0.278500
H593 H -0.286100 0.722600 -0.369100
H594 H -0.195100 0.781600 -0.344000
H595 H 0.593200 0.142000 0.894100
H596 H -0.458400 0.887500 -0.450200
H597 H -0.442400 0.783600 -0.444400
H598 H -0.415200 0.838800 -0.351400
H599 H 0.669000 0.099000 0.869000
H600 H -0.392400 1.010100 -0.412800
H601 H 0.676500 0.083100 0.969500
H602 H -0.220600 1.103700 -0.352700
H603 H -0.322100 1.147300 -0.388200
H604 H -0.275000 1.093500 -0.292400
H605 H 0.464500 0.076200 0.756200
H606 H -0.374100 0.966600 -0.542600
H607 H -0.378800 1.071300 -0.538800
H608 H -0.279700 1.023300 -0.505700
H609 H 0.460100 -0.027500 0.739400
H610 H 0.048700 0.910500 -0.368000
H611 H 0.536600 0.030500 0.727600
H612 H -0.145200 0.858500 -0.471600
H613 H -0.076600 0.873600 -0.516500
H614 H -0.057800 0.794200 -0.445400
H615 H 0.534600 0.003100 0.901000
H616 H -0.006100 1.047500 -0.353100
H617 H -0.050500 1.024200 -0.461600
H618 H -0.112900 1.015000 -0.409200
H619 H 0.492800 -0.225200 0.901400
H620 H 0.013500 0.765000 -0.301600
H621 H 0.488500 -0.122600 0.919800
H622 H -0.060800 0.754300 -0.210500
H623 H 0.045600 0.723100 -0.147300
H624 H 0.013600 0.819000 -0.133600
H625 H 0.579200 -0.178700 0.987400
H626 H 0.158900 0.857900 -0.145500
H627 H 0.170000 0.763000 -0.181100
H628 H 0.159300 0.847900 -0.243300
H629 H 0.597600 -0.280400 0.841500
H630 H 0.106300 1.188000 -0.239000
H631 H 0.685800 -0.236100 0.927600
H632 H 0.145200 1.232100 -0.053800
H633 H 0.061200 1.169000 -0.121400
H634 H 0.060200 1.270500 -0.147100
H635 H 0.664800 -0.214800 0.823100
H636 H 0.240100 1.269300 -0.209300
H637 H 0.262100 1.286200 -0.103800
H638 H 0.171600 1.330000 -0.187700
H639 H 0.523100 -0.144700 0.794900
H640 H 0.311800 1.143300 -0.167500
H641 H 0.840700 0.152100 1.243300
H642 H 0.176900 1.134400 -0.315000
H643 H 0.166900 1.032100 -0.299400
H644 H 0.255300 1.066900 -0.309800
H645 H 0.830000 0.237000 1.181100
H646 H 0.279400 0.964200 -0.140000
H647 H 0.364800 1.023600 -0.068300
H648 H 0.359600 0.994900 -0.165300
H649 H 0.841100 0.142100 1.145500
H650 H 0.476900 1.144700 0.205100
H651 H 0.986400 0.181000 1.133600
H652 H 0.335200 1.214800 0.176900
H653 H 0.314200 1.236100 0.072400
H654 H 0.402400 1.280400 0.158500
H655 H 0.954400 0.276900 1.147300
H656 H 0.420800 1.178700 0.012600
H657 H 0.511500 1.122600 0.080200
H658 H 0.507200 1.225200 0.098600
H659 H 1.060800 0.245700 1.210500
H660 H 0.465400 0.996900 0.099000
H661 H 0.986500 0.235000 1.301600
H662 H 0.463400 0.969500 0.272400
H663 H 0.539900 1.027500 0.260600
H664 H 0.535500 0.923800 0.243800
H665 H 1.112900 -0.015000 1.409200
H666 H 0.323500 0.916900 0.030500
H667 H 0.331000 0.901000 0.131000
H668 H 0.406800 0.858000 0.105900
H669 H 1.050500 -0.024200 1.461600
H670 H 1.006100 -0.047500 1.353100
H671 H 1.057800 0.205800 1.445400
H672 H 1.076600 0.126400 1.516500
H673 H 1.145200 0.141500 1.471600
H674 H -0.115900 0.862500 -0.081000
H675 H -0.086600 1.123900 -0.139100
H676 H -0.126700 1.125700 -0.003500
H677 H 0.951300 0.089500 1.368000
H678 H 1.279700 -0.023300 1.505700
H679 H 1.378800 -0.071300 1.538800
H680 H 1.374100 0.033400 1.542600
H681 H 1.275000 -0.093500 1.292400
H682 H 1.322100 -0.147300 1.388200
H683 H 1.220600 -0.103700 1.352700
H684 H 1.392400 -0.010100 1.412800
H685 H 1.415200 0.161200 1.351400
H686 H 1.442400 0.216400 1.444400
H687 H 1.458400 0.112500 1.450200
H688 H 1.195100 0.218400 1.344000
H689 H 1.286100 0.277400 1.369100
H690 H 1.244400 0.216200 1.278500
H691 H -0.106300 0.812000 0.239000
H692 H 1.321500 0.147800 1.463600
H693 H -0.145200 0.767900 0.053800
H694 H -0.061200 0.831000 0.121400
H695 H -0.060200 0.729500 0.147100
H696 H 1.115900 0.137500 1.081000
H697 H -0.240100 0.730700 0.209300
H698 H -0.262100 0.713800 0.103800
H699 H -0.171600 0.670000 0.187700
H700 H 1.126700 -0.125700 1.003500
H701 H -0.311800 0.856700 0.167500
H702 H 1.086600 -0.123900 1.139100
H703 H -0.176900 0.865600 0.315000
H704 H -0.166900 0.967900 0.299400
H705 H -0.255300 0.933100 0.309800
H706 H 0.640400 0.005100 1.165300
H707 H -0.279400 1.035800 0.140000
H708 H -0.364800 0.976400 0.068300
H709 H -0.359600 1.005100 0.165300
H710 H 0.086600 0.876100 0.139100
H711 H 0.126700 0.874300 0.003500
H712 H 0.115900 1.137500 0.081000
H713 H 0.635200 -0.023600 1.068300
H714 H 0.321500 1.147800 0.463600
H715 H 0.720600 0.035800 1.140000
H716 H 0.244400 1.216200 0.278500
H717 H 0.286100 1.277400 0.369100
H718 H 0.195100 1.218400 0.344000
H719 H 0.744700 -0.066900 1.309800
H720 H 0.458400 1.112500 0.450200
H721 H 0.442400 1.216400 0.444400
H722 H 0.415200 1.161200 0.351400
H723 H 0.833100 -0.032100 1.299400
H724 H 0.392400 0.989900 0.412800
H725 H 0.823100 -0.134400 1.315000
H726 H 0.220600 0.896300 0.352700
H727 H 0.322100 0.852700 0.388200
H728 H 0.275000 0.906500 0.292400
H729 H 0.688200 -0.143300 1.167500
H730 H 0.374100 1.033400 0.542600
H731 H 0.378800 0.928700 0.538800
H732 H 0.279700 0.976700 0.505700
H733 H 0.828400 -0.330000 1.187700
H734 H -0.048700 1.089500 0.368000
H735 H 0.737900 -0.286200 1.103800
H736 H 0.145200 1.141500 0.471600
H737 H 0.076600 1.126400 0.516500
H738 H 0.057800 1.205800 0.445400
H739 H 0.759900 -0.269300 1.209300
H740 H 0.006100 0.952500 0.353100
H741 H 0.050500 0.975800 0.461600
H742 H 0.112900 0.985000 0.409200
H743 H 0.939800 -0.270500 1.147100
H744 H -0.013500 1.235000 0.301600
H745 H 0.938800 -0.169000 1.121400
H746 H 0.060800 1.245700 0.210500
H747 H -0.045600 1.276900 0.147300
H748 H -0.013600 1.181000 0.133600
H749 H 0.854800 -0.232100 1.053800
H750 H -0.158900 1.142100 0.145500
H751 H -0.170000 1.237000 0.181100
H752 H -0.159300 1.152100 0.243300
H753 H 0.893700 -0.188000 1.239000
H754 H -0.476900 0.855300 -0.205100
H755 H 0.873300 0.125700 0.996500
H756 H -0.335200 0.785200 -0.176900
H757 H -0.314200 0.763900 -0.072400
H758 H -0.402400 0.719600 -0.158500
H759 H 0.913400 0.123900 0.860900
H760 H -0.420800 0.821300 -0.012600
H761 H -0.511500 0.877400 -0.080200
H762 H -0.507200 0.774800 -0.098600
H763 H 0.884100 -0.137500 0.919000
H764 H -0.465400 1.003100 -0.099000
H765 H 1.406800 -0.142000 1.105900
H766 H -0.463400 1.030500 -0.272400
H767 H -0.539900 0.972500 -0.260600
H768 H -0.535500 1.076200 -0.243800
H769 H 1.331000 -0.099000 1.131000
H770 H -0.323500 1.083100 -0.030500
H771 H -0.331000 1.099000 -0.131000
H772 H -0.406800 1.142000 -0.105900
H773 H 1.323500 -0.083100 1.030500
H774 H 1.535500 -0.076200 1.243800
H775 H 1.539900 0.027500 1.260600
H776 H 1.463400 -0.030500 1.272400
H777 H 1.465400 -0.003100 1.099000
H778 H 1.507200 0.225200 1.098600
H779 H 1.511500 0.122600 1.080200
H780 H 1.420800 0.178700 1.012600
H781 H 1.402400 0.280400 1.158500
H782 H 1.314200 0.236100 1.072400
H783 H -0.321500 0.852200 0.536400
H784 H 1.335200 0.214800 1.176900
H785 H -0.244400 0.783800 0.721500
H786 H -0.286100 0.722600 0.630900
H787 H -0.195100 0.781600 0.656000
H788 H 1.476900 0.144700 1.205100
H789 H -0.458400 0.887500 0.549800
H790 H -0.442400 0.783600 0.555600
H791 H -0.415200 0.838800 0.648600
H792 H 1.359600 -0.005100 0.834700
H793 H -0.392400 1.010100 0.587200
H794 H 1.364800 0.023600 0.931700
H795 H -0.220600 1.103700 0.647300
H796 H -0.322100 1.147300 0.611800
H797 H -0.275000 1.093500 0.707600
H798 H 1.279400 -0.035800 0.860000
H799 H -0.374100 0.966600 0.457400
H800 H -0.378800 1.071300 0.461200
H801 H -0.279700 1.023300 0.494300
H802 H 1.255300 0.066900 0.690200
H803 H 0.048700 0.910500 0.632000
H804 H 1.166900 0.032100 0.700600
H805 H -0.145200 0.858500 0.528400
H806 H -0.076600 0.873600 0.483500
H807 H -0.057800 0.794200 0.554600
H808 H 1.176900 0.134400 0.685000
H809 H -0.006100 1.047500 0.646900
H810 H -0.050500 1.024200 0.538400
H811 H -0.112900 1.015000 0.590800
H812 H 1.311800 0.143300 0.832500
H813 H 0.013500 0.765000 0.698400
H814 H 1.171600 0.330000 0.812300
H815 H -0.060800 0.754300 0.789500
H816 H 0.045600 0.723100 0.852700
H817 H 0.013600 0.819000 0.866400
H818 H 1.262100 0.286200 0.896200
H819 H 0.158900 0.857900 0.854500
H820 H 0.170000 0.763000 0.818900
H821 H 0.159300 0.847900 0.756700
H822 H 1.240100 0.269300 0.790700
H823 H 0.106300 1.188000 0.761000
H824 H 1.060200 0.270500 0.852900
H825 H 0.145200 1.232100 0.946200
H826 H 0.061200 1.169000 0.878600
H827 H 0.060200 1.270500 0.852900
H828 H 1.061200 0.169000 0.878600
H829 H 0.240100 1.269300 0.790700
H830 H 0.262100 1.286200 0.896200
H831 H 0.171600 1.330000 0.812300
H832 H 1.145200 0.232100 0.946200
H833 H 0.311800 1.143300 0.832500
H834 H 1.106300 0.188000 0.761000
H835 H 0.176900 1.134400 0.685000
H836 H 0.166900 1.032100 0.700600
H837 H 0.255300 1.066900 0.690200
H838 H 1.159300 -0.152100 0.756700
H839 H 0.279400 0.964200 0.860000
H840 H 0.364800 1.023600 0.931700
H841 H 0.359600 0.994900 0.834700
H842 H 1.170000 -0.237000 0.818900
H843 H 0.476900 1.144700 1.205100
H844 H 1.158900 -0.142100 0.854500
H845 H 0.335200 1.214800 1.176900
H846 H 0.314200 1.236100 1.072400
H847 H 0.402400 1.280400 1.158500
H848 H 1.013600 -0.181000 0.866400
H849 H 0.420800 1.178700 1.012600
H850 H 0.511500 1.122600 1.080200
H851 H 0.507200 1.225200 1.098600
H852 H 1.045600 -0.276900 0.852700
H853 H 0.465400 0.996900 1.099000
H854 H 0.939200 -0.245700 0.789500
H855 H 0.463400 0.969500 1.272400
H856 H 0.539900 1.027500 1.260600
H857 H 0.535500 0.923800 1.243800
H858 H 1.013500 -0.235000 0.698400
H859 H 0.323500 0.916900 1.030500
H860 H 0.331000 0.901000 1.131000
H861 H 0.406800 0.858000 1.105900
H862 H 0.887100 0.015000 0.590800
H863 H 0.949500 0.024200 0.538400
H864 H 0.993900 0.047500 0.646900
H865 H 0.942200 -0.205800 0.554600
H866 H 0.923400 -0.126400 0.483500
H867 H -0.115900 0.862500 0.919000
H868 H -0.086600 1.123900 0.860900
H869 H 0.593200 1.142000 0.894100
H870 H 0.854800 -0.141500 0.528400
H871 H 1.048700 -0.089500 0.632000
H872 H 0.720300 0.023300 0.494300
H873 H 0.621200 0.071300 0.461200
H874 H 0.625900 -0.033400 0.457400
H875 H 0.725000 0.093500 0.707600
H876 H 0.677900 0.147300 0.611800
H877 H 0.779400 0.103700 0.647300
H878 H 0.607600 0.010100 0.587200
H879 H 0.584800 -0.161200 0.648600
H880 H 0.557600 -0.216400 0.555600
H881 H 0.541600 -0.112500 0.549800
H882 H 0.804900 -0.218400 0.656000
H883 H 0.713900 -0.277400 0.630900
H884 H -0.106300 0.812000 1.239000
H885 H 0.755600 -0.216200 0.721500
H886 H -0.145200 0.767900 1.053800
H887 H -0.061200 0.831000 1.121400
H888 H -0.060200 0.729500 1.147100
H889 H 0.678500 -0.147800 0.536400
H890 H -0.240100 0.730700 1.209300
H891 H -0.262100 0.713800 1.103800
H892 H -0.171600 0.670000 1.187700
H893 H 0.593200 0.142000 -0.105900
H894 H -0.311800 0.856700 1.167500
H895 H 0.669000 0.099000 -0.131000
H896 H -0.176900 0.865600 1.315000
H897 H -0.166900 0.967900 1.299400
H898 H -0.255300 0.933100 1.309800
H899 H 0.676500 0.083100 -0.030500
H900 H -0.279400 1.035800 1.140000
H901 H -0.364800 0.976400 1.068300
H902 H -0.359600 1.005100 1.165300
H903 H 0.086600 0.876100 1.139100
H904 H 0.126700 0.874300 1.003500
H905 H 0.115900 1.137500 1.081000
H906 H 0.464500 0.076200 -0.243800
H907 H 0.321500 1.147800 1.463600
H908 H 0.460100 -0.027500 -0.260600
H909 H 0.244400 1.216200 1.278500
H910 H 0.286100 1.277400 1.369100
H911 H 0.195100 1.218400 1.344000
H912 H 0.536600 0.030500 -0.272400
H913 H 0.458400 1.112500 1.450200
H914 H 0.442400 1.216400 1.444400
H915 H 0.415200 1.161200 1.351400
H916 H 0.534600 0.003100 -0.099000
H917 H 0.392400 0.989900 1.412800
H918 H 0.492800 -0.225200 -0.098600
H919 H 0.220600 0.896300 1.352700
H920 H 0.322100 0.852700 1.388200
H921 H 0.275000 0.906500 1.292400
H922 H 0.488500 -0.122600 -0.080200
H923 H 0.374100 1.033400 1.542600
H924 H 0.378800 0.928700 1.538800
H925 H 0.279700 0.976700 1.505700
H926 H 0.579200 -0.178700 -0.012600
H927 H -0.048700 1.089500 1.368000
H928 H 0.597600 -0.280400 -0.158500
H929 H 0.145200 1.141500 1.471600
H930 H 0.076600 1.126400 1.516500
H931 H 0.057800 1.205800 1.445400
H932 H 0.685800 -0.236100 -0.072400
H933 H 0.006100 0.952500 1.353100
H934 H 0.050500 0.975800 1.461600
H935 H 0.112900 0.985000 1.409200
H936 H 0.664800 -0.214800 -0.176900
H937 H -0.013500 1.235000 1.301600
H938 H 0.523100 -0.144700 -0.205100
H939 H 0.060800 1.245700 1.210500
H940 H -0.045600 1.276900 1.147300
H941 H -0.013600 1.181000 1.133600
H942 H 0.840700 0.152100 0.243300
H943 H -0.158900 1.142100 1.145500
H944 H -0.170000 1.237000 1.181100
H945 H -0.159300 1.152100 1.243300
H946 H 0.830000 0.237000 0.181100
H947 H -0.476900 0.855300 0.794900
H948 H 0.841100 0.142100 0.145500
H949 H -0.335200 0.785200 0.823100
H950 H -0.314200 0.763900 0.927600
H951 H -0.402400 0.719600 0.841500
H952 H 0.986400 0.181000 0.133600
H953 H -0.420800 0.821300 0.987400
H954 H -0.511500 0.877400 0.919800
H955 H -0.507200 0.774800 0.901400
H956 H 0.954400 0.276900 0.147300
H957 H -0.465400 1.003100 0.901000
H958 H 1.060800 0.245700 0.210500
H959 H -0.463400 1.030500 0.727600
H960 H -0.539900 0.972500 0.739400
H961 H -0.535500 1.076200 0.756200
H962 H 0.986500 0.235000 0.301600
H963 H -0.323500 1.083100 0.969500
H964 H -0.331000 1.099000 0.869000
H965 H -0.406800 1.142000 0.894100
H966 H 1.112900 -0.015000 0.409200
H967 H 1.050500 -0.024200 0.461600
H968 H 1.006100 -0.047500 0.353100
H969 H 1.057800 0.205800 0.445400
H970 H 1.076600 0.126400 0.516500
H971 H 1.145200 0.141500 0.471600
H972 H 0.951300 0.089500 0.368000
H973 H 1.279700 -0.023300 0.505700
H974 H 1.378800 -0.071300 0.538800
H975 H 1.374100 0.033400 0.542600
H976 H 0.678500 -0.147800 -0.463600
H977 H 1.275000 -0.093500 0.292400
H978 H 0.755600 -0.216200 -0.278500
H979 H 0.713900 -0.277400 -0.369100
H980 H 0.804900 -0.218400 -0.344000
H981 H 1.322100 -0.147300 0.388200
H982 H 0.541600 -0.112500 -0.450200
H983 H 0.557600 -0.216400 -0.444400
H984 H 0.584800 -0.161200 -0.351400
H985 H 1.220600 -0.103700 0.352700
H986 H 0.607600 0.010100 -0.412800
H987 H 1.392400 -0.010100 0.412800
H988 H 0.779400 0.103700 -0.352700
H989 H 0.677900 0.147300 -0.388200
H990 H 0.725000 0.093500 -0.292400
H991 H 1.415200 0.161200 0.351400
H992 H 0.625900 -0.033400 -0.542600
H993 H 0.621200 0.071300 -0.538800
H994 H 0.720300 0.023300 -0.505700
H995 H 1.442400 0.216400 0.444400
H996 H 1.048700 -0.089500 -0.368000
H997 H 1.458400 0.112500 0.450200
H998 H 0.854800 -0.141500 -0.471600
H999 H 0.923400 -0.126400 -0.516500
H1000 H 0.942200 -0.205800 -0.445400
H1001 H 1.195100 0.218400 0.344000
H1002 H 0.993900 0.047500 -0.353100
H1003 H 0.949500 0.024200 -0.461600
H1004 H 0.887100 0.015000 -0.409200
H1005 H 1.286100 0.277400 0.369100
H1006 H 1.013500 -0.235000 -0.301600
H1007 H 1.244400 0.216200 0.278500
H1008 H 0.939200 -0.245700 -0.210500
H1009 H 1.045600 -0.276900 -0.147300
H1010 H 1.013600 -0.181000 -0.133600
H1011 H 1.321500 0.147800 0.463600
H1012 H 1.158900 -0.142100 -0.145500
H1013 H 1.170000 -0.237000 -0.181100
H1014 H 1.159300 -0.152100 -0.243300
H1015 H 1.115900 0.137500 0.081000
H1016 H 1.106300 0.188000 -0.239000
H1017 H 1.126700 -0.125700 0.003500
H1018 H 1.145200 0.232100 -0.053800
H1019 H 1.061200 0.169000 -0.121400
H1020 H 1.060200 0.270500 -0.147100
H1021 H 1.086600 -0.123900 0.139100
H1022 H 1.240100 0.269300 -0.209300
H1023 H 1.262100 0.286200 -0.103800
H1024 H 1.171600 0.330000 -0.187700
H1025 H 0.640400 0.005100 0.165300
H1026 H 1.311800 0.143300 -0.167500
H1027 H 0.635200 -0.023600 0.068300
H1028 H 1.176900 0.134400 -0.315000
H1029 H 1.166900 0.032100 -0.299400
H1030 H 1.255300 0.066900 -0.309800
H1031 H 0.720600 0.035800 0.140000
H1032 H 1.279400 -0.035800 -0.140000
H1033 H 1.364800 0.023600 -0.068300
H1034 H 1.359600 -0.005100 -0.165300
H1035 H 0.744700 -0.066900 0.309800
H1036 H 1.476900 0.144700 0.205100
H1037 H 0.833100 -0.032100 0.299400
H1038 H 1.335200 0.214800 0.176900
H1039 H 1.314200 0.236100 0.072400
H1040 H 1.402400 0.280400 0.158500
H1041 H 0.823100 -0.134400 0.315000
H1042 H 1.420800 0.178700 0.012600
H1043 H 1.511500 0.122600 0.080200
H1044 H 1.507200 0.225200 0.098600
H1045 H 0.688200 -0.143300 0.167500
H1046 H 1.465400 -0.003100 0.099000
H1047 H 0.828400 -0.330000 0.187700
H1048 H 1.463400 -0.030500 0.272400
H1049 H 1.539900 0.027500 0.260600
H1050 H 1.535500 -0.076200 0.243800
H1051 H 0.737900 -0.286200 0.103800
H1052 H 1.323500 -0.083100 0.030500
H1053 H 1.331000 -0.099000 0.131000
H1054 H 1.406800 -0.142000 0.105900
H1055 H 0.759900 -0.269300 0.209300
H1056 H 0.939800 -0.270500 0.147100
H1057 H 0.938800 -0.169000 0.121400
H1058 H 0.854800 -0.232100 0.053800
H1059 H 0.893700 -0.188000 0.239000
H1060 H 0.884100 -0.137500 -0.081000
H1061 H 0.913400 0.123900 -0.139100
H1062 H 0.873300 0.125700 -0.003500
C1063 C 0.255380 0.221240 1.342920
C1064 C 0.633020 1.090580 0.902990
C1065 C 0.846400 0.802430 1.172320
C1066 C 1.097830 -0.070140 0.112450
C1067 C 1.123450 -0.068770 0.039310
C1068 C 1.093640 0.017100 0.143300
C1069 C 0.501930 1.023400 0.763030
C1070 C 1.116940 1.070610 1.082560
C1071 C 1.137980 1.019930 1.018870
C1072 C 0.899630 0.780800 1.118930
C1073 C 1.137980 0.019930 0.018870
C1074 C 1.116940 0.070610 0.082560
C1075 C 0.818220 0.353450 0.900570
C1076 C 0.846400 -0.197570 0.172320
C1077 C 0.862020 -0.019930 -0.018870
C1078 C 0.899630 -0.219200 0.118930
C1079 C 0.883060 -0.070610 -0.082560
C1080 C 0.906360 -0.017100 -0.143300
C1081 C 0.876550 0.068770 -0.039310
C1082 C 0.787910 -0.277940 0.167900
C1083 C 0.902170 0.070140 -0.112450
C1084 C 1.366980 -0.090580 0.097010
C1085 C 1.498070 -0.023400 0.236970
C1086 C 0.733530 -0.093990 0.180040
C1087 C 1.428390 -0.009380 0.133730
C1088 C 0.788550 -0.080670 0.285560
C1089 C 1.470240 0.171130 0.077110
C1090 C 1.363820 0.227210 0.136570
C1091 C 1.425200 0.150600 0.139580
C1092 C 0.677460 -0.011920 0.134360
C1093 C 1.322540 0.011920 -0.134360
C1094 C 1.211450 0.080670 -0.285560
C1095 C 1.266470 0.093990 -0.180040
C1096 C 1.212090 0.277940 -0.167900
C1097 C 1.100370 0.219200 -0.118930
C1098 C 1.153600 0.197570 -0.172320
C1099 C 1.318220 0.146550 0.400570
C1100 C 1.139920 -0.179470 -0.200470
C1101 C 1.255380 0.221240 0.342920
C1102 C 1.005150 -0.226770 -0.179230
C1103 C 1.031160 -0.190860 -0.250510
C1104 C 0.950440 0.008580 -0.402730
C1105 C 1.417500 0.160420 0.412740
C1106 C 0.920100 -0.145100 -0.460440
C1107 C 0.982510 -0.085030 -0.378400
C1108 C 0.658580 0.019210 -0.507790
C1109 C 1.328360 -0.013670 0.408210
C1110 C 0.717530 0.096880 -0.355750
C1111 C 1.282470 -0.096880 0.355750
C1112 C 0.671640 0.013670 -0.408210
C1113 C 0.582500 -0.160420 -0.412740
C1114 C 0.744620 -0.221240 -0.342920
C1115 C 1.341420 -0.019210 0.507790
C1116 C 0.681780 -0.146550 -0.400570
C1117 C 1.093640 1.017100 1.143300
C1118 C 1.123450 0.931230 1.039310
C1119 C 1.017490 0.085030 0.378400
C1120 C 1.097830 0.929860 1.112450
C1121 C 1.079900 0.145100 0.460440
C1122 C 0.177460 0.511920 0.634360
C1123 C 0.571610 1.009380 0.866270
C1124 C 0.288550 0.580670 0.785560
C1125 C 1.049560 -0.008580 0.402730
C1126 C 0.917500 0.339580 0.912740
C1127 C 0.181780 0.646550 0.099430
C1128 C 0.529760 0.828870 0.922890
C1129 C 0.968840 0.190860 0.250510
C1130 C -0.366980 1.090580 0.902990
C1131 C 0.994850 0.226770 0.179230
C1132 C -0.498070 1.023400 0.763030
C1133 C -0.428390 1.009380 0.866270
C1134 C -0.470240 0.828870 0.922890
C1135 C 0.860080 0.179470 0.200470
C1136 C -0.363820 0.772790 0.863430
C1137 C -0.425200 0.849400 0.860420
C1138 C -0.139920 1.179470 1.200470
C1139 C 0.574800 -0.150600 -0.139580
C1140 C -0.005150 1.226770 1.179230
C1141 C 0.636180 -0.227210 -0.136570
C1142 C -0.031160 1.190860 1.250510
C1143 C 0.049560 0.991420 1.402730
C1144 C 0.079900 1.145100 1.460440
C1145 C 0.529760 -0.171130 -0.077110
C1146 C 0.017490 1.085030 1.378400
C1147 C 0.341420 0.980790 1.507790
C1148 C 0.282470 0.903120 1.355750
C1149 C 0.571610 0.009380 -0.133730
C1150 C 0.328360 0.986330 1.408210
C1151 C 0.501930 0.023400 -0.236970
C1152 C 0.417500 1.160420 1.412740
C1153 C 0.255380 1.221240 1.342920
C1154 C 0.318220 1.146550 1.400570
C1155 C 0.633020 0.090580 -0.097010
C1156 C -0.322540 0.988080 1.134360
C1157 C -0.211450 0.919330 1.285560
C1158 C -0.266470 0.906010 1.180040
C1159 C 0.244620 0.721240 0.157080
C1160 C 0.082500 0.660420 0.087260
C1161 C 0.171640 0.486330 0.091790
C1162 C 0.636180 0.772790 0.863430
C1163 C 0.217530 0.403120 0.144250
C1164 C 0.828360 0.513670 0.908210
C1165 C 0.782470 0.596880 0.855750
C1166 C 0.862020 0.980070 0.981130
C1167 C 0.883060 0.929390 0.917440
C1168 C 0.681780 -0.146550 0.599430
C1169 C -0.212090 0.722060 1.167900
C1170 C 0.744620 -0.221240 0.657080
C1171 C -0.100370 0.780800 1.118930
C1172 C -0.153600 0.802430 1.172320
C1173 C 0.906360 0.982900 0.856700
C1174 C 0.582500 -0.160420 0.587260
C1175 C 0.116940 1.070610 1.082560
C1176 C 0.137980 1.019930 1.018870
C1177 C 0.574800 0.849400 0.860420
C1178 C 0.671640 0.013670 0.591790
C1179 C 0.876550 1.068770 0.960690
C1180 C 0.717530 0.096880 0.644250
C1181 C 0.902170 1.070140 0.887550
C1182 C 0.158580 0.480790 -0.007790
C1183 C 0.093640 1.017100 1.143300
C1184 C 0.658580 0.019210 0.492210
C1185 C 0.123450 0.931230 1.039310
C1186 C 0.097830 0.929860 1.112450
C1187 C 0.482510 0.585030 0.121600
C1188 C 0.982510 -0.085030 0.621600
C1189 C 0.420100 0.645100 0.039560
C1190 C 0.920100 -0.145100 0.539560
C1191 C 0.841420 0.519210 1.007790
C1192 C -0.137980 0.980070 0.981130
C1193 C -0.116940 0.929390 0.917440
C1194 C 0.950440 0.008580 0.597270
C1195 C -0.093640 0.982900 0.856700
C1196 C -0.123450 1.068770 0.960690
C1197 C -0.097830 1.070140 0.887550
C1198 C 1.031160 -0.190860 0.749490
C1199 C 0.366980 0.909420 1.097010
C1200 C 1.005150 -0.226770 0.820770
C1201 C 0.498070 0.976600 1.236970
C1202 C 0.428390 0.990620 1.133730
C1203 C 0.470240 1.171130 1.077110
C1204 C 1.139920 -0.179470 0.799530
C1205 C 0.363820 1.227210 1.136570
C1206 C 0.425200 1.150600 1.139580
C1207 C 0.322540 1.011920 0.865640
C1208 C 1.153600 0.197570 0.827680
C1209 C 0.211450 1.080670 0.714440
C1210 C 1.100370 0.219200 0.881070
C1211 C 0.266470 1.093990 0.819960
C1212 C 0.212090 1.277940 0.832100
C1213 C 0.100370 1.219200 0.881070
C1214 C 1.212090 0.277940 0.832100
C1215 C 0.153600 1.197570 0.827680
C1216 C 0.139920 0.820530 0.799530
C1217 C 0.005150 0.773230 0.820770
C1218 C 1.266470 0.093990 0.819960
C1219 C 0.031160 0.809140 0.749490
C1220 C 1.211450 0.080670 0.714440
C1221 C -0.049560 1.008580 0.597270
C1222 C -0.079900 0.854900 0.539560
C1223 C -0.017490 0.914970 0.621600
C1224 C 1.322540 0.011920 0.865640
C1225 C -0.341420 1.019210 0.492210
C1226 C -0.282470 1.096880 0.644250
C1227 C -0.328360 1.013670 0.591790
C1228 C 1.425200 0.150600 1.139580
C1229 C -0.417500 0.839580 0.587260
C1230 C 1.363820 0.227210 1.136570
C1231 C -0.255380 0.778760 0.657080
C1232 C -0.318220 0.853450 0.599430
C1233 C 0.517490 0.414970 0.878400
C1234 C 1.470240 0.171130 1.077110
C1235 C 0.579900 0.354900 0.960440
C1236 C 1.366980 0.909420 1.097010
C1237 C 0.549560 0.508580 0.902730
C1238 C 1.428390 -0.009380 1.133730
C1239 C 0.860080 1.179470 1.200470
C1240 C 1.498070 -0.023400 1.236970
C1241 C 0.450440 0.491420 0.097270
C1242 C 0.531160 0.690860 0.249490
C1243 C 0.505150 0.726770 0.320770
C1244 C 1.366980 -0.090580 1.097010
C1245 C 0.994850 1.226770 1.179230
C1246 C -0.366980 1.090580 -0.097010
C1247 C -0.498070 1.023400 -0.236970
C1248 C 0.902170 0.070140 0.887550
C1249 C 0.876550 0.068770 0.960690
C1250 C 0.906360 -0.017100 0.856700
C1251 C 0.883060 -0.070610 0.917440
C1252 C 0.862020 -0.019930 0.981130
C1253 C -0.428390 1.009380 -0.133730
C1254 C -0.470240 0.828870 -0.077110
C1255 C -0.363820 0.772790 -0.136570
C1256 C 0.468840 0.309140 0.750510
C1257 C 0.639920 0.679470 0.299530
C1258 C 0.968840 1.190860 1.250510
C1259 C 1.097830 -0.070140 1.112450
C1260 C 1.123450 -0.068770 1.039310
C1261 C 1.093640 0.017100 1.143300
C1262 C 0.653600 0.302430 0.327680
C1263 C 0.494850 0.273230 0.679230
C1264 C 1.498070 0.976600 1.236970
C1265 C 0.600370 0.280800 0.381070
C1266 C 1.137980 0.019930 1.018870
C1267 C 1.116940 0.070610 1.082560
C1268 C 0.360080 0.320530 0.700470
C1269 C 0.846400 -0.197570 1.172320
C1270 C -0.425200 0.849400 -0.139580
C1271 C 0.899630 -0.219200 1.118930
C1272 C -0.139920 1.179470 0.200470
C1273 C -0.005150 1.226770 0.179230
C1274 C -0.031160 1.190860 0.250510
C1275 C 0.787910 -0.277940 1.167900
C1276 C 0.049560 0.991420 0.402730
C1277 C 0.079900 1.145100 0.460440
C1278 C 0.017490 1.085030 0.378400
C1279 C 0.733530 -0.093990 1.180040
C1280 C 0.341420 0.980790 0.507790
C1281 C 0.788550 -0.080670 1.285560
C1282 C 0.282470 0.903120 0.355750
C1283 C 0.328360 0.986330 0.408210
C1284 C 0.417500 1.160420 0.412740
C1285 C 0.677460 -0.011920 1.134360
C1286 C 0.255380 1.221240 0.342920
C1287 C 0.318220 1.146550 0.400570
C1288 C -0.322540 0.988080 0.134360
C1289 C -0.211450 0.919330 0.285560
C1290 C -0.266470 0.906010 0.180040
C1291 C -0.212090 0.722060 0.167900
C1292 C 1.318220 0.146550 1.400570
C1293 C -0.100370 0.780800 0.118930
C1294 C 1.255380 0.221240 1.342920
C1295 C -0.153600 0.802430 0.172320
C1296 C 1.428390 0.990620 1.133730
C1297 C 0.116940 1.070610 0.082560
C1298 C 1.417500 0.160420 1.412740
C1299 C 0.137980 1.019930 0.018870
C1300 C 0.712090 0.222060 0.332100
C1301 C 0.074800 0.650600 0.360420
C1302 C 1.328360 -0.013670 1.408210
C1303 C 0.136180 0.727210 0.363430
C1304 C 1.282470 -0.096880 1.355750
C1305 C 1.049560 0.991420 1.402730
C1306 C 0.093640 1.017100 0.143300
C1307 C 0.123450 0.931230 0.039310
C1308 C 1.341420 -0.019210 1.507790
C1309 C 0.097830 0.929860 0.112450
C1310 C 0.766470 0.406010 0.319960
C1311 C 0.711450 0.419330 0.214440
C1312 C 1.017490 0.085030 1.378400
C1313 C 0.029760 0.671130 0.422890
C1314 C 1.079900 0.145100 1.460440
C1315 C -0.137980 0.980070 -0.018870
C1316 C -0.116940 0.929390 -0.082560
C1317 C -0.093640 0.982900 -0.143300
C1318 C 1.049560 -0.008580 1.402730
C1319 C -0.123450 1.068770 -0.039310
C1320 C -0.097830 1.070140 -0.112450
C1321 C 0.366980 0.909420 0.097010
C1322 C 0.968840 0.190860 1.250510
C1323 C 0.498070 0.976600 0.236970
C1324 C 0.994850 0.226770 1.179230
C1325 C 0.428390 0.990620 0.133730
C1326 C 0.470240 1.171130 0.077110
C1327 C 0.363820 1.227210 0.136570
C1328 C 0.860080 0.179470 1.200470
C1329 C 0.425200 1.150600 0.139580
C1330 C 0.322540 1.011920 -0.134360
C1331 C 0.211450 1.080670 -0.285560
C1332 C 0.574800 -0.150600 0.860420
C1333 C 0.266470 1.093990 -0.180040
C1334 C 0.636180 -0.227210 0.863430
C1335 C 0.212090 1.277940 -0.167900
C1336 C 0.100370 1.219200 -0.118930
C1337 C 0.153600 1.197570 -0.172320
C1338 C 0.529760 -0.171130 0.922890
C1339 C 0.139920 0.820530 -0.200470
C1340 C 0.005150 0.773230 -0.179230
C1341 C 0.031160 0.809140 -0.250510
C1342 C 0.571610 0.009380 0.866270
C1343 C -0.049560 1.008580 -0.402730
C1344 C 0.501930 0.023400 0.763030
C1345 C -0.079900 0.854900 -0.460440
C1346 C -0.017490 0.914970 -0.378400
C1347 C -0.341420 1.019210 -0.507790
C1348 C 0.633020 0.090580 0.902990
C1349 C -0.282470 1.096880 -0.355750
C1350 C -0.328360 1.013670 -0.408210
C1351 C -0.417500 0.839580 -0.412740
C1352 C 0.822540 0.488080 0.365640
C1353 C 1.079900 1.145100 1.460440
C1354 C 0.925200 0.349400 0.639580
C1355 C 1.017490 1.085030 1.378400
C1356 C 0.863820 0.272790 0.636570
C1357 C 1.470240 1.171130 1.077110
C1358 C 0.071610 0.490620 0.366270
C1359 C 0.001930 0.476600 0.263030
C1360 C 0.755380 0.278760 0.842920
C1361 C 0.681780 0.853450 -0.400570
C1362 C -0.255380 0.778760 -0.342920
C1363 C 0.744620 0.778760 -0.342920
C1364 C -0.318220 0.853450 -0.400570
C1365 C 0.133020 0.409420 0.402990
C1366 C 1.363820 1.227210 1.136570
C1367 C 0.582500 0.839580 -0.412740
C1368 C 0.787910 0.722060 1.167900
C1369 C 1.425200 1.150600 1.139580
C1370 C 0.970240 0.328870 0.577110
C1371 C 0.671640 1.013670 -0.408210
C1372 C 0.928390 0.509380 0.633730
C1373 C 0.717530 1.096880 -0.355750
C1374 C 1.341420 0.980790 1.507790
C1375 C 0.998070 0.523400 0.736970
C1376 C 0.866980 0.590580 0.597010
C1377 C 0.658580 1.019210 -0.507790
C1378 C -0.366980 0.090580 0.902990
C1379 C -0.498070 0.023400 0.763030
C1380 C -0.428390 0.009380 0.866270
C1381 C 0.982510 0.914970 -0.378400
C1382 C -0.470240 -0.171130 0.922890
C1383 C 0.920100 0.854900 -0.460440
C1384 C -0.363820 -0.227210 0.863430
C1385 C -0.425200 -0.150600 0.860420
C1386 C -0.139920 0.179470 1.200470
C1387 C 0.950440 1.008580 -0.402730
C1388 C -0.005150 0.226770 1.179230
C1389 C -0.031160 0.190860 1.250510
C1390 C 0.049560 -0.008580 1.402730
C1391 C 1.031160 0.809140 -0.250510
C1392 C 0.079900 0.145100 1.460440
C1393 C 1.005150 0.773230 -0.179230
C1394 C 0.017490 0.085030 1.378400
C1395 C 0.341420 -0.019210 1.507790
C1396 C 0.282470 -0.096880 1.355750
C1397 C 1.139920 0.820530 -0.200470
C1398 C 0.328360 -0.013670 1.408210
C1399 C 0.417500 0.160420 1.412740
C1400 C 0.233530 0.593990 0.680040
C1401 C 1.153600 1.197570 -0.172320
C1402 C 0.318220 0.146550 1.400570
C1403 C 1.100370 1.219200 -0.118930
C1404 C -0.322540 -0.011920 1.134360
C1405 C -0.211450 -0.080670 1.285560
C1406 C -0.266470 -0.093990 1.180040
C1407 C 1.212090 1.277940 -0.167900
C1408 C -0.212090 -0.277940 1.167900
C1409 C -0.100370 -0.219200 1.118930
C1410 C -0.153600 -0.197570 1.172320
C1411 C 1.266470 1.093990 -0.180040
C1412 C 0.287910 0.777940 0.667900
C1413 C 1.211450 1.080670 -0.285560
C1414 C 0.116940 0.070610 1.082560
C1415 C 0.137980 0.019930 1.018870
C1416 C 0.402170 0.429860 0.387550
C1417 C 1.322540 1.011920 -0.134360
C1418 C 0.399630 0.719200 0.618930
C1419 C 1.322540 1.011920 0.865640
C1420 C 1.282470 0.903120 1.355750
C1421 C 1.425200 1.150600 0.139580
C1422 C 0.093640 0.017100 1.143300
C1423 C 1.363820 1.227210 0.136570
C1424 C 0.123450 -0.068770 1.039310
C1425 C 0.097830 -0.070140 1.112450
C1426 C 0.376550 0.431230 0.460690
C1427 C 1.470240 1.171130 0.077110
C1428 C 1.328360 0.986330 1.408210
C1429 C 0.733530 0.906010 1.180040
C1430 C -0.137980 -0.019930 0.981130
C1431 C 1.428390 0.990620 0.133730
C1432 C -0.116940 -0.070610 0.917440
C1433 C 1.498070 0.976600 0.236970
C1434 C -0.093640 -0.017100 0.856700
C1435 C -0.123450 0.068770 0.960690
C1436 C -0.097830 0.070140 0.887550
C1437 C 1.366980 0.909420 0.097010
C1438 C 0.366980 -0.090580 1.097010
C1439 C 0.498070 -0.023400 1.236970
C1440 C 0.428390 -0.009380 1.133730
C1441 C 0.902170 1.070140 -0.112450
C1442 C 0.876550 1.068770 -0.039310
C1443 C 0.906360 0.982900 -0.143300
C1444 C 0.883060 0.929390 -0.082560
C1445 C 0.862020 0.980070 -0.018870
C1446 C 0.470240 0.171130 1.077110
C1447 C 0.363820 0.227210 1.136570
C1448 C 0.425200 0.150600 1.139580
C1449 C 1.211450 1.080670 0.714440
C1450 C 0.406360 0.517100 0.356700
C1451 C 0.383060 0.570610 0.417440
C1452 C 1.097830 0.929860 0.112450
C1453 C 1.123450 0.931230 0.039310
C1454 C 1.093640 1.017100 0.143300
C1455 C 0.362020 0.519930 0.481130
C1456 C 1.266470 1.093990 0.819960
C1457 C -0.318220 -0.146550 -0.400570
C1458 C 1.417500 1.160420 1.412740
C1459 C 1.137980 1.019930 0.018870
C1460 C 1.116940 1.070610 0.082560
C1461 C -0.255380 -0.221240 -0.342920
C1462 C 0.846400 0.802430 0.172320
C1463 C 0.322540 0.011920 0.865640
C1464 C 0.899630 0.780800 0.118930
C1465 C 0.211450 0.080670 0.714440
C1466 C 0.266470 0.093990 0.819960
C1467 C 0.212090 0.277940 0.832100
C1468 C 0.787910 0.722060 0.167900
C1469 C 0.100370 0.219200 0.881070
C1470 C 0.153600 0.197570 0.827680
C1471 C 0.139920 -0.179470 0.799530
C1472 C 0.733530 0.906010 0.180040
C1473 C 0.005150 -0.226770 0.820770
C1474 C 0.788550 0.919330 0.285560
C1475 C 0.031160 -0.190860 0.749490
C1476 C -0.049560 0.008580 0.597270
C1477 C -0.079900 -0.145100 0.539560
C1478 C 0.677460 0.988080 0.134360
C1479 C -0.017490 -0.085030 0.621600
C1480 C -0.341420 0.019210 0.492210
C1481 C -0.282470 0.096880 0.644250
C1482 C -0.328360 0.013670 0.591790
C1483 C -0.417500 -0.160420 0.587260
C1484 C -0.255380 -0.221240 0.657080
C1485 C 1.318220 1.146550 0.400570
C1486 C -0.318220 -0.146550 0.599430
C1487 C 1.255380 1.221240 0.342920
C1488 C 1.212090 1.277940 0.832100
C1489 C -0.417500 -0.160420 -0.412740
C1490 C -0.328360 0.013670 -0.408210
C1491 C 1.417500 1.160420 0.412740
C1492 C -0.282470 0.096880 -0.355750
C1493 C 1.100370 1.219200 0.881070
C1494 C 1.255380 1.221240 1.342920
C1495 C 1.328360 0.986330 0.408210
C1496 C 0.597830 0.570140 0.612450
C1497 C 1.282470 0.903120 0.355750
C1498 C 1.318220 1.146550 1.400570
C1499 C 0.623450 0.568770 0.539310
C1500 C -0.366980 0.090580 -0.097010
C1501 C 1.341420 0.980790 0.507790
C1502 C -0.498070 0.023400 -0.236970
C1503 C -0.428390 0.009380 -0.133730
C1504 C -0.470240 -0.171130 -0.077110
C1505 C 1.017490 1.085030 0.378400
C1506 C -0.363820 -0.227210 -0.136570
C1507 C 1.079900 1.145100 0.460440
C1508 C -0.425200 -0.150600 -0.139580
C1509 C -0.139920 0.179470 0.200470
C1510 C -0.005150 0.226770 0.179230
C1511 C 1.049560 0.991420 0.402730
C1512 C -0.031160 0.190860 0.250510
C1513 C 0.049560 -0.008580 0.402730
C1514 C 0.079900 0.145100 0.460440
C1515 C 0.968840 1.190860 0.250510
C1516 C 0.017490 0.085030 0.378400
C1517 C 0.994850 1.226770 0.179230
C1518 C 0.341420 -0.019210 0.507790
C1519 C 0.282470 -0.096880 0.355750
C1520 C 0.328360 -0.013670 0.408210
C1521 C 0.860080 1.179470 0.200470
C1522 C 0.417500 0.160420 0.412740
C1523 C 0.255380 0.221240 0.342920
C1524 C 0.318220 0.146550 0.400570
C1525 C 0.574800 0.849400 -0.139580
C1526 C -0.322540 -0.011920 0.134360
C1527 C 0.636180 0.772790 -0.136570
C1528 C -0.211450 -0.080670 0.285560
C1529 C -0.266470 -0.093990 0.180040
C1530 C -0.212090 -0.277940 0.167900
C1531 C 0.529760 0.828870 -0.077110
C1532 C -0.100370 -0.219200 0.118930
C1533 C -0.153600 -0.197570 0.172320
C1534 C -0.341420 0.019210 -0.507790
C1535 C 0.571610 1.009380 -0.133730
C1536 C 0.116940 0.070610 0.082560
C1537 C 0.501930 1.023400 -0.236970
C1538 C 0.137980 0.019930 0.018870
C1539 C 0.593640 0.482900 0.643300
C1540 C 1.153600 1.197570 0.827680
C1541 C 0.633020 1.090580 -0.097010
C1542 C -0.017490 -0.085030 -0.378400
C1543 C -0.079900 -0.145100 -0.460440
C1544 C 0.093640 0.017100 0.143300
C1545 C -0.049560 0.008580 -0.402730
C1546 C 0.677460 0.988080 1.134360
C1547 C 0.637980 0.480070 0.518870
C1548 C 0.616940 0.429390 0.582560
C1549 C 1.139920 0.820530 0.799530
C1550 C 0.031160 -0.190860 -0.250510
C1551 C 0.005150 -0.226770 -0.179230
C1552 C 0.139920 -0.179470 -0.200470
C1553 C 1.005150 0.773230 0.820770
C1554 C 0.681780 0.853450 0.599430
C1555 C 0.123450 -0.068770 0.039310
C1556 C 0.744620 0.778760 0.657080
C1557 C 0.097830 -0.070140 0.112450
C1558 C 0.788550 0.919330 1.285560
C1559 C 0.346400 0.697570 0.672320
C1560 C 0.582500 0.839580 0.587260
C1561 C 0.153600 0.197570 -0.172320
C1562 C -0.137980 -0.019930 -0.018870
C1563 C -0.116940 -0.070610 -0.082560
C1564 C 0.671640 1.013670 0.591790
C1565 C -0.093640 -0.017100 -0.143300
C1566 C 0.717530 1.096880 0.644250
C1567 C -0.123450 0.068770 -0.039310
C1568 C -0.097830 0.070140 -0.112450
C1569 C 0.366980 -0.090580 0.097010
C1570 C 0.658580 1.019210 0.492210
C1571 C 0.498070 -0.023400 0.236970
C1572 C 0.428390 -0.009380 0.133730
C1573 C 0.470240 0.171130 0.077110
C1574 C 0.982510 0.914970 0.621600
C1575 C 0.363820 0.227210 0.136570
C1576 C 0.920100 0.854900 0.539560
C1577 C 0.425200 0.150600 0.139580
C1578 C 0.322540 0.011920 -0.134360
C1579 C 0.211450 0.080670 -0.285560
C1580 C 0.950440 1.008580 0.597270
C1581 C 0.266470 0.093990 -0.180040
C1582 C 0.212090 0.277940 -0.167900
C1583 C 0.100370 0.219200 -0.118930
C1584 C 1.031160 0.809140 0.749490
N1585 N -0.369470 -0.069190 -0.115300
N1586 N 1.369470 1.069190 1.115300
N1587 N 1.206790 1.115820 0.862900
N1588 N 0.981580 0.892170 0.708510
N1589 N 0.725210 0.936750 0.644950
N1590 N 0.293210 0.615820 0.637100
N1591 N 0.774790 0.436750 0.855050
N1592 N 0.518420 0.392170 0.791490
N1593 N 0.018420 0.107830 0.291490
N1594 N 0.274790 0.063250 0.355050
N1595 N -0.206790 -0.115820 0.137100
N1596 N 0.130530 0.569190 0.384700
N1597 N -0.274790 -0.063250 0.644950
N1598 N -0.018420 -0.107830 0.708510
N1599 N 0.206790 0.115820 0.862900
N1600 N 0.369470 0.069190 1.115300
N1601 N 0.793210 0.884180 0.137100
N1602 N 1.274790 1.063250 0.355050
N1603 N 0.369470 0.069190 0.115300
N1604 N 1.018420 1.107830 0.291490
N1605 N 0.206790 0.115820 -0.137100
N1606 N 0.630530 0.930810 -0.115300
N1607 N -0.018420 -0.107830 -0.291490
N1608 N -0.274790 -0.063250 -0.355050
N1609 N -0.369470 -0.069190 0.884700
N1610 N 0.018420 0.107830 1.291490
N1611 N 0.274790 0.063250 1.355050
N1612 N -0.206790 -0.115820 1.137100
N1613 N 0.630530 -0.069190 -0.115300
N1614 N -0.274790 0.936750 -0.355050
N1615 N -0.018420 0.892170 -0.291490
N1616 N 0.206790 1.115820 -0.137100
N1617 N 0.369470 1.069190 0.115300
N1618 N 1.206790 1.115820 -0.137100
N1619 N 0.981580 0.892170 -0.291490
N1620 N 0.725210 0.936750 -0.355050
N1621 N -0.369470 0.930810 -0.115300
N1622 N 0.018420 1.107830 0.291490
N1623 N 0.274790 1.063250 0.355050
N1624 N -0.206790 0.884180 0.137100
N1625 N 0.793210 -0.115820 1.137100
N1626 N 1.274790 0.063250 1.355050
N1627 N 1.018420 0.107830 1.291490
N1628 N 0.630530 -0.069190 0.884700
N1629 N -0.274790 0.936750 0.644950
N1630 N -0.018420 0.892170 0.708510
N1631 N 0.206790 1.115820 0.862900
N1632 N 0.369470 1.069190 1.115300
N1633 N -0.369470 0.930810 0.884700
N1634 N 0.018420 1.107830 1.291490
N1635 N 0.274790 1.063250 1.355050
N1636 N -0.206790 0.884180 1.137100
N1637 N 1.369470 0.069190 1.115300
N1638 N 1.206790 0.115820 0.862900
N1639 N 0.981580 -0.107830 0.708510
N1640 N 0.725210 -0.063250 0.644950
N1641 N 0.869470 0.430810 0.615300
N1642 N 0.630530 0.930810 0.884700
N1643 N 0.706790 0.384180 0.362900
N1644 N 0.725210 -0.063250 -0.355050
N1645 N 0.981580 -0.107830 -0.291490
N1646 N 1.206790 0.115820 -0.137100
N1647 N 1.369470 0.069190 0.115300
N1648 N 0.793210 -0.115820 0.137100
N1649 N 1.018420 1.107830 1.291490
N1650 N 1.274790 1.063250 1.355050
N1651 N 0.481580 0.607830 0.208510
N1652 N 1.274790 0.063250 0.355050
N1653 N 1.018420 0.107830 0.291490
N1654 N 0.793210 0.884180 1.137100
N1655 N 0.225210 0.563250 0.144950
N1656 N 1.369470 1.069190 0.115300
Na1657 Na 1.289410 1.040020 1.209740
Na1658 Na 0.566070 0.496510 0.337140
Na1659 Na 0.933930 0.996510 1.162860
Na1660 Na 0.210590 0.540020 0.290260
Na1661 Na 0.933930 -0.003490 0.162860
Na1662 Na 1.289410 0.040020 0.209740
Na1663 Na 0.710590 -0.040020 -0.209740
Na1664 Na 0.066070 0.003490 -0.162860
Na1665 Na -0.289410 -0.040020 -0.209740
Na1666 Na 1.066070 0.003490 -0.162860
Na1667 Na -0.066070 -0.003490 0.162860
Na1668 Na 0.710590 0.959980 0.790260
Na1669 Na 1.066070 1.003490 0.837140
Na1670 Na 1.066070 0.003490 0.837140
Na1671 Na 0.710590 -0.040020 0.790260
Na1672 Na 0.789410 0.459980 0.709740
Na1673 Na 0.289410 1.040020 1.209740
Na1674 Na -0.066070 0.996510 1.162860
Na1675 Na -0.289410 0.959980 0.790260
Na1676 Na 0.289410 0.040020 0.209740
Na1677 Na 0.066070 1.003490 0.837140
Na1678 Na 0.933930 -0.003490 1.162860
Na1679 Na 1.289410 0.040020 1.209740
Na1680 Na 0.066070 0.003490 0.837140
Na1681 Na 0.433930 0.503490 0.662860
Na1682 Na 0.289410 1.040020 0.209740
Na1683 Na -0.289410 -0.040020 0.790260
Na1684 Na 1.289410 1.040020 0.209740
Na1685 Na -0.066070 0.996510 0.162860
Na1686 Na 0.933930 0.996510 0.162860
Na1687 Na 1.066070 1.003490 -0.162860
Na1688 Na 0.710590 0.959980 -0.209740
Na1689 Na -0.066070 -0.003490 1.162860
Na1690 Na -0.289410 0.959980 -0.209740
Na1691 Na 0.289410 0.040020 1.209740
Na1692 Na 0.066070 1.003490 -0.162860
Mg1693 Mg -0.131870 0.929850 -0.278820
Mg1694 Mg 0.246810 1.075340 -0.006990
Mg1695 Mg 0.368130 0.570150 0.221180
Mg1696 Mg 0.131870 0.070150 1.278820
Mg1697 Mg -0.246810 -0.075340 1.006990
Mg1698 Mg 0.753190 0.924660 0.006990
Mg1699 Mg 1.246810 1.075340 -0.006990
Mg1700 Mg 0.868130 0.929850 -0.278820
Mg1701 Mg 0.746810 0.424660 0.493010
Mg1702 Mg -0.246810 0.924660 0.006990
Mg1703 Mg 1.131870 1.070150 0.278820
Mg1704 Mg 0.131870 1.070150 0.278820
Mg1705 Mg 0.253190 0.575340 0.506990
Mg1706 Mg 0.246810 0.075340 0.993010
Mg1707 Mg 1.131870 0.070150 1.278820
Mg1708 Mg -0.131870 -0.070150 0.721180
Mg1709 Mg 0.753190 -0.075340 1.006990
Mg1710 Mg 0.753190 -0.075340 0.006990
Mg1711 Mg -0.131870 0.929850 0.721180
Mg1712 Mg 0.246810 1.075340 0.993010
Mg1713 Mg 1.131870 1.070150 1.278820
Mg1714 Mg 0.631870 0.429850 0.778820
Mg1715 Mg -0.246810 0.924660 1.006990
Mg1716 Mg 0.131870 0.070150 0.278820
Mg1717 Mg 0.131870 1.070150 1.278820
Mg1718 Mg 0.753190 0.924660 1.006990
Mg1719 Mg 0.868130 0.929850 0.721180
Mg1720 Mg 1.246810 1.075340 0.993010
Mg1721 Mg 1.246810 0.075340 0.993010
Mg1722 Mg 0.868130 -0.070150 0.721180
Mg1723 Mg 1.131870 0.070150 0.278820
Mg1724 Mg -0.131870 -0.070150 -0.278820
Mg1725 Mg 0.868130 -0.070150 -0.278820
Mg1726 Mg 1.246810 0.075340 -0.006990
Mg1727 Mg -0.246810 -0.075340 0.006990
Mg1728 Mg 0.246810 0.075340 -0.006990
Fe1729 Fe 1.000000 0.000000 0.000000
Fe1730 Fe 1.000000 0.000000 1.000000
Fe1731 Fe 0.000000 0.000000 0.000000
Fe1732 Fe 1.000000 1.000000 1.000000
Fe1733 Fe 0.000000 0.000000 1.000000
Fe1734 Fe 0.000000 1.000000 1.000000
Fe1735 Fe 1.000000 1.000000 0.000000
Fe1736 Fe 0.000000 1.000000 0.000000
Fe1737 Fe 0.500000 0.500000 0.500000

#END
