./ACOPIT_from_POSCAR.cif_generated_by_CrystalShift
_symmetry_cell_setting triclinic
_symmetry_space_group_name_H-M 'P 1'
loop_
_symmetry_equiv_pos_site_id
_symmetry_equiv_pos_as_xyz
1 x,y,z
_cell_length_a 11.886900
_cell_length_b 11.886900
_cell_length_c 12.600600
_cell_angle_alpha 90.000000
_cell_angle_beta 90.000000
_cell_angle_gamma 90.000000
_cell_volume 1780.444513
loop_
_atom_site_label
_atom_site_type_symbol
_atom_site_fract_x
_atom_site_fract_y
_atom_site_fract_z
H1 H 0.686900 0.035600 1.148700
H2 H 0.877200 0.082600 1.141100
H3 H 0.953900 0.146900 0.985000
H4 H 0.984100 0.476300 0.580100
H5 H 0.842900 0.170200 0.836000
H6 H 0.654000 0.120600 0.841900
H7 H 0.497500 0.227600 1.140000
H8 H 1.263400 0.179500 0.623700
H9 H 0.418700 0.406500 1.139600
H10 H 1.415300 0.295100 0.591700
H11 H 0.317800 0.468000 0.993100
H12 H 1.391400 0.488700 0.587400
H13 H 0.296100 0.352800 0.847700
H14 H 0.372400 0.172300 0.847600
H15 H 1.163900 0.632700 0.541000
H16 H 1.278900 0.652000 0.599100
H17 H 1.167600 0.641800 0.665100
H18 H 0.239300 -0.016300 0.974800
H19 H 1.072400 0.147400 0.653000
H20 H 0.991300 0.236600 0.602700
H21 H 1.016300 0.239300 0.724800
H22 H 0.236600 0.008700 0.852700
H23 H 0.147400 -0.072400 0.903000
H24 H 0.827700 0.372400 0.597600
H25 H 0.641800 -0.167600 0.915100
H26 H 0.647200 0.296100 0.597700
H27 H 0.652000 -0.278900 0.849100
H28 H 0.532000 0.317800 0.743100
H29 H 0.632700 -0.163900 0.791000
H30 H 0.593500 0.418700 0.889600
H31 H 0.488700 -0.391400 0.837400
H32 H 0.772400 0.497500 0.890000
H33 H 0.295100 -0.415300 0.841700
H34 H 0.179500 -0.263400 0.873700
H35 H 0.879400 0.654000 0.591900
H36 H 0.476300 0.015900 0.830100
H37 H 0.829800 0.842900 0.586000
H38 H 0.035600 0.313100 0.398700
H39 H 0.853100 0.953900 0.735000
H40 H 0.082600 0.122800 0.391100
H41 H 0.917400 0.877200 0.891100
H42 H 0.146900 0.046100 0.235000
H43 H 0.964400 0.686900 0.898700
H44 H 0.170200 0.157100 0.086000
H45 H 0.120600 0.346000 0.091900
H46 H 0.227600 0.502500 0.390000
H47 H 0.523700 0.984100 0.330100
H48 H 0.406500 0.581300 0.389600
H49 H 0.468000 0.682200 0.243100
H50 H 0.352800 0.703900 0.097700
H51 H 0.820500 1.263400 0.373700
H52 H 0.172300 0.627600 0.097600
H53 H 0.704900 1.415300 0.341700
H54 H -0.016300 0.760700 0.224800
H55 H 0.511300 1.391400 0.337400
H56 H 0.008700 0.763400 0.102700
H57 H -0.072400 0.852600 0.153000
H58 H 0.367300 1.163900 0.291000
H59 H 0.348000 1.278900 0.349100
H60 H 0.358200 1.167600 0.415100
H61 H -0.167600 0.358200 0.165100
H62 H 0.852600 1.072400 0.403000
H63 H 0.763400 0.991300 0.352700
H64 H 0.760700 1.016300 0.474800
H65 H -0.278900 0.348000 0.099100
H66 H -0.163900 0.367300 0.041000
H67 H 0.627600 0.827700 0.347600
H68 H -0.391400 0.511300 0.087400
H69 H 0.703900 0.647200 0.347700
H70 H -0.415300 0.704900 0.091700
H71 H 0.682200 0.532000 0.493100
H72 H -0.263400 0.820500 0.123700
H73 H 0.581300 0.593500 0.639600
H74 H 0.015900 0.523700 0.080100
H75 H 0.502500 0.772400 0.640000
H76 H 0.313100 0.964400 0.648700
H77 H 0.122800 0.917400 0.641100
H78 H 0.346000 0.879400 0.341900
H79 H 0.046100 0.853100 0.485000
H80 H 0.157100 0.829800 0.336000
C81 C 0.122200 0.871000 0.487900
C82 C 0.188200 0.858000 0.398300
C83 C 0.167700 0.910000 0.581100
C84 C 0.301400 0.887200 0.402100
C85 C 0.281900 0.938600 0.585600
C86 C 0.348000 0.928300 0.495900
C87 C 0.832300 0.090000 1.081100
C88 C 0.877800 0.129000 0.987900
C89 C 1.131900 0.418100 0.629600
C90 C 0.543800 0.747900 0.581800
C91 C -0.131900 0.581900 0.129600
C92 C -0.145900 0.698900 0.136500
C93 C -0.253000 0.743000 0.121200
C94 C 0.590400 0.640600 0.581200
C95 C -0.344300 0.673900 0.102100
C96 C 0.650800 0.603700 0.493300
C97 C -0.329500 0.557700 0.098500
C98 C 0.664200 0.672800 0.406500
C99 C -0.223800 0.510400 0.111100
C100 C -0.207000 0.384500 0.103300
C101 C 0.618500 0.781100 0.406300
C102 C 0.559300 0.818800 0.494400
C103 C 0.775800 1.047600 0.406000
C104 C -0.047600 0.775800 0.156000
C105 C 0.384500 1.207000 0.353300
C106 C 0.510400 1.223800 0.361100
C107 C 0.557700 1.329500 0.348500
C108 C 0.181200 0.559300 0.244400
C109 C 0.218900 0.618500 0.156300
C110 C 0.673900 1.344300 0.352100
C111 C 0.327200 0.664200 0.156500
C112 C 0.743000 1.253000 0.371200
C113 C 0.396300 0.650800 0.243300
C114 C 0.698900 1.145900 0.386500
C115 C 0.359400 0.590400 0.331200
C116 C 0.581900 1.131900 0.379600
C117 C 0.252100 0.543800 0.331800
C118 C 0.811800 0.142000 0.898300
C119 C 0.071700 0.348000 0.245900
C120 C 0.112800 0.301400 0.152100
C121 C 1.145900 0.301100 0.636500
C122 C 0.142000 0.188200 0.148300
C123 C 0.698600 0.112800 0.902100
C124 C 0.129000 0.122200 0.237900
C125 C 0.938600 0.718100 0.835600
C126 C 0.090000 0.167700 0.331100
C127 C 0.910000 0.832300 0.831100
C128 C 0.061400 0.281900 0.335600
C129 C 0.871000 0.877800 0.737900
C130 C 0.652000 0.071700 0.995900
C131 C 1.253000 0.257000 0.621200
C132 C 0.456200 0.252100 1.081800
C133 C 0.858000 0.811800 0.648300
C134 C 0.418100 -0.131900 0.879600
C135 C 0.301100 -0.145900 0.886500
C136 C 0.257000 -0.253000 0.871200
C137 C 0.887200 0.698600 0.652100
C138 C 0.326100 -0.344300 0.852100
C139 C 0.928300 0.652000 0.745900
C140 C 0.442300 -0.329500 0.848500
C141 C 0.747900 0.456200 0.831800
C142 C 0.489600 -0.223800 0.861100
C143 C 0.615500 -0.207000 0.853300
C144 C 0.640600 0.409600 0.831200
C145 C 0.603700 0.349200 0.743300
C146 C 0.672800 0.335800 0.656500
C147 C 0.224200 -0.047600 0.906000
C148 C 0.781100 0.381500 0.656300
C149 C 0.818800 0.440700 0.744400
C150 C 1.047600 0.224200 0.656000
C151 C 0.440700 0.181200 0.994400
C152 C 0.381500 0.218900 0.906300
C153 C 1.207000 0.615500 0.603300
C154 C 0.335800 0.327200 0.906500
C155 C 1.223800 0.489600 0.611100
C156 C 0.349200 0.396300 0.993300
C157 C 1.329500 0.442300 0.598500
C158 C 0.409600 0.359400 1.081200
C159 C 1.344300 0.326100 0.602100
C160 C 0.718100 0.061400 1.085600
N161 N 1.020800 0.465700 0.638100
N162 N -0.020800 0.534300 0.138100
N163 N 0.534300 1.020800 0.388100
N164 N 0.465700 -0.020800 0.888100
P165 P 0.958180 0.501700 0.750480
P166 P 0.041820 0.498300 0.250480
P167 P 0.501700 0.041820 1.000480
P168 P 0.498300 0.958180 0.500480
Se169 Se -0.052850 0.549640 0.382780
Se170 Se 0.450360 -0.052850 1.132780
Se171 Se 0.549640 1.052850 0.632780
Se172 Se 1.052850 0.450360 0.882780

#END
