./ACOQOA_from_POSCAR.cif_generated_by_CrystalShift
_symmetry_cell_setting triclinic
_symmetry_space_group_name_H-M 'P 1'
loop_
_symmetry_equiv_pos_site_id
_symmetry_equiv_pos_as_xyz
1 x,y,z
_cell_length_a 17.022000
_cell_length_b 27.254000
_cell_length_c 26.995000
_cell_angle_alpha 90.000000
_cell_angle_beta 93.550000
_cell_angle_gamma 90.000000
_cell_volume 12499.424574
loop_
_atom_site_label
_atom_site_type_symbol
_atom_site_fract_x
_atom_site_fract_y
_atom_site_fract_z
H1 H 0.545400 0.773900 0.607900
H2 H 0.328100 0.955400 0.542600
H3 H 0.264300 0.934600 0.882400
H4 H -0.056300 0.879200 0.627700
H5 H 0.039900 0.764800 0.695400
H6 H 0.165300 0.691300 0.696200
H7 H 0.039000 0.957600 0.630400
H8 H 0.151500 0.656700 0.776300
H9 H 0.680000 0.784500 0.605500
H10 H 0.431800 1.000900 0.509000
H11 H 0.335700 0.916000 0.958200
H12 H -0.178300 0.840600 0.634300
H13 H -0.017200 0.685100 0.695800
H14 H 0.021800 1.005300 0.557600
H15 H -0.189200 0.756700 0.616600
H16 H 0.729000 0.853400 0.566800
H17 H 0.517400 1.047000 0.562900
H18 H 0.037800 0.515300 0.403900
H19 H -0.024800 0.477900 0.424600
H20 H -0.011700 0.530500 0.450100
H21 H -0.078900 0.660500 0.767900
H22 H 0.168600 0.554600 0.049800
H23 H 0.117000 0.530700 0.004500
H24 H 0.096700 0.584600 0.023500
H25 H 0.445000 0.864600 0.957900
H26 H 0.032500 0.796100 0.015000
H27 H 0.032400 0.842800 -0.020900
H28 H -0.003200 0.847100 0.032500
H29 H 0.216400 0.692800 0.845200
H30 H 0.357500 0.758800 0.052100
H31 H 0.359000 0.807300 0.018800
H32 H 0.395600 0.757300 -0.000600
H33 H 0.008300 1.090500 0.563400
H34 H -0.166100 0.558000 0.142200
H35 H -0.248400 0.575400 0.161900
H36 H -0.245700 0.530500 0.123900
H37 H 0.500200 1.048800 0.646500
H38 H 0.230800 0.459100 -0.004900
H39 H 0.138600 0.449700 -0.001000
H40 H 0.193900 0.406500 -0.018800
H41 H 0.644100 0.910600 0.529900
H42 H 0.418900 0.454500 0.386700
H43 H 0.388900 0.422800 0.339400
H44 H 0.337600 0.468100 0.356900
H45 H 0.477900 0.825700 0.885600
H46 H 0.004000 1.128200 0.639200
H47 H -0.091600 0.713600 0.831600
H48 H 0.292900 0.763200 0.837000
H49 H -0.080500 0.711100 0.593900
H50 H 0.406100 0.842000 0.810900
H51 H 0.509400 0.901800 0.535800
H52 H -0.042100 0.793500 0.828400
H53 H 0.296100 0.801300 0.758500
H54 H 0.019000 1.081100 0.712000
H55 H 0.396000 1.007900 0.679700
H56 H 0.040200 0.749300 0.586400
H57 H -0.007400 0.845200 0.510100
H58 H 0.399400 0.855100 0.689300
H59 H 0.478300 0.817100 0.470400
H60 H 0.018200 1.067300 0.828700
H61 H -0.127500 0.836500 0.724400
H62 H 0.367500 0.710800 0.669300
H63 H 0.289300 0.800900 -0.068800
H64 H 0.240600 1.007300 0.750600
H65 H 0.202200 0.342900 0.045000
H66 H 0.532000 0.865600 0.675900
H67 H -0.170500 0.501900 0.414200
H68 H -0.261000 0.846900 0.736100
H69 H 0.142800 0.549700 -0.079400
H70 H 0.465900 0.834100 0.384500
H71 H 0.123200 0.914600 0.000600
H72 H 0.420700 0.633300 0.653600
H73 H -0.322800 0.489600 0.192500
H74 H -0.045600 0.810100 0.431500
H75 H 0.543400 0.458100 0.337600
H76 H -0.085900 1.114900 0.856500
H77 H 0.240700 0.938200 0.037900
H78 H 0.238000 1.090500 0.775000
H79 H 0.228600 0.578800 -0.135900
H80 H 0.359400 0.877500 0.350800
H81 H 0.165400 0.785100 -0.107600
H82 H 0.228800 1.153100 0.718200
H83 H -0.264600 0.539400 0.363800
H84 H -0.207100 1.108000 0.821400
H85 H 0.612700 0.505400 0.283800
H86 H 0.039400 0.759700 0.392900
H87 H -0.303100 0.433900 0.254700
H88 H 0.606200 0.924100 0.718200
H89 H 0.215200 0.320900 0.127100
H90 H -0.302400 0.900800 0.793400
H91 H 0.354800 0.579600 0.600300
H92 H 0.215200 1.179100 0.627100
H93 H -0.303100 1.066100 0.754700
H94 H 0.612700 0.994600 0.783800
H95 H -0.264600 0.960600 0.863800
H96 H 0.165400 0.714900 0.392400
H97 H 0.228600 0.921200 0.364100
H98 H 0.354800 0.920400 0.100300
H99 H 0.240700 0.561800 0.537900
H100 H -0.302400 0.599200 0.293400
H101 H 0.543400 1.041900 0.837600
H102 H 0.606200 0.575900 0.218200
H103 H -0.322800 1.010400 0.692500
H104 H 0.039400 0.740300 -0.107100
H105 H 0.123200 0.585400 0.500600
H106 H -0.207100 0.392000 0.321400
H107 H 0.142800 0.950300 0.420600
H108 H 0.228800 0.346900 0.218200
H109 H -0.170500 0.998100 0.914200
H110 H 0.359400 0.622500 -0.149200
H111 H 0.202200 1.157100 0.545000
H112 H 0.238000 0.409500 0.275000
H113 H 0.289300 0.699100 0.431200
H114 H -0.085900 0.385100 0.356500
H115 H 0.337600 1.031900 0.856900
H116 H -0.045600 0.689900 -0.068500
H117 H 0.388900 1.077200 0.839400
H118 H 0.420700 0.866700 0.153600
H119 H 0.418900 1.045500 0.886700
H120 H 0.465900 0.665900 -0.115500
H121 H 0.193900 1.093500 0.481200
H122 H -0.261000 0.653100 0.236100
H123 H 0.138600 1.050300 0.499000
H124 H 0.532000 0.634400 0.175900
H125 H 0.230800 1.040900 0.495100
H126 H 0.240600 0.492700 0.250600
H127 H -0.245700 0.969500 0.623900
H128 H 0.367500 0.789200 0.169300
H129 H -0.248400 0.924600 0.661900
H130 H -0.127500 0.663500 0.224400
H131 H -0.166100 0.942000 0.642200
H132 H 0.018200 0.432700 0.328700
H133 H 0.395600 0.742700 0.499400
H134 H 0.478300 0.682900 -0.029600
H135 H 0.359000 0.692700 0.518800
H136 H 0.399400 0.644900 0.189300
H137 H 0.357500 0.741200 0.552100
H138 H -0.007400 0.654800 0.010100
H139 H -0.003200 0.652900 0.532500
H140 H 0.032400 0.657200 0.479100
H141 H 0.032500 0.703900 0.515000
H142 H 0.096700 0.915400 0.523500
H143 H 0.117000 0.969300 0.504500
H144 H 0.168600 0.945400 0.549800
H145 H -0.011700 0.969500 0.950100
H146 H -0.024800 1.022100 0.924600
H147 H 0.037800 0.984700 0.903900
H148 H 0.454600 0.273900 0.892100
H149 H 0.671900 0.455400 0.957400
H150 H 0.735700 0.434600 0.617600
H151 H 1.056300 0.379200 0.872300
H152 H 0.960100 0.264800 0.804600
H153 H 0.834700 0.191300 0.803800
H154 H 0.961000 0.457600 0.869600
H155 H 0.848500 0.156700 0.723700
H156 H 0.320000 0.284500 0.894500
H157 H 0.568200 0.500900 0.991000
H158 H 0.664300 0.416000 0.541800
H159 H 1.178300 0.340600 0.865700
H160 H 1.017200 0.185100 0.804200
H161 H 0.978200 0.505300 0.942400
H162 H 1.189200 0.256700 0.883400
H163 H 0.271000 0.353400 0.933200
H164 H 0.482600 0.547000 0.937100
H165 H 1.078900 0.160500 0.732100
H166 H 0.555000 0.364600 0.542100
H167 H 0.783600 0.192800 0.654800
H168 H 0.040200 0.750700 0.086400
H169 H 0.991700 0.590500 0.936600
H170 H 0.396000 0.492100 0.179700
H171 H 0.499800 0.548800 0.853500
H172 H 0.019000 0.418900 0.212000
H173 H 0.355900 0.410600 0.970100
H174 H 0.296100 0.698700 0.258500
H175 H 0.522100 0.325700 0.614400
H176 H -0.042100 0.706500 0.328400
H177 H 0.996000 0.628200 0.860800
H178 H 0.509400 0.598200 0.035800
H179 H 1.091600 0.213600 0.668400
H180 H 0.406100 0.658000 0.310900
H181 H 0.707100 0.263200 0.663000
H182 H -0.080500 0.788900 0.093900
H183 H 1.080500 0.211100 0.906100
H184 H 0.292900 0.736800 0.337000
H185 H 0.593900 0.342000 0.689100
H186 H -0.091600 0.786400 0.331600
H187 H 0.490600 0.401800 0.964200
H188 H 0.004000 0.371800 0.139200
H189 H 1.042100 0.293500 0.671600
H190 H 0.477900 0.674300 0.385600
H191 H 0.703900 0.301300 0.741500
H192 H 0.644100 0.589400 0.029900
H193 H 0.981000 0.581100 0.788000
H194 H 0.500200 0.451200 0.146500
H195 H 0.604000 0.507900 0.820300
H196 H 0.008300 0.409500 0.063400
H197 H 0.959800 0.249300 0.913600
H198 H 0.216400 0.807200 0.345200
H199 H 1.007400 0.345200 0.989900
H200 H 0.445000 0.635400 0.457900
H201 H 0.600600 0.355100 0.810700
H202 H -0.078900 0.839500 0.267900
H203 H 0.521700 0.317100 1.029600
H204 H 0.517400 0.453000 0.062900
H205 H 0.981800 0.567300 0.671300
H206 H 0.729000 0.646600 0.066800
H207 H 1.127500 0.336500 0.775600
H208 H -0.189200 0.743300 0.116600
H209 H 0.632500 0.210800 0.830700
H210 H 0.021800 0.494700 0.057600
H211 H 0.759400 0.507300 0.749400
H212 H -0.017200 0.814900 0.195800
H213 H 0.468000 0.365600 0.824100
H214 H -0.178300 0.659400 0.134300
H215 H 1.261000 0.346900 0.763900
H216 H 0.335700 0.584000 0.458200
H217 H 0.534100 0.334100 1.115500
H218 H 0.431800 0.499100 0.009000
H219 H 0.579300 0.133300 0.846400
H220 H 0.680000 0.715500 0.105500
H221 H 1.045600 0.310100 1.068500
H222 H 0.151500 0.843300 0.276300
H223 H 1.085900 0.614900 0.643500
H224 H 0.039000 0.542400 0.130400
H225 H 0.762000 0.590500 0.725000
H226 H 0.165300 0.808700 0.196200
H227 H 0.640600 0.377500 1.149200
H228 H 0.039900 0.735200 0.195400
H229 H 0.771200 0.653100 0.781800
H230 H -0.056300 0.620800 0.127700
H231 H 1.207100 0.608000 0.678600
H232 H 0.264300 0.565400 0.382400
H233 H 0.960600 0.259700 1.107100
H234 H 0.328100 0.544600 0.042600
H235 H 0.393800 0.424100 0.781800
H236 H 0.545400 0.726100 0.107900
H237 H 1.302400 0.400800 0.706600
H238 H 0.645200 0.079600 0.899700
H239 H 0.784800 0.679100 0.872900
H240 H 1.303100 0.566100 0.745300
H241 H 0.387300 0.494600 0.716200
H242 H 1.264600 0.460600 0.636200
H243 H 0.834600 0.214900 1.107600
H244 H 0.771400 0.421200 1.135900
H245 H 0.759300 0.061800 0.962100
H246 H 0.456600 0.541900 0.662400
H247 H 1.322800 0.510400 0.807500
H248 H 0.876800 0.085400 0.999400
H249 H 0.857200 0.450300 1.079400
H250 H 1.170500 0.498100 0.585800
H251 H 0.797800 0.657100 0.955000
H252 H 0.710700 0.199100 1.068800
H253 H 0.662400 0.531900 0.643100
H254 H 0.962200 0.015300 0.096100
H255 H 1.024800 -0.022100 0.075400
H256 H 1.011700 0.030500 0.049900
H257 H 0.611100 0.577200 0.660600
H258 H 0.831400 0.054600 0.450200
H259 H 0.883000 0.030700 0.495500
H260 H 0.903300 0.084600 0.476500
H261 H 0.581100 0.545500 0.613300
H262 H 0.967500 0.296100 0.485000
H263 H 0.967600 0.342800 0.520900
H264 H 1.003200 0.347100 0.467500
H265 H 0.806100 0.593500 1.018800
H266 H 0.642500 0.258800 0.447900
H267 H 0.641000 0.307300 0.481200
H268 H 0.604400 0.257300 0.500600
H269 H 0.861400 0.550300 1.001000
H270 H 1.166100 0.058000 0.357800
H271 H 1.248400 0.075400 0.338100
H272 H 1.245700 0.030500 0.376100
H273 H 0.769200 0.540900 1.004900
H274 H 0.769200 -0.040900 0.504900
H275 H 0.861400 -0.050300 0.501000
H276 H 0.806100 -0.093500 0.518800
H277 H 1.245700 0.469500 0.876100
H278 H 0.581100 -0.045500 0.113300
H279 H 0.611100 -0.077200 0.160600
H280 H 0.662400 -0.031900 0.143100
H281 H 1.248400 0.424600 0.838100
H282 H 1.166100 0.442000 0.857800
H283 H 0.604400 0.242700 1.000600
H284 H 0.641000 0.192700 0.981200
H285 H 0.642500 0.241200 0.947900
H286 H 1.003200 0.152900 0.967500
H287 H 0.967600 0.157200 1.020900
H288 H 0.967500 0.203900 0.985000
H289 H 0.903300 0.415400 0.976500
H290 H 0.883000 0.469300 0.995500
H291 H 0.831400 0.445400 0.950200
H292 H 1.011700 0.469500 0.549900
H293 H 1.024800 0.522100 0.575400
H294 H 0.962200 0.484700 0.596100
H295 H 0.454600 0.226100 0.392100
H296 H 0.671900 0.044600 0.457400
H297 H 0.735700 0.065400 0.117600
H298 H 1.056300 0.120800 0.372300
H299 H 0.710700 0.300900 0.568800
H300 H 0.960100 0.235200 0.304600
H301 H 0.797800 -0.157100 0.455000
H302 H 0.834700 0.308700 0.303800
H303 H 1.170500 0.001900 0.085800
H304 H 0.961000 0.042400 0.369600
H305 H 0.857200 0.049700 0.579400
H306 H 0.848500 0.343300 0.223700
H307 H 0.876800 0.414600 0.499400
H308 H 0.320000 0.215500 0.394500
H309 H 1.322800 -0.010400 0.307500
H310 H 0.568200 -0.000900 0.491000
H311 H 0.456600 -0.041900 0.162400
H312 H 0.664300 0.084000 0.041800
H313 H 0.759300 0.438200 0.462100
H314 H 1.178300 0.159400 0.365700
H315 H 0.771400 0.078800 0.635900
H316 H 1.017200 0.314900 0.304200
H317 H 0.834600 0.285100 0.607600
H318 H 0.978200 -0.005300 0.442400
H319 H 1.264600 0.039400 0.136200
H320 H 1.189200 0.243300 0.383400
H321 H 0.387300 0.005400 0.216200
H322 H 0.271000 0.146600 0.433200
H323 H 1.303100 -0.066100 0.245300
H324 H 0.482600 -0.047000 0.437100
H325 H 0.784800 -0.179100 0.372900
H326 H 1.078900 0.339500 0.232100
H327 H 0.555000 0.135400 0.042100
H328 H 0.783600 0.307200 0.154800
H329 H 0.991700 -0.090500 0.436600
H330 H 0.499800 -0.048800 0.353500
H331 H 0.355900 0.089400 0.470100
H332 H 0.522100 0.174300 0.114400
H333 H 0.996000 -0.128200 0.360800
H334 H 0.645200 0.420400 0.399700
H335 H 1.091600 0.286400 0.168400
H336 H 1.302400 0.099200 0.206600
H337 H 0.707100 0.236800 0.163000
H338 H 0.393800 0.075900 0.281800
H339 H 1.080500 0.288900 0.406100
H340 H 0.960600 0.240300 0.607100
H341 H 0.593900 0.158000 0.189100
H342 H 1.207100 -0.108000 0.178600
H343 H 0.490600 0.098200 0.464200
H344 H 0.771200 -0.153100 0.281800
H345 H 1.042100 0.206500 0.171600
H346 H 0.640600 0.122500 0.649200
H347 H 0.703900 0.198700 0.241500
H348 H 0.762000 -0.090500 0.225000
H349 H 0.981000 -0.081100 0.288000
H350 H 1.085900 -0.114900 0.143500
H351 H 0.604000 -0.007900 0.320300
H352 H 1.045600 0.189900 0.568500
H353 H 0.959800 0.250700 0.413600
H354 H 0.579300 0.366700 0.346400
H355 H 1.007400 0.154800 0.489900
H356 H 0.534100 0.165900 0.615500
H357 H 0.600600 0.144900 0.310700
H358 H 1.261000 0.153100 0.263900
H359 H 0.521700 0.182900 0.529600
H360 H 0.468000 0.134400 0.324100
H361 H 0.981800 -0.067300 0.171300
H362 H 0.759400 -0.007300 0.249400
H363 H 1.127500 0.163500 0.275600
H364 H 0.632500 0.289200 0.330700
C365 C 1.142700 0.142200 0.250000
C366 C 0.660100 0.310900 0.353100
C367 C 1.033400 -0.063100 0.186100
C368 C 0.762900 -0.032500 0.273800
C369 C 0.566000 0.165100 0.543100
C370 C 0.491800 0.113900 0.300700
C371 C 0.571700 0.120300 0.292500
C372 C 1.223300 0.135300 0.243700
C373 C 0.972600 0.176400 0.505300
C374 C 0.573500 0.154900 0.594600
C375 C 1.085200 0.119300 0.220400
C376 C 0.765900 -0.021000 0.322600
C377 C 0.901800 0.187500 0.481800
C378 C 0.609300 0.092800 0.259700
C379 C 1.046500 -0.029000 0.223100
C380 C 0.622800 0.149300 0.512600
C381 C 0.730500 0.296900 0.375900
C382 C 0.846600 0.217000 0.507300
C383 C 1.108000 0.086900 0.182800
C384 C 1.121500 -0.025000 0.246400
C385 C 0.565800 0.054500 0.234800
C386 C 0.773700 0.329400 0.409300
C387 C 0.776900 -0.058900 0.359900
C388 C 0.688100 0.124400 0.532600
C389 C 0.572500 0.171800 0.426800
C390 C 0.956200 0.013400 0.275500
C391 C 0.762100 0.226300 0.328600
C392 C 0.716900 0.048100 0.364700
C393 C 0.719100 0.099300 0.208800
C394 C 0.921000 0.156900 0.400800
C395 C 0.967000 0.161600 0.243700
C396 C 0.767200 0.251200 0.278800
C397 C 1.000100 0.212500 0.239900
C398 C 0.968200 -0.015400 0.321800
C399 C 0.673100 0.110200 0.160300
C400 C 0.649500 0.021900 0.386500
C401 C 0.485100 0.164000 0.429000
C402 C 0.997800 0.180800 0.396500
C403 C 1.004200 0.232200 0.404800
C404 C 0.628300 0.357400 0.362500
C405 C 0.596900 -0.006100 0.354900
C406 C 0.995300 0.197000 0.553000
C407 C 0.979500 -0.065600 0.319400
C408 C 1.095900 -0.092100 0.169800
C409 C 0.731100 0.228800 0.238100
C410 C 0.765100 -0.082800 0.259400
C411 C 1.036700 0.228200 0.198700
C412 C 0.636800 0.129500 0.614700
C413 C 0.455600 0.122700 0.451000
C414 C 0.771300 -0.119800 0.292300
C415 C 0.608100 0.142700 0.159300
C416 C 1.166500 -0.087900 0.190300
C417 C 1.075100 0.254700 0.400000
C418 C 0.945000 0.226500 0.575700
C419 C 0.734800 0.250700 0.191300
C420 C 0.448100 0.079500 0.276300
C421 C 1.066000 0.275900 0.196800
C422 C 1.247700 0.104100 0.209900
C423 C 0.988600 -0.093700 0.362700
C424 C 0.666700 0.388900 0.394200
C425 C 0.565300 0.152200 0.115100
C426 C 0.697500 0.113200 0.584200
C427 C 0.376200 0.117000 0.453600
C428 C 0.484100 0.049000 0.242600
C429 C 0.535500 -0.030500 0.374800
C430 C 0.870700 0.236900 0.553900
C431 C 0.986700 -0.071400 0.407200
C432 C 0.778000 -0.107000 0.343000
C433 C 0.779400 0.293000 0.186700
C434 C 1.190600 0.077700 0.178200
C435 C 0.585600 0.129500 0.072200
C436 C 1.185700 -0.053800 0.230200
C437 C 1.058500 0.307200 0.234300
C438 C 0.738100 0.375200 0.419100
C439 C 0.524700 -0.029200 0.424300
C440 C 0.785400 -0.145400 0.381900
C441 C 0.326200 0.151000 0.432300
C442 C 1.260000 -0.047000 0.255000
C443 C 1.140000 0.227300 0.385900
C444 C 0.442000 0.010500 0.213400
C445 C 0.977700 -0.020500 0.410700
C446 C 1.210700 0.045800 0.140600
C447 C 1.021100 0.293100 0.276900
C448 C 0.819100 0.270000 0.576800
C449 C 1.134100 0.177400 0.375700
C450 C 0.762800 0.086100 0.601600
C451 C 0.649600 0.098300 0.071900
C452 C 0.780800 0.407200 0.454400
C453 C 0.575500 -0.001800 0.456400
C454 C 0.482900 -0.017400 0.182300
C455 C 0.355100 0.191900 0.409300
C456 C 1.271800 -0.014700 0.291700
C457 C 0.817600 0.314600 0.227400
C458 C 0.849500 0.393600 0.476100
C459 C 0.967800 0.007900 0.367600
C460 C 0.814500 0.070100 0.568100
C461 C 0.810300 0.293700 0.275000
C462 C 1.155600 0.024000 0.110800
C463 C 0.989500 0.245000 0.277500
C464 C 0.793000 -0.132600 0.429900
C465 C 1.062100 0.154600 0.380300
C466 C 0.746300 0.279700 0.553500
C467 C 0.693000 0.087800 0.117100
C468 C 0.361900 0.975200 0.563600
C469 C 0.638100 0.024800 0.436400
C470 C 0.793900 -0.081500 0.443100
C471 C 0.434400 0.198000 0.407900
C472 C 1.076300 0.033800 0.116400
C473 C 0.307000 0.912200 0.882900
C474 C -0.062100 0.845400 0.619700
C475 C 0.010500 0.755000 0.722500
C476 C 0.189700 0.706300 0.725000
C477 C 0.032200 0.992100 0.632400
C478 C 0.182400 0.685400 0.772600
C479 C 0.644900 0.808100 0.590700
C480 C 0.424500 1.001800 0.543600
C481 C 0.350400 0.901700 0.928100
C482 C -0.134100 0.822600 0.624300
C483 C -0.021100 0.706900 0.723100
C484 C 0.022300 1.020500 0.589300
C485 C -0.140000 0.772700 0.614100
C486 C 0.673800 0.849000 0.567700
C487 C -0.013300 0.512500 0.418600
C488 C 0.475300 1.029200 0.575700
C489 C 1.013300 0.487500 0.581400
C490 C 0.882500 0.346400 0.463800
C491 C 0.564900 -0.010000 0.179700
C492 C 1.207300 0.013200 0.306900
C493 C 0.860700 0.438700 0.981900
C494 C 0.724300 0.258100 0.506300
C495 C 0.806400 0.082900 0.517500
C496 C 0.139300 0.561300 0.018100
C497 C 0.962100 0.168200 0.986300
C498 C -0.058500 0.692800 0.765700
C499 C 0.037900 0.831800 0.013700
C500 C 0.414400 0.870500 0.927800
C501 C 0.646400 0.228500 0.981900
C502 C 0.353600 0.771500 0.018100
C503 C 0.220600 0.707000 0.813300
C504 C -0.217700 0.547000 0.152000
C505 C 1.217700 0.453000 0.848000
C506 C 0.013300 1.071400 0.592800
C507 C 0.191000 0.434900 0.003300
C508 C 0.608800 -0.044200 0.146200
C509 C 0.809000 0.565100 0.996700
C510 C 0.809000 -0.065100 0.496700
C511 C 1.217700 0.047000 0.348000
C512 C 0.646400 0.271500 0.481900
C513 C 0.608800 0.544200 0.646200
C514 C 0.962100 0.331800 0.486300
C515 C 0.860700 0.061300 0.481900
C516 C 1.013300 0.012500 0.081400
C517 C 0.464500 1.030500 0.625200
C518 C 0.391200 0.455800 0.353800
C519 C 0.623800 0.883000 0.546400
C520 C 0.434700 0.847800 0.884900
C521 C 0.011400 1.093700 0.637300
C522 C -0.066000 0.724100 0.803200
C523 C 0.265200 0.749300 0.808700
C524 C -0.075100 0.745300 0.600000
C525 C 0.391900 0.857300 0.840700
C526 C 0.806400 0.417100 1.017500
C527 C 0.724300 0.241900 1.006300
C528 C 1.207300 0.486800 0.806900
C529 C 0.564900 0.510000 0.679700
C530 C 0.882500 0.153600 0.963800
C531 C 1.076300 0.466200 0.616400
C532 C 0.793900 0.581500 0.943100
C533 C 0.544400 0.877300 0.549000
C534 C 0.746300 0.220300 1.053500
C535 C -0.036700 0.771800 0.801300
C536 C 0.793000 0.632600 0.929900
C537 C 0.268900 0.771200 0.761900
C538 C 1.155600 0.476000 0.610800
C539 C 0.193600 0.582900 -0.017500
C540 C 0.814500 0.429900 1.068100
C541 C 0.020500 1.065600 0.680600
C542 C 0.849500 0.106400 0.976100
C543 C 0.275700 0.758100 -0.006300
C544 C 1.271800 0.514700 0.791700
C545 C 0.403100 1.006100 0.645100
C546 C 0.482900 0.517400 0.682300
C547 C -0.207300 0.513200 0.193100
C548 C 0.780800 0.092800 0.954400
C549 C -0.004200 0.767800 0.595200
C550 C 0.762800 0.413900 1.101600
C551 C 0.002200 0.819200 0.603500
C552 C 0.819100 0.230000 1.076800
C553 C 0.514900 0.836000 0.571000
C554 C 1.210700 0.454200 0.640600
C555 C 0.350500 0.978100 0.613500
C556 C 0.442000 0.489500 0.713400
C557 C 0.326900 0.889800 0.839700
C558 C 1.260000 0.547000 0.755000
C559 C 0.031800 1.015400 0.678200
C560 C 0.785400 0.645400 0.881900
C561 C -0.000100 0.787500 0.760100
C562 C 0.738100 0.124800 0.919100
C563 C 1.185700 0.553800 0.730200
C564 C 1.190600 0.422300 0.678200
C565 C 0.778000 0.607000 0.843000
C566 C 0.870700 0.263100 1.053900
C567 C 0.484100 0.451000 0.742600
C568 C 0.697500 0.386800 1.084200
C569 C 0.666700 0.111100 0.894200
C570 C 0.232800 0.748800 0.721200
C571 C 1.247700 0.395900 0.709900
C572 C 0.033000 0.838400 0.756300
C573 C 0.448100 0.420500 0.776300
C574 C 0.565600 0.698000 0.092100
C575 C 0.945000 0.273500 1.075700
C576 C 0.361900 0.524800 0.063600
C577 C 1.166500 0.587900 0.690300
C578 C 0.307000 0.587800 0.382900
C579 C 0.771300 0.619800 0.792300
C580 C -0.062100 0.654600 0.119700
C581 C 0.636800 0.370500 1.114700
C582 C 0.010500 0.745000 0.222500
C583 C 0.765100 0.582800 0.759400
C584 C 0.189700 0.793700 0.225000
C585 C 1.095900 0.592100 0.669800
C586 C 0.032200 0.507900 0.132400
C587 C 0.995300 0.303000 1.053000
C588 C 0.182400 0.814600 0.272600
C589 C 0.628300 0.142600 0.862500
C590 C 0.644900 0.691900 0.090700
C591 C 0.573500 0.345100 1.094600
C592 C 0.424500 0.498200 0.043600
C593 C 1.223300 0.364700 0.743700
C594 C 0.350400 0.598300 0.428100
C595 C 0.491800 0.386100 0.800700
C596 C -0.134100 0.677400 0.124300
C597 C 0.762900 0.532500 0.773800
C598 C -0.021100 0.793100 0.223100
C599 C 0.660100 0.189100 0.853100
C600 C 0.022300 0.479500 0.089300
C601 C 1.142700 0.357800 0.750000
C602 C -0.140000 0.727300 0.114100
C603 C 1.033400 0.563100 0.686100
C604 C 0.673800 0.651000 0.067700
C605 C 0.566000 0.334900 1.043100
C606 C 0.475300 0.470800 0.075700
C607 C 0.571700 0.379700 0.792500
C608 C -0.058500 0.807200 0.265700
C609 C 0.972600 0.323600 1.005300
C610 C 0.414400 0.629500 0.427800
C611 C 1.085200 0.380700 0.720400
C612 C 0.765900 0.521000 0.822600
C613 C 0.901800 0.312500 0.981800
C614 C 0.609300 0.407200 0.759700
C615 C 1.046500 0.529000 0.723100
C616 C 0.622800 0.350700 1.012600
C617 C 0.730500 0.203100 0.875900
C618 C 0.846600 0.283000 1.007300
C619 C 1.108000 0.413100 0.682800
C620 C 1.121500 0.525000 0.746400
C621 C 0.565800 0.445500 0.734800
C622 C 0.773700 0.170600 0.909300
C623 C 0.776900 0.558900 0.859900
C624 C 0.688100 0.375600 1.032600
C625 C 0.572500 0.328200 0.926800
C626 C 0.956200 0.486600 0.775500
C627 C 0.762100 0.273700 0.828600
C628 C 0.716900 0.451900 0.864700
C629 C 0.719100 0.400700 0.708800
C630 C 0.921000 0.343100 0.900800
C631 C 0.967000 0.338400 0.743700
C632 C 0.767200 0.248800 0.778800
C633 C 1.000100 0.287500 0.739900
C634 C 0.968200 0.515400 0.821800
C635 C 0.673100 0.389800 0.660300
C636 C 0.649500 0.478100 0.886500
C637 C 0.485100 0.336000 0.929000
C638 C 0.997800 0.319200 0.896500
C639 C 1.004200 0.267800 0.904800
C640 C 0.220600 0.793000 0.313300
C641 C 0.596900 0.506100 0.854900
C642 C 0.013300 0.428600 0.092800
C643 C 0.979500 0.565600 0.819400
C644 C 0.464500 0.469500 0.125200
C645 C 0.731100 0.271200 0.738100
C646 C 0.623800 0.617000 0.046400
C647 C 1.036700 0.271800 0.698700
C648 C 0.434700 0.652200 0.384900
C649 C 0.455600 0.377300 0.951000
C650 C 0.011400 0.406300 0.137300
C651 C 0.608100 0.357300 0.659300
C652 C -0.066000 0.775900 0.303200
C653 C 1.075100 0.245300 0.900000
C654 C 0.265200 0.750700 0.308700
C655 C 0.734800 0.249300 0.691300
C656 C -0.075100 0.754700 0.100000
C657 C 1.066000 0.224100 0.696800
C658 C 0.391900 0.642700 0.340700
C659 C 0.988600 0.593700 0.862700
C660 C 0.544400 0.622700 0.049000
C661 C 0.565300 0.347800 0.615100
C662 C -0.036700 0.728200 0.301300
C663 C 0.376200 0.383000 0.953600
C664 C 0.268900 0.728800 0.261900
C665 C 0.535500 0.530500 0.874800
C666 C 0.020500 0.434400 0.180600
C667 C 0.986700 0.571400 0.907200
C668 C 0.403100 0.493900 0.145100
C669 C 0.779400 0.207000 0.686700
C670 C -0.004200 0.732200 0.095200
C671 C 0.585600 0.370500 0.572200
C672 C 0.002200 0.680800 0.103500
C673 C 1.058500 0.192800 0.734300
C674 C 0.514900 0.664000 0.071000
C675 C 0.524700 0.529200 0.924300
C676 C 0.350500 0.521900 0.113500
C677 C 0.326200 0.349000 0.932300
C678 C 0.326900 0.610200 0.339700
C679 C 1.140000 0.272700 0.885900
C680 C 0.031800 0.484600 0.178200
C681 C 0.977700 0.520500 0.910700
C682 C -0.000100 0.712500 0.260100
C683 C 1.021100 0.206900 0.776900
C684 C 0.232800 0.751200 0.221200
C685 C 1.134100 0.322600 0.875700
C686 C 0.033000 0.661600 0.256300
C687 C 0.649600 0.401700 0.571900
C688 C 0.079000 0.656900 0.099200
C689 C 0.575500 0.501800 0.956400
C690 C 0.280900 0.599300 0.291200
C691 C 0.355100 0.308100 0.909300
C692 C 0.283100 0.548100 0.135300
C693 C 0.817600 0.185400 0.727400
C694 C 0.237900 0.726300 0.171400
C695 C 0.967800 0.492100 0.867600
C696 C 0.043800 0.513400 0.224500
C697 C 0.810300 0.206300 0.775000
C698 C 0.427500 0.671800 0.073200
C699 C 0.989500 0.255000 0.777500
C700 C 0.311900 0.624400 -0.032600
C701 C 1.062100 0.345400 0.880300
C702 C 0.223100 0.441100 0.140100
C703 C 0.693000 0.412200 0.617100
C704 C 0.226300 0.829400 0.090700
C705 C 0.638100 0.475200 0.936400
C706 C 0.434200 0.554500 0.265200
C707 C 0.434400 0.302000 0.907900
C708 C -0.121500 0.475000 0.253600
C709 C 0.079000 0.843100 0.599200
C710 C 0.280900 0.900700 0.791200
C711 C 0.283100 0.951900 0.635300
C712 C 0.237900 0.773700 0.671400
C713 C 0.043800 0.986600 0.724500
C714 C 0.427500 0.828200 0.573200
C715 C 0.311900 0.875600 0.467400
C716 C 0.223100 1.058900 0.640100
C717 C 0.226300 0.670600 0.590700
C718 C 0.434200 0.945500 0.765200
C719 C -0.121500 1.025000 0.753600
C720 C -0.108000 0.913100 0.817200
C721 C 0.153400 0.783000 0.492700
C722 C 0.269500 0.703100 0.624100
C723 C 0.377200 0.850700 0.487400
C724 C -0.046500 1.029000 0.776900
C725 C -0.013300 0.987500 0.918600
C726 C -0.108000 0.586900 0.317200
C727 C 0.153400 0.717000 -0.007300
C728 C 0.269500 0.796900 0.124100
C729 C 0.139300 0.938700 0.518100
C730 C 0.377200 0.649300 -0.012600
C731 C -0.046500 0.471000 0.276900
C732 C 0.390700 0.592800 0.240300
C733 C 0.037900 0.668200 0.513700
C734 C 0.098200 0.687500 0.018200
C735 C 0.234100 0.479000 0.177400
C736 C -0.085200 0.619300 0.279600
C737 C 0.353600 0.728500 0.518100
C738 C 0.027400 0.676400 -0.005300
C739 C 0.428300 0.620300 0.207500
C740 C 0.434000 0.665100 -0.043100
C741 C -0.217700 0.953000 0.652000
C742 C -0.033400 0.436900 0.313900
C743 C -0.142700 0.642200 0.250000
C744 C 0.339900 0.810900 0.146900
C745 C 0.191000 1.065100 0.503300
C746 C 0.237100 0.467500 0.226200
C747 C 0.508200 0.613900 0.199300
C748 C -0.223300 0.635300 0.256300
C749 C 0.391200 1.044200 0.853800
C750 C 0.426500 0.654900 -0.094600
C751 C 0.371700 0.857400 0.137500
C752 C 0.004700 0.697000 -0.053000
C753 C 0.390700 0.907200 0.740300
C754 C 0.098200 0.812500 0.518200
C755 C 0.234100 1.021000 0.677400
C756 C -0.085200 0.880700 0.779600
C757 C 0.435100 0.490000 0.320300
C758 C 0.027400 0.823600 0.494700
C759 C 0.117500 0.846400 0.036200
C760 C 0.428300 0.879700 0.707500
C761 C -0.076300 0.533800 0.383600
C762 C 0.193600 0.917100 0.482500
C763 C 0.275700 0.741900 0.493700
C764 C -0.207300 0.986800 0.693100
C765 C 0.435100 1.010000 0.820300
C766 C 0.117500 0.653600 0.536200
C767 C -0.076300 0.966200 0.883600
C768 C 0.206100 1.081500 0.556900
C769 C 0.434000 0.834900 0.456900
C770 C 0.253700 0.720300 0.446500
C771 C -0.095900 0.407900 0.330200
C772 C 0.207000 1.132600 0.570100
C773 C 0.234900 0.417200 0.240600
C774 C -0.155600 0.976000 0.889200
C775 C 0.363200 0.629500 -0.114700
C776 C 0.185500 0.929900 0.431900
C777 C 0.228700 0.380200 0.207700
C778 C 0.150500 0.606400 0.523900
C779 C -0.166500 0.412100 0.309700
C780 C -0.271800 1.014700 0.708300
C781 C 0.055000 0.726500 -0.075700
C782 C 0.517100 1.017400 0.817700
C783 C 0.551900 0.579500 0.223700
C784 C 0.219200 0.592800 0.545600
C785 C -0.247700 0.604100 0.290100
C786 C 0.237200 0.913900 0.398400
C787 C 0.333300 0.888900 0.105800
C788 C 0.180900 0.730000 0.423200
C789 C 0.302500 0.613200 -0.084200
C790 C -0.210700 0.954200 0.859400
C791 C 0.515900 0.549000 0.257400
C792 C 0.558000 0.989500 0.786600
C793 C 0.129300 0.736900 -0.053900
C794 C -0.260000 1.047000 0.745000
C795 C 0.222000 0.393000 0.157000
C796 C 0.214600 1.145400 0.618100
C797 C -0.190600 0.577700 0.321800
C798 C 0.261900 0.624800 0.580900
C799 C -0.185700 1.053800 0.769800
C800 C -0.190600 0.922300 0.821800
C801 C 0.222000 1.107000 0.657000
C802 C 0.129300 0.763100 0.446100
C803 C 0.515900 0.951000 0.757400
C804 C 0.302500 0.886800 0.415800
C805 C 0.333300 0.611100 0.605800
C806 C -0.185700 0.446200 0.269800
C807 C -0.247700 0.895900 0.790100
C808 C 0.261900 0.875200 0.080900
C809 C 0.551900 0.920500 0.723700
C810 C 0.214600 0.354600 0.118100
C811 C 0.055000 0.773500 0.424300
C812 C -0.260000 0.453000 0.245000
C813 C -0.166500 1.087900 0.809700
C814 C 0.558000 0.510500 0.286600
C815 C 0.228700 1.119800 0.707700
C816 C -0.210700 0.545800 0.359400
C817 C 0.363200 0.870500 0.385300
C818 C 0.180900 0.770000 -0.076800
C819 C 0.234900 1.082800 0.740600
C820 C 0.237200 0.586100 -0.101600
C821 C -0.095900 1.092100 0.830200
C822 C 0.219200 0.907200 0.045600
C823 C 0.004700 0.803000 0.447000
C824 C 0.517100 0.482600 0.317700
C825 C 0.371700 0.642600 0.637500
C826 C -0.271800 0.485300 0.208300
C827 C 0.426500 0.845100 0.405400
C828 C 0.150500 0.893600 0.023900
C829 C -0.223300 0.864700 0.756300
C830 C 0.185500 0.570100 -0.068100
C831 C 0.508200 0.886100 0.699300
C832 C -0.155600 0.524000 0.389200
C833 C 0.237100 1.032500 0.726200
C834 C 0.207000 0.367400 0.070100
C835 C 0.339900 0.689100 0.646900
C836 C 0.253700 0.779700 -0.053500
C837 C -0.142700 0.857800 0.750000
C838 C 0.206100 0.418500 0.056900
C839 C -0.033400 1.063100 0.813900
C840 C 0.565600 0.802000 0.592100
N841 N 0.253500 0.610600 -0.000500
N842 N 0.373900 0.840000 0.538400
N843 N -0.003000 0.877600 0.773300
N844 N 0.234400 0.970200 0.664100
N845 N 0.126600 0.832800 0.564300
N846 N 0.309600 0.901500 0.747800
N847 N 0.015100 0.995300 0.766400
N848 N 0.242700 0.752400 0.629200
N849 N 0.746500 0.389400 1.000500
N850 N 0.228300 0.725800 0.015100
N851 N 0.396100 0.976000 0.796100
N852 N -0.136300 0.990800 0.714800
N853 N -0.053400 0.937500 0.846900
N854 N 0.214300 1.045700 0.591000
N855 N 0.152600 0.816100 0.069600
N856 N 0.152600 0.683900 0.569600
N857 N 0.228300 0.774200 0.515100
N858 N 0.771700 0.274200 0.984900
N859 N 0.214300 0.454300 0.091000
N860 N 0.847400 0.183900 0.930400
N861 N 0.253500 0.889400 0.499500
N862 N -0.053400 0.562500 0.346900
N863 N -0.136300 0.509200 0.214800
N864 N 0.785700 0.545700 0.909000
N865 N 0.396100 0.524000 0.296100
N866 N 1.053400 0.437500 0.653100
N867 N 1.136300 0.490800 0.785200
N868 N 0.603900 0.476000 0.703900
N869 N 0.626100 0.160000 0.461600
N870 N 1.003000 0.122400 0.226700
N871 N 0.765600 0.029800 0.335900
N872 N 0.746500 0.110600 0.500500
N873 N 0.873400 0.167200 0.435700
N874 N 0.690400 0.098500 0.252200
N875 N 0.984900 0.004700 0.233600
N876 N 0.771700 0.225800 0.484900
N877 N 0.847400 0.316100 0.430400
N878 N 0.757300 0.247600 0.370800
N879 N 0.785700 -0.045700 0.409000
N880 N 1.053400 0.062500 0.153100
N881 N 1.136300 0.009200 0.285200
N882 N 0.373900 0.660000 0.038400
N883 N 0.603900 0.024000 0.203900
N884 N -0.003000 0.622400 0.273300
N885 N 0.757300 0.252400 0.870800
N886 N 0.234400 0.529800 0.164100
N887 N 0.626100 0.340000 0.961600
N888 N 0.126600 0.667200 0.064300
N889 N 1.003000 0.377600 0.726700
N890 N 0.309600 0.598500 0.247800
N891 N 0.765600 0.470200 0.835900
N892 N 0.015100 0.504700 0.266400
N893 N 0.873400 0.332800 0.935700
N894 N 0.242700 0.747600 0.129200
N895 N 0.690400 0.401500 0.752200
N896 N 0.984900 0.495300 0.733600
O897 O 0.401800 0.810740 0.613670
O898 O 0.763900 0.321880 0.829040
O899 O 0.095400 0.549240 0.225500
O900 O 0.401800 0.689260 0.113670
O901 O 0.100800 0.625180 0.132510
O902 O 0.273600 0.595520 0.124240
O903 O 0.899000 0.343800 0.760570
O904 O 0.794300 0.094400 0.208700
O905 O 0.726400 0.095520 0.375760
O906 O 0.598200 0.189260 0.386330
O907 O 0.899000 0.156200 0.260570
O908 O 0.763900 0.178120 0.329040
O909 O 0.899200 0.125180 0.367490
O910 O 0.904600 0.049240 0.274500
O911 O 0.899200 0.374820 0.867490
O912 O 0.236100 0.678120 0.170960
O913 O 0.904600 0.450760 0.774500
O914 O 0.598200 0.310740 0.886330
O915 O 0.095400 0.950760 0.725500
O916 O 0.100800 0.874820 0.632510
O917 O 0.794300 0.405600 0.708700
O918 O 0.236100 0.821880 0.670960
O919 O 0.101000 0.843800 0.739430
O920 O 0.205700 0.905600 0.791300
O921 O 0.273600 0.904480 0.624240
O922 O 0.205700 0.594400 0.291300
O923 O 0.726400 0.404480 0.875760
O924 O 0.101000 0.656200 0.239430
Cl925 Cl 0.099350 0.875100 0.891060
Cl926 Cl 0.900650 0.124900 0.108940
Cl927 Cl 0.839110 -0.009320 0.145660
Cl928 Cl 0.900650 0.375100 0.608940
Cl929 Cl 0.160890 1.009320 0.854340
Cl930 Cl 0.839110 0.509320 0.645660
Cl931 Cl 0.099350 0.624900 0.391060
Cl932 Cl 0.160890 0.490680 0.354340
Y933 Y 0.086720 0.933090 0.814710
Y934 Y 0.265280 0.832460 0.585070
Y935 Y 0.182840 0.894590 0.699110
Y936 Y 0.817160 0.105410 0.300890
Y937 Y 0.913280 0.066910 0.185290
Y938 Y 0.913280 0.433090 0.685290
Y939 Y 0.817160 0.394590 0.800890
Y940 Y 0.734720 0.332460 0.914930
Y941 Y 0.734720 0.167540 0.414930
Y942 Y 0.086720 0.566910 0.314710
Y943 Y 0.265280 0.667540 0.085070
Y944 Y 0.182840 0.605410 0.199110

#END
