
#######################################################################
#
#                 Cambridge Crystallographic Data Centre
#                                CCDC 
#
#######################################################################
#
# If this CIF has been generated from an entry in the Cambridge 
# Structural Database, then it will include bibliographic, chemical, 
# crystal, experimental, refinement or atomic coordinate data resulting 
# from the CCDC's data processing and validation procedures.
#
#######################################################################

data_ACOQIS
_symmetry_cell_setting           monoclinic
_symmetry_space_group_name_H-M   'P 21'
_symmetry_Int_Tables_number      4
_space_group_name_Hall           'P 2yb'
loop_
_symmetry_equiv_pos_site_id
_symmetry_equiv_pos_as_xyz
1 x,y,z
2 -x,1/2+y,-z
_cell_length_a                   6.933(5)
_cell_length_b                   8.123(10)
_cell_length_c                   19.479(47)
_cell_angle_alpha                90
_cell_angle_beta                 91.86(14)
_cell_angle_gamma                90
_cell_volume                     1096.42
loop_
_atom_site_label
_atom_site_type_symbol
_atom_site_fract_x
_atom_site_fract_y
_atom_site_fract_z
N1 N 0.1061(9) 0.8678(7) 0.5756(3)
C1 C 0.2953(11) 0.5035(9) 0.7844(4)
H1 H 0.4303(11) 0.5395(9) 0.7853(4)
C2 C -0.3523(11) -0.1674(10) 0.6314(4)
C3 C 0.1847(11) 0.6071(9) 0.8330(4)
H2 H 0.0811(11) 0.6690(9) 0.8093(4)
C4 C -0.3799(12) -0.1903(10) 0.5631(4)
H3 H -0.3986(12) -0.1020(10) 0.5332(4)
C5 C 0.1499(11) 0.9012(10) 0.6410(4)
H4 H 0.1529(11) 1.0130(10) 0.6512(4)
N2 N 0.1903(10) 0.8039(7) 0.6947(3)
C6 C 0.1060(12) 0.4859(11) 0.8861(4)
H5 H -0.0285(12) 0.5089(11) 0.8969(4)
C7 C -0.3792(12) -0.3549(12) 0.5392(5)
H6 H -0.3972(12) -0.3768(12) 0.4925(5)
C8 C 0.1875(11) 0.6450(9) 0.6735(4)
C9 C 0.1307(12) 0.3176(9) 0.8525(4)
H7 H 0.1706(12) 0.2391(9) 0.8885(4)
C10 C -0.3519(11) -0.4811(11) 0.5844(5)
H8 H -0.3537(11) -0.5883(11) 0.5675(5)
C11 C 0.1442(11) 0.5902(9) 0.6074(4)
C12 C -0.3218(12) -0.4574(10) 0.6542(5)
H9 H -0.3029(12) -0.5454(10) 0.6842(5)
C13 C -0.0538(13) 0.2580(11) 0.8203(4)
H10 H -0.1265(13) 0.3337(11) 0.7946(4)
C14 C -0.3212(10) -0.2954(10) 0.6774(4)
C15 C 0.1035(10) 0.7072(10) 0.5560(4)
C16 C -0.1230(15) 0.1084(12) 0.8247(4)
H11 H -0.0441(15) 0.0301(12) 0.8462(4)
N3 N 0.1502(10) 0.4195(8) 0.6053(3)
C17 C -0.2938(11) -0.2310(10) 0.7462(5)
C18 C -0.3145(13) 0.0524(11) 0.7987(5)
H12 H -0.3790(13) -0.0025(11) 0.8358(5)
H13 H -0.3908(13) 0.1483(11) 0.7858(5)
O1 O 0.2860(7) 0.3361(6) 0.8074(3)
N4 N -0.3109(10) -0.0577(8) 0.7406(4)
C19 C 0.1976(12) 0.3798(10) 0.6688(4)
H14 H 0.2157(12) 0.2710(10) 0.6824(4)
N5 N 0.2187(8) 0.5072(7) 0.7138(3)
C20 C -0.3529(11) -0.0112(12) 0.6736(5)
O2 O 0.3096(9) 0.7115(7) 0.8728(3)
O3 O 0.2332(8) 0.5059(7) 0.9438(3)
N6 N 0.0611(8) 0.6728(8) 0.4916(3)
H15 H 0.0358(8) 0.7509(8) 0.4629(3)
H16 H 0.0585(8) 0.5721(8) 0.4780(3)
O4 O -0.3796(11) 0.1262(7) 0.6542(4)
O5 O -0.2621(8) -0.2991(8) 0.8008(3)
C21 C 0.3000(12) 0.6753(10) 0.9424(4)
C22 C 0.1542(18) 0.7830(13) 0.9767(5)
H17 H 0.1507(18) 0.7553(13) 1.0246(5)
H18 H 0.0289(18) 0.7656(13) 0.9555(5)
H19 H 0.1901(18) 0.8964(13) 0.9719(5)
C23 C 0.4941(16) 0.6804(14) 0.9760(5)
H20 H 0.4844(16) 0.6552(14) 1.0239(5)
H21 H 0.5481(16) 0.7884(14) 0.9710(5)
H22 H 0.5758(16) 0.6009(14) 0.9549(5)
N1 N 0.8939(9) 1.3678(7) 0.4244(3)
C1 C 0.7047(11) 1.0035(9) 0.2156(4)
H1 H 0.5697(11) 1.0395(9) 0.2147(4)
C2 C 1.3523(11) 0.3326(10) 0.3686(4)
C3 C 0.8153(11) 1.1071(9) 0.1670(4)
H2 H 0.9189(11) 1.1690(9) 0.1907(4)
C4 C 1.3799(12) 0.3097(10) 0.4369(4)
H3 H 1.3986(12) 0.3980(10) 0.4668(4)
C5 C 0.8501(11) 1.4012(10) 0.3590(4)
H4 H 0.8471(11) 1.5130(10) 0.3488(4)
N2 N 0.8097(10) 1.3039(7) 0.3053(3)
C6 C 0.8940(12) 0.9859(11) 0.1139(4)
H5 H 1.0285(12) 1.0089(11) 0.1031(4)
C7 C 1.3792(12) 0.1451(12) 0.4608(5)
H6 H 1.3972(12) 0.1232(12) 0.5075(5)
C8 C 0.8125(11) 1.1450(9) 0.3265(4)
C9 C 0.8693(12) 0.8176(9) 0.1475(4)
H7 H 0.8294(12) 0.7391(9) 0.1115(4)
C10 C 1.3519(11) 0.0189(11) 0.4156(5)
H8 H 1.3537(11) -0.0883(11) 0.4325(5)
C11 C 0.8558(11) 1.0902(9) 0.3926(4)
C12 C 1.3218(12) 0.0426(10) 0.3458(5)
H9 H 1.3029(12) -0.0454(10) 0.3158(5)
C13 C 1.0538(13) 0.7580(11) 0.1797(4)
H10 H 1.1265(13) 0.8337(11) 0.2054(4)
C14 C 1.3212(10) 0.2046(10) 0.3226(4)
C15 C 0.8965(10) 1.2072(10) 0.4440(4)
C16 C 1.1230(15) 0.6084(12) 0.1753(4)
H11 H 1.0441(15) 0.5301(12) 0.1538(4)
N3 N 0.8498(10) 0.9195(8) 0.3947(3)
C17 C 1.2938(11) 0.2690(10) 0.2538(5)
C18 C 1.3145(13) 0.5524(11) 0.2013(5)
H12 H 1.3790(13) 0.4975(11) 0.1642(5)
H13 H 1.3908(13) 0.6483(11) 0.2142(5)
O1 O 0.7140(7) 0.8361(6) 0.1926(3)
N4 N 1.3109(10) 0.4423(8) 0.2594(4)
C19 C 0.8024(12) 0.8798(10) 0.3312(4)
H14 H 0.7843(12) 0.7710(10) 0.3176(4)
N5 N 0.7813(8) 1.0072(7) 0.2862(3)
C20 C 1.3529(11) 0.4888(12) 0.3264(5)
O2 O 0.6904(9) 1.2115(7) 0.1272(3)
O3 O 0.7668(8) 1.0059(7) 0.0562(3)
N6 N 0.9389(8) 1.1728(8) 0.5084(3)
H15 H 0.9642(8) 1.2509(8) 0.5371(3)
H16 H 0.9415(8) 1.0721(8) 0.5220(3)
O4 O 1.3796(11) 0.6262(7) 0.3458(4)
O5 O 1.2621(8) 0.2009(8) 0.1992(3)
C21 C 0.7000(12) 1.1753(10) 0.0576(4)
C22 C 0.8458(18) 1.2830(13) 0.0233(5)
H17 H 0.8493(18) 1.2553(13) -0.0246(5)
H18 H 0.9711(18) 1.2656(13) 0.0445(5)
H19 H 0.8099(18) 1.3964(13) 0.0281(5)
C23 C 0.5059(16) 1.1804(14) 0.0240(5)
H20 H 0.5156(16) 1.1552(14) -0.0239(5)
H21 H 0.4519(16) 1.2884(14) 0.0290(5)
H22 H 0.4242(16) 1.1009(14) 0.0451(5)

#END
