./ACOTUI_from_POSCAR.cif_generated_by_CrystalShift
_symmetry_cell_setting triclinic
_symmetry_space_group_name_H-M 'P 1'
loop_
_symmetry_equiv_pos_site_id
_symmetry_equiv_pos_as_xyz
1 x,y,z
_cell_length_a 7.985000
_cell_length_b 11.404000
_cell_length_c 12.996000
_cell_angle_alpha 113.740000
_cell_angle_beta 92.240000
_cell_angle_gamma 104.110000
_cell_volume 1037.977176
loop_
_atom_site_label
_atom_site_type_symbol
_atom_site_fract_x
_atom_site_fract_y
_atom_site_fract_z
H1 H 0.899600 0.613900 0.518400
H2 H 0.950100 0.714600 0.647300
H3 H 0.754200 1.037500 0.824900
H4 H 0.884800 0.996000 0.887500
H5 H 0.714000 0.889300 0.809500
H6 H 0.966700 1.216100 0.561700
H7 H 0.985000 1.318800 0.688600
H8 H 1.006800 0.694800 1.104400
H9 H 0.839000 0.718700 1.159000
H10 H 0.799900 1.246500 0.613800
H11 H 0.619600 1.167600 0.366000
H12 H 0.657100 0.627500 0.791500
H13 H 0.651100 1.373000 0.370400
H14 H 0.749500 1.419100 0.225300
H15 H 0.479800 0.456700 0.605400
H16 H 0.833500 1.258200 0.077700
H17 H 0.787800 1.046000 0.069800
H18 H 0.670300 0.882100 0.139000
H19 H 0.789500 0.953700 0.258500
H20 H 0.363100 0.716200 0.090300
H21 H 0.278900 -0.047700 0.539500
H22 H 0.721100 1.047700 0.460500
H23 H 0.520200 0.543300 0.394600
H24 H 0.342900 0.372500 0.208500
H25 H 0.161000 0.281300 -0.159000
H26 H 0.636900 0.283800 0.909700
H27 H -0.006800 0.305200 -0.104400
H28 H 0.100400 0.386100 0.481600
H29 H 0.210500 0.046300 0.741500
H30 H 0.329700 0.117900 0.861000
H31 H 0.157300 0.434100 0.387600
H32 H 0.049900 0.285400 0.352700
H33 H 0.212200 -0.046000 0.930200
H34 H 0.245800 -0.037500 0.175100
H35 H 0.166500 -0.258200 0.922300
H36 H 0.115200 0.004000 0.112500
H37 H 0.250500 -0.419100 0.774700
H38 H 0.286000 0.110700 0.190500
H39 H 0.348900 -0.373000 0.629600
H40 H 0.033300 -0.216100 0.438300
H41 H 0.380400 -0.167600 0.634000
H42 H 0.015000 -0.318800 0.311400
H43 H 0.200100 -0.246500 0.386200
H44 H 0.842700 0.565900 0.612400
C45 C 0.340400 -0.184090 0.694400
C46 C 0.195200 0.032700 0.180760
C47 C 0.320600 -0.307500 0.691200
C48 C 0.260700 -0.335600 0.776000
C49 C 0.214400 -0.238900 0.864900
C50 C 0.138100 0.360600 0.408400
C51 C 0.239700 -0.112000 0.868500
C52 C 0.303200 -0.082910 0.784460
C53 C 0.316400 0.050640 0.783720
C54 C 0.861900 0.639400 0.591600
C55 C 0.804800 0.967300 0.819240
C56 C 0.880200 0.669200 1.089780
C57 C 0.728700 0.579830 0.914770
C58 C 0.913100 1.236800 0.629260
C59 C 0.651000 0.557910 0.812710
C60 C 0.119800 0.330800 -0.089780
C61 C 0.722600 0.478070 0.950150
C62 C 0.638800 0.349900 0.884700
C63 C 0.271300 0.420170 0.085230
C64 C 0.349000 0.442090 0.187290
C65 C 0.551700 0.318530 0.774170
C66 C 0.442400 0.577970 0.262670
C67 C 0.526500 0.610600 0.370490
C68 C 0.461700 0.187420 0.699670
C69 C 0.619600 0.740920 0.443100
C70 C 0.711900 0.775350 0.552830
C71 C 0.799700 0.904670 0.622590
C72 C 0.802400 1.007650 0.586550
C73 C 0.718100 0.979390 0.482850
C74 C 0.374600 0.154610 0.591510
C75 C 0.625400 0.845390 0.408490
C76 C 0.538300 0.812580 0.300330
C77 C 0.448300 0.681470 0.225830
C78 C 0.361200 0.650100 0.115300
C79 C 0.281900 0.020610 0.517150
C80 C 0.277400 0.521930 0.049850
C81 C 0.683600 0.949360 0.216280
C82 C 0.197600 -0.007650 0.413450
C83 C 0.200300 0.095330 0.377410
C84 C 0.696800 1.082910 0.215540
C85 C 0.760300 1.112000 0.131500
C86 C 0.288100 0.224650 0.447170
C87 C 0.785600 1.238900 0.135100
C88 C 0.380400 0.259080 0.556900
C89 C 0.739300 1.335600 0.224000
C90 C 0.473500 0.389400 0.629510
C91 C 0.679400 1.307500 0.308800
C92 C 0.557600 0.422030 0.737330
C93 C 0.659600 1.184090 0.305600
C94 C 0.086900 -0.236800 0.370740
O95 O 0.894500 0.937090 0.725750
O96 O 0.895120 1.132370 0.664210
O97 O 0.535540 0.913780 0.268200
O98 O 0.296170 0.325490 0.413380
O99 O 0.185700 0.467080 -0.058310
O100 O 0.105500 0.062910 0.274250
O101 O 0.104880 -0.132370 0.335790
O102 O 0.464460 0.086220 0.731800
O103 O 0.175900 0.299620 -0.000870
O104 O 0.814300 0.532920 1.058310
O105 O 0.703830 0.674510 0.586620
O106 O 0.824100 0.700380 1.000870

#END
