./ACOTUJ_from_POSCAR.cif_generated_by_CrystalShift
_symmetry_cell_setting triclinic
_symmetry_space_group_name_H-M 'P 1'
loop_
_symmetry_equiv_pos_site_id
_symmetry_equiv_pos_as_xyz
1 x,y,z
_cell_length_a 8.969810
_cell_length_b 9.185190
_cell_length_c 14.952690
_cell_angle_alpha 86.217800
_cell_angle_beta 76.677400
_cell_angle_gamma 77.164100
_cell_volume 1168.690317
loop_
_atom_site_label
_atom_site_type_symbol
_atom_site_fract_x
_atom_site_fract_y
_atom_site_fract_z
H1 H 0.788600 0.198900 0.134700
H2 H 0.965900 0.122600 0.088100
H3 H 0.103800 0.217000 0.593500
H4 H -0.002000 0.181000 0.528500
H5 H 0.398500 -0.275900 0.303700
H6 H 0.561000 -0.401000 0.173600
H7 H 0.778800 -0.309800 0.092300
H8 H 0.843100 -0.104700 0.147200
H9 H 0.684000 0.017800 0.279200
H10 H 0.641400 0.472500 0.907700
H11 H 0.516400 0.627100 0.909400
H12 H 0.635600 0.600800 0.976600
H13 H 0.374200 -0.019700 0.141400
H14 H 0.836700 0.351800 0.811200
H15 H 1.016900 0.363200 0.791000
H16 H 0.930200 0.371900 0.707900
H17 H 0.487200 0.094500 0.105600
H18 H 1.125200 0.719000 0.620900
H19 H 1.096300 0.554500 0.615000
H20 H 1.186600 0.589700 0.689000
H21 H 0.355000 0.082600 0.052100
H22 H 0.986700 0.982200 0.763200
H23 H 0.826000 1.042600 0.730300
H24 H 0.976300 0.951800 0.660800
H25 H 0.023700 0.048200 0.339200
H26 H 0.645000 0.917400 0.947900
H27 H 0.512800 0.905500 0.894400
H28 H 0.625800 1.019700 0.858600
H29 H 0.174000 -0.042600 0.269700
H30 H 0.013300 0.017800 0.236800
H31 H -0.186600 0.410300 0.311000
H32 H -0.096300 0.445500 0.385000
H33 H 0.316000 0.982200 0.720800
H34 H -0.125200 0.281000 0.379100
H35 H 0.156900 1.104700 0.852800
H36 H 0.069800 0.628100 0.292100
H37 H 0.221200 1.309800 0.907700
H38 H -0.016900 0.636800 0.209000
H39 H 0.439000 1.401000 0.826400
H40 H 0.163300 0.648200 0.188800
H41 H 0.601500 1.275900 0.696300
H42 H 0.211400 0.801100 0.865300
H43 H 0.364400 0.399200 0.023400
H44 H 0.896200 0.783000 0.406500
H45 H 0.905300 0.689900 0.500100
H46 H 1.002000 0.819000 0.471500
H47 H 0.034100 0.877400 0.911900
H48 H 0.483600 0.372900 0.090600
H49 H 0.094700 0.310100 0.499900
H50 H 0.602600 1.332100 0.529600
H51 H 0.439400 1.282700 0.538900
H52 H 0.564700 1.266700 0.442700
H53 H 0.435300 -0.266700 0.557300
H54 H 0.560600 -0.282700 0.461100
H55 H 0.397400 -0.332100 0.470400
H56 H 0.358600 0.527500 0.092300
C57 C 0.131330 0.436110 0.218940
C58 C 0.448600 -0.260070 0.490320
C59 C 0.131430 0.182100 0.242720
C60 C 0.267090 0.197040 0.171880
C61 C 0.376970 0.419400 0.084460
C62 C 0.261330 0.356380 0.156360
C63 C 0.127600 0.803000 0.921700
C64 C 0.904600 0.788280 0.470380
C65 C 0.082700 0.601470 0.227980
C66 C 0.511960 1.240260 0.728560
C67 C 0.415600 1.314590 0.805980
C68 C 0.285000 1.261800 0.853380
C69 C -0.102650 0.370000 0.343450
C70 C 0.247860 1.138730 0.821260
C71 C 0.342960 1.065070 0.743180
C72 C 0.477900 1.113440 0.697890
C73 C 0.081300 0.039000 0.274880
C74 C 0.586520 1.033860 0.617780
C75 C 0.683110 0.889660 0.608160
C76 C 0.619400 0.921560 0.887330
C77 C 0.380600 0.078440 0.112670
C78 C 0.918700 0.961000 0.725120
C79 C 1.102650 0.630000 0.656550
C80 C 0.917300 0.398530 0.772020
C81 C 0.316890 0.110340 0.391840
C82 C 0.413480 -0.033860 0.382220
C83 C 0.522100 -0.113440 0.302110
C84 C 0.657040 -0.065070 0.256820
C85 C 0.623030 0.580600 0.915540
C86 C 0.752140 -0.138730 0.178740
C87 C 0.732910 0.802960 0.828120
C88 C 0.715000 -0.261800 0.146620
C89 C 0.868570 0.817900 0.757280
C90 C 0.584400 -0.314590 0.194020
C91 C 0.950020 0.670720 0.724700
C92 C 0.488040 -0.240260 0.271440
C93 C 0.868670 0.563890 0.781060
C94 C 0.738670 0.643620 0.843640
C95 C 0.095400 0.211720 0.529620
C96 C 0.872400 0.197000 0.078300
C97 C 0.551400 1.260070 0.509680
C98 C 0.049980 0.329280 0.275300
N99 N 0.265000 -0.027100 0.524540
N100 N 0.377180 -0.108210 0.463530
N101 N 0.770300 0.897420 0.519710
N102 N 0.735000 1.027100 0.475460
N103 N 0.622820 1.108210 0.536470
N104 N 0.229700 0.102580 0.480290
Cl105 Cl 0.555690 0.299790 0.264960
Cl106 Cl 0.248760 0.475040 0.410290
Cl107 Cl 0.918850 0.373640 0.059210
Cl108 Cl 0.190960 0.857370 1.015570
Cl109 Cl 0.081150 0.626360 0.940790
Cl110 Cl 0.751240 0.524960 0.589710
Cl111 Cl 0.444310 0.700210 0.735040
Cl112 Cl 0.809040 0.142630 -0.015570
Ir113 Ir 0.716510 0.717821 0.701259
Ir114 Ir 0.283490 0.282179 0.298741

#END
