
#######################################################################
#
#                 Cambridge Crystallographic Data Centre
#                                CCDC 
#
#######################################################################
#
# If this CIF has been generated from an entry in the Cambridge 
# Structural Database, then it will include bibliographic, chemical, 
# crystal, experimental, refinement or atomic coordinate data resulting 
# from the CCDC's data processing and validation procedures.
#
#######################################################################

data_ACOWIA
_symmetry_cell_setting           orthorhombic
_symmetry_space_group_name_H-M   'P b c a'
_symmetry_Int_Tables_number      61
_space_group_name_Hall           '-P 2ac 2ab'
loop_
_symmetry_equiv_pos_site_id
_symmetry_equiv_pos_as_xyz
1 x,y,z
2 1/2-x,-y,1/2+z
3 1/2+x,1/2-y,-z
4 -x,1/2+y,1/2-z
5 -x,-y,-z
6 1/2+x,y,1/2-z
7 1/2-x,1/2+y,z
8 x,1/2-y,1/2+z
_cell_length_a                   20.690(18)
_cell_length_b                   8.069(7)
_cell_length_c                   23.51(2)
_cell_angle_alpha                90
_cell_angle_beta                 90
_cell_angle_gamma                90
_cell_volume                     3924.94
loop_
_atom_site_label
_atom_site_type_symbol
_atom_site_fract_x
_atom_site_fract_y
_atom_site_fract_z
Pd1 Pd 0.0000 0.5000 0.0000
P1 P 0.06376(2) 0.65368(6) -0.06569(2)
O1 O -0.05830(9) 0.3642(2) -0.09848(7)
O2 O -0.12087(8) 0.5469(3) -0.05857(8)
N1 N -0.06943(9) 0.4680(3) -0.06008(8)
C1 C 0.02232(10) 0.7789(3) -0.12059(8)
C2 C -0.01618(12) 0.7000(3) -0.16207(9)
H1 H -0.0206 0.5828 -0.1615
C3 C -0.04794(12) 0.7923(3) -0.20414(10)
H2 H -0.0740 0.7380 -0.2317
C4 C -0.04112(13) 0.9652(4) -0.20546(11)
H3 H -0.0624 1.0280 -0.2340
C5 C -0.00287(12) 1.0452(4) -0.16472(12)
H4 H 0.0018 1.1622 -0.1658
C6 C 0.02878(11) 0.9527(3) -0.12218(9)
H5 H 0.0545 1.0076 -0.0945
C7 C 0.11458(10) 0.5111(2) -0.10682(10)
C8 C 0.14329(11) 0.5621(3) -0.15848(9)
H6 H 0.1370 0.6721 -0.1717
C9 C 0.18103(12) 0.4512(3) -0.19035(10)
H7 H 0.1996 0.4855 -0.2254
C10 C 0.19124(12) 0.2889(3) -0.17023(11)
H8 H 0.2168 0.2137 -0.1917
C11 C 0.16374(12) 0.2380(3) -0.11853(11)
H9 H 0.1712 0.1289 -0.1049
C12 C 0.12505(11) 0.3483(3) -0.08677(10)
H10 H 0.1061 0.3132 -0.0520
C13 C 0.11773(9) 0.7988(2) -0.02841(9)
C14 C 0.18508(10) 0.8009(3) -0.03663(10)
H11 H 0.2044 0.7278 -0.0633
C15 C 0.22387(13) 0.9117(3) -0.00515(10)
H12 H 0.2694 0.9120 -0.0102
C16 C 0.19505(13) 1.0219(3) 0.03367(12)
H13 H 0.2213 1.0975 0.0543
C17 C 0.12783(13) 1.0212(3) 0.04215(11)
H14 H 0.1085 1.0967 0.0681
C18 C 0.08937(11) 0.9078(3) 0.01190(10)
H15 H 0.0441 0.9041 0.0185
P1D P -0.06376(2) 0.34632(6) 0.06569(2)
O1D O 0.05830(9) 0.6358(2) 0.09848(7)
O2D O 0.12087(8) 0.4531(3) 0.05857(8)
N1D N 0.06943(9) 0.5320(3) 0.06008(8)
C1D C -0.02232(10) 0.2211(3) 0.12059(8)
C2D C 0.01618(12) 0.3000(3) 0.16207(9)
H1D H 0.0206 0.4172 0.1615
C3D C 0.04794(12) 0.2077(3) 0.20414(10)
H2D H 0.0740 0.2620 0.2317
C4D C 0.04112(13) 0.0348(4) 0.20546(11)
H3D H 0.0624 -0.0280 0.2340
C5D C 0.00287(12) -0.0452(4) 0.16472(12)
H4D H -0.0018 -0.1622 0.1658
C6D C -0.02878(11) 0.0473(3) 0.12218(9)
H5D H -0.0545 -0.0076 0.0945
C7D C -0.11458(10) 0.4889(2) 0.10682(10)
C8D C -0.14329(11) 0.4379(3) 0.15848(9)
H6D H -0.1370 0.3279 0.1717
C9D C -0.18103(12) 0.5488(3) 0.19035(10)
H7D H -0.1996 0.5145 0.2254
C10D C -0.19124(12) 0.7111(3) 0.17023(11)
H8D H -0.2168 0.7863 0.1917
C11D C -0.16374(12) 0.7620(3) 0.11853(11)
H9D H -0.1712 0.8711 0.1049
C12D C -0.12505(11) 0.6517(3) 0.08677(10)
H10D H -0.1061 0.6868 0.0520
C13D C -0.11773(9) 0.2012(2) 0.02841(9)
C14D C -0.18508(10) 0.1991(3) 0.03663(10)
H11D H -0.2044 0.2722 0.0633
C15D C -0.22387(13) 0.0883(3) 0.00515(10)
H12D H -0.2694 0.0880 0.0102
C16D C -0.19505(13) -0.0219(3) -0.03367(12)
H13D H -0.2213 -0.0975 -0.0543
C17D C -0.12783(13) -0.0212(3) -0.04215(11)
H14D H -0.1085 -0.0967 -0.0681
C18D C -0.08937(11) 0.0922(3) -0.01190(10)
H15D H -0.0441 0.0959 -0.0185
Pd1 Pd 0.0000 0.5000 1.0000
P1 P 0.06376(2) 0.65368(6) 0.93431(2)
O1 O -0.05830(9) 0.3642(2) 0.90152(7)
O2 O -0.12087(8) 0.5469(3) 0.94143(8)
N1 N -0.06943(9) 0.4680(3) 0.93992(8)
C1 C 0.02232(10) 0.7789(3) 0.87941(8)
C2 C -0.01618(12) 0.7000(3) 0.83793(9)
H1 H -0.0206 0.5828 0.8385
C3 C -0.04794(12) 0.7923(3) 0.79586(10)
H2 H -0.0740 0.7380 0.7683
C4 C -0.04112(13) 0.9652(4) 0.79454(11)
H3 H -0.0624 1.0280 0.7660
C5 C -0.00287(12) 1.0452(4) 0.83528(12)
H4 H 0.0018 1.1622 0.8342
C6 C 0.02878(11) 0.9527(3) 0.87782(9)
H5 H 0.0545 1.0076 0.9055
C7 C 0.11458(10) 0.5111(2) 0.89318(10)
C8 C 0.14329(11) 0.5621(3) 0.84152(9)
H6 H 0.1370 0.6721 0.8283
C9 C 0.18103(12) 0.4512(3) 0.80965(10)
H7 H 0.1996 0.4855 0.7746
C10 C 0.19124(12) 0.2889(3) 0.82977(11)
H8 H 0.2168 0.2137 0.8083
C11 C 0.16374(12) 0.2380(3) 0.88147(11)
H9 H 0.1712 0.1289 0.8951
C12 C 0.12505(11) 0.3483(3) 0.91323(10)
H10 H 0.1061 0.3132 0.9480
C13 C 0.11773(9) 0.7988(2) 0.97159(9)
C14 C 0.18508(10) 0.8009(3) 0.96337(10)
H11 H 0.2044 0.7278 0.9367
C15 C 0.22387(13) 0.9117(3) 0.99485(10)
H12 H 0.2694 0.9120 0.9898
C16 C 0.19505(13) 1.0219(3) 1.03367(12)
H13 H 0.2213 1.0975 1.0543
C17 C 0.12783(13) 1.0212(3) 1.04215(11)
H14 H 0.1085 1.0967 1.0681
C18 C 0.08937(11) 0.9078(3) 1.01190(10)
H15 H 0.0441 0.9041 1.0185
P1D P -0.06376(2) 0.34632(6) 1.06569(2)
O1D O 0.05830(9) 0.6358(2) 1.09848(7)
O2D O 0.12087(8) 0.4531(3) 1.05857(8)
N1D N 0.06943(9) 0.5320(3) 1.06008(8)
C1D C -0.02232(10) 0.2211(3) 1.12059(8)
C2D C 0.01618(12) 0.3000(3) 1.16207(9)
H1D H 0.0206 0.4172 1.1615
C3D C 0.04794(12) 0.2077(3) 1.20414(10)
H2D H 0.0740 0.2620 1.2317
C4D C 0.04112(13) 0.0348(4) 1.20546(11)
H3D H 0.0624 -0.0280 1.2340
C5D C 0.00287(12) -0.0452(4) 1.16472(12)
H4D H -0.0018 -0.1622 1.1658
C6D C -0.02878(11) 0.0473(3) 1.12218(9)
H5D H -0.0545 -0.0076 1.0945
C7D C -0.11458(10) 0.4889(2) 1.10682(10)
C8D C -0.14329(11) 0.4379(3) 1.15848(9)
H6D H -0.1370 0.3279 1.1717
C9D C -0.18103(12) 0.5488(3) 1.19035(10)
H7D H -0.1996 0.5145 1.2254
C10D C -0.19124(12) 0.7111(3) 1.17023(11)
H8D H -0.2168 0.7863 1.1917
C11D C -0.16374(12) 0.7620(3) 1.11853(11)
H9D H -0.1712 0.8711 1.1049
C12D C -0.12505(11) 0.6517(3) 1.08677(10)
H10D H -0.1061 0.6868 1.0520
C13D C -0.11773(9) 0.2012(2) 1.02841(9)
C14D C -0.18508(10) 0.1991(3) 1.03663(10)
H11D H -0.2044 0.2722 1.0633
C15D C -0.22387(13) 0.0883(3) 1.00515(10)
H12D H -0.2694 0.0880 1.0102
C16D C -0.19505(13) -0.0219(3) 0.96633(12)
H13D H -0.2213 -0.0975 0.9457
C17D C -0.12783(13) -0.0212(3) 0.95785(11)
H14D H -0.1085 -0.0967 0.9319
C18D C -0.08937(11) 0.0922(3) 0.98810(10)
H15D H -0.0441 0.0959 0.9815
Pd1 Pd 1.0000 0.5000 0.0000
P1 P 1.06376(2) 0.65368(6) -0.06569(2)
O1 O 0.94170(9) 0.3642(2) -0.09848(7)
O2 O 0.87913(8) 0.5469(3) -0.05857(8)
N1 N 0.93057(9) 0.4680(3) -0.06008(8)
C1 C 1.02232(10) 0.7789(3) -0.12059(8)
C2 C 0.98382(12) 0.7000(3) -0.16207(9)
H1 H 0.9794 0.5828 -0.1615
C3 C 0.95206(12) 0.7923(3) -0.20414(10)
H2 H 0.9260 0.7380 -0.2317
C4 C 0.95888(13) 0.9652(4) -0.20546(11)
H3 H 0.9376 1.0280 -0.2340
C5 C 0.99713(12) 1.0452(4) -0.16472(12)
H4 H 1.0018 1.1622 -0.1658
C6 C 1.02878(11) 0.9527(3) -0.12218(9)
H5 H 1.0545 1.0076 -0.0945
C7 C 1.11458(10) 0.5111(2) -0.10682(10)
C8 C 1.14329(11) 0.5621(3) -0.15848(9)
H6 H 1.1370 0.6721 -0.1717
C9 C 1.18103(12) 0.4512(3) -0.19035(10)
H7 H 1.1996 0.4855 -0.2254
C10 C 1.19124(12) 0.2889(3) -0.17023(11)
H8 H 1.2168 0.2137 -0.1917
C11 C 1.16374(12) 0.2380(3) -0.11853(11)
H9 H 1.1712 0.1289 -0.1049
C12 C 1.12505(11) 0.3483(3) -0.08677(10)
H10 H 1.1061 0.3132 -0.0520
C13 C 1.11773(9) 0.7988(2) -0.02841(9)
C14 C 1.18508(10) 0.8009(3) -0.03663(10)
H11 H 1.2044 0.7278 -0.0633
C15 C 1.22387(13) 0.9117(3) -0.00515(10)
H12 H 1.2694 0.9120 -0.0102
C16 C 1.19505(13) 1.0219(3) 0.03367(12)
H13 H 1.2213 1.0975 0.0543
C17 C 1.12783(13) 1.0212(3) 0.04215(11)
H14 H 1.1085 1.0967 0.0681
C18 C 1.08937(11) 0.9078(3) 0.01190(10)
H15 H 1.0441 0.9041 0.0185
P1D P 0.93624(2) 0.34632(6) 0.06569(2)
O1D O 1.05830(9) 0.6358(2) 0.09848(7)
O2D O 1.12087(8) 0.4531(3) 0.05857(8)
N1D N 1.06943(9) 0.5320(3) 0.06008(8)
C1D C 0.97768(10) 0.2211(3) 0.12059(8)
C2D C 1.01618(12) 0.3000(3) 0.16207(9)
H1D H 1.0206 0.4172 0.1615
C3D C 1.04794(12) 0.2077(3) 0.20414(10)
H2D H 1.0740 0.2620 0.2317
C4D C 1.04112(13) 0.0348(4) 0.20546(11)
H3D H 1.0624 -0.0280 0.2340
C5D C 1.00287(12) -0.0452(4) 0.16472(12)
H4D H 0.9982 -0.1622 0.1658
C6D C 0.97122(11) 0.0473(3) 0.12218(9)
H5D H 0.9455 -0.0076 0.0945
C7D C 0.88542(10) 0.4889(2) 0.10682(10)
C8D C 0.85671(11) 0.4379(3) 0.15848(9)
H6D H 0.8630 0.3279 0.1717
C9D C 0.81897(12) 0.5488(3) 0.19035(10)
H7D H 0.8004 0.5145 0.2254
C10D C 0.80876(12) 0.7111(3) 0.17023(11)
H8D H 0.7832 0.7863 0.1917
C11D C 0.83626(12) 0.7620(3) 0.11853(11)
H9D H 0.8288 0.8711 0.1049
C12D C 0.87495(11) 0.6517(3) 0.08677(10)
H10D H 0.8939 0.6868 0.0520
C13D C 0.88227(9) 0.2012(2) 0.02841(9)
C14D C 0.81492(10) 0.1991(3) 0.03663(10)
H11D H 0.7956 0.2722 0.0633
C15D C 0.77613(13) 0.0883(3) 0.00515(10)
H12D H 0.7306 0.0880 0.0102
C16D C 0.80495(13) -0.0219(3) -0.03367(12)
H13D H 0.7787 -0.0975 -0.0543
C17D C 0.87217(13) -0.0212(3) -0.04215(11)
H14D H 0.8915 -0.0967 -0.0681
C18D C 0.91063(11) 0.0922(3) -0.01190(10)
H15D H 0.9559 0.0959 -0.0185
Pd1 Pd 1.0000 0.5000 1.0000
P1 P 1.06376(2) 0.65368(6) 0.93431(2)
O1 O 0.94170(9) 0.3642(2) 0.90152(7)
O2 O 0.87913(8) 0.5469(3) 0.94143(8)
N1 N 0.93057(9) 0.4680(3) 0.93992(8)
C1 C 1.02232(10) 0.7789(3) 0.87941(8)
C2 C 0.98382(12) 0.7000(3) 0.83793(9)
H1 H 0.9794 0.5828 0.8385
C3 C 0.95206(12) 0.7923(3) 0.79586(10)
H2 H 0.9260 0.7380 0.7683
C4 C 0.95888(13) 0.9652(4) 0.79454(11)
H3 H 0.9376 1.0280 0.7660
C5 C 0.99713(12) 1.0452(4) 0.83528(12)
H4 H 1.0018 1.1622 0.8342
C6 C 1.02878(11) 0.9527(3) 0.87782(9)
H5 H 1.0545 1.0076 0.9055
C7 C 1.11458(10) 0.5111(2) 0.89318(10)
C8 C 1.14329(11) 0.5621(3) 0.84152(9)
H6 H 1.1370 0.6721 0.8283
C9 C 1.18103(12) 0.4512(3) 0.80965(10)
H7 H 1.1996 0.4855 0.7746
C10 C 1.19124(12) 0.2889(3) 0.82977(11)
H8 H 1.2168 0.2137 0.8083
C11 C 1.16374(12) 0.2380(3) 0.88147(11)
H9 H 1.1712 0.1289 0.8951
C12 C 1.12505(11) 0.3483(3) 0.91323(10)
H10 H 1.1061 0.3132 0.9480
C13 C 1.11773(9) 0.7988(2) 0.97159(9)
C14 C 1.18508(10) 0.8009(3) 0.96337(10)
H11 H 1.2044 0.7278 0.9367
C15 C 1.22387(13) 0.9117(3) 0.99485(10)
H12 H 1.2694 0.9120 0.9898
C16 C 1.19505(13) 1.0219(3) 1.03367(12)
H13 H 1.2213 1.0975 1.0543
C17 C 1.12783(13) 1.0212(3) 1.04215(11)
H14 H 1.1085 1.0967 1.0681
C18 C 1.08937(11) 0.9078(3) 1.01190(10)
H15 H 1.0441 0.9041 1.0185
P1D P 0.93624(2) 0.34632(6) 1.06569(2)
O1D O 1.05830(9) 0.6358(2) 1.09848(7)
O2D O 1.12087(8) 0.4531(3) 1.05857(8)
N1D N 1.06943(9) 0.5320(3) 1.06008(8)
C1D C 0.97768(10) 0.2211(3) 1.12059(8)
C2D C 1.01618(12) 0.3000(3) 1.16207(9)
H1D H 1.0206 0.4172 1.1615
C3D C 1.04794(12) 0.2077(3) 1.20414(10)
H2D H 1.0740 0.2620 1.2317
C4D C 1.04112(13) 0.0348(4) 1.20546(11)
H3D H 1.0624 -0.0280 1.2340
C5D C 1.00287(12) -0.0452(4) 1.16472(12)
H4D H 0.9982 -0.1622 1.1658
C6D C 0.97122(11) 0.0473(3) 1.12218(9)
H5D H 0.9455 -0.0076 1.0945
C7D C 0.88542(10) 0.4889(2) 1.10682(10)
C8D C 0.85671(11) 0.4379(3) 1.15848(9)
H6D H 0.8630 0.3279 1.1717
C9D C 0.81897(12) 0.5488(3) 1.19035(10)
H7D H 0.8004 0.5145 1.2254
C10D C 0.80876(12) 0.7111(3) 1.17023(11)
H8D H 0.7832 0.7863 1.1917
C11D C 0.83626(12) 0.7620(3) 1.11853(11)
H9D H 0.8288 0.8711 1.1049
C12D C 0.87495(11) 0.6517(3) 1.08677(10)
H10D H 0.8939 0.6868 1.0520
C13D C 0.88227(9) 0.2012(2) 1.02841(9)
C14D C 0.81492(10) 0.1991(3) 1.03663(10)
H11D H 0.7956 0.2722 1.0633
C15D C 0.77613(13) 0.0883(3) 1.00515(10)
H12D H 0.7306 0.0880 1.0102
C16D C 0.80495(13) -0.0219(3) 0.96633(12)
H13D H 0.7787 -0.0975 0.9457
C17D C 0.87217(13) -0.0212(3) 0.95785(11)
H14D H 0.8915 -0.0967 0.9319
C18D C 0.91063(11) 0.0922(3) 0.98810(10)
H15D H 0.9559 0.0959 0.9815
Pd1 Pd 0.5000 0.5000 0.5000
P1 P 0.43624(2) 0.34632(6) 0.43431(2)
O1 O 0.55830(9) 0.6358(2) 0.40152(7)
O2 O 0.62087(8) 0.4531(3) 0.44143(8)
N1 N 0.56943(9) 0.5320(3) 0.43992(8)
C1 C 0.47768(10) 0.2211(3) 0.37941(8)
C2 C 0.51618(12) 0.3000(3) 0.33793(9)
H1 H 0.5206 0.4172 0.3385
C3 C 0.54794(12) 0.2077(3) 0.29586(10)
H2 H 0.5740 0.2620 0.2683
C4 C 0.54112(13) 0.0348(4) 0.29454(11)
H3 H 0.5624 -0.0280 0.2660
C5 C 0.50287(12) -0.0452(4) 0.33528(12)
H4 H 0.4982 -0.1622 0.3342
C6 C 0.47122(11) 0.0473(3) 0.37782(9)
H5 H 0.4455 -0.0076 0.4055
C7 C 0.38542(10) 0.4889(2) 0.39318(10)
C8 C 0.35671(11) 0.4379(3) 0.34152(9)
H6 H 0.3630 0.3279 0.3283
C9 C 0.31897(12) 0.5488(3) 0.30965(10)
H7 H 0.3004 0.5145 0.2746
C10 C 0.30876(12) 0.7111(3) 0.32977(11)
H8 H 0.2832 0.7863 0.3083
C11 C 0.33626(12) 0.7620(3) 0.38147(11)
H9 H 0.3288 0.8711 0.3951
C12 C 0.37495(11) 0.6517(3) 0.41323(10)
H10 H 0.3939 0.6868 0.4480
C13 C 0.38227(9) 0.2012(2) 0.47159(9)
C14 C 0.31492(10) 0.1991(3) 0.46337(10)
H11 H 0.2956 0.2722 0.4367
C15 C 0.27613(13) 0.0883(3) 0.49485(10)
H12 H 0.2306 0.0880 0.4898
C16 C 0.30495(13) -0.0219(3) 0.53367(12)
H13 H 0.2787 -0.0975 0.5543
C17 C 0.37217(13) -0.0212(3) 0.54215(11)
H14 H 0.3915 -0.0967 0.5681
C18 C 0.41063(11) 0.0922(3) 0.51190(10)
H15 H 0.4559 0.0959 0.5185
P1D P 0.56376(2) 0.65368(6) 0.56569(2)
O1D O 0.44170(9) 0.3642(2) 0.59848(7)
O2D O 0.37913(8) 0.5469(3) 0.55857(8)
N1D N 0.43057(9) 0.4680(3) 0.56008(8)
C1D C 0.52232(10) 0.7789(3) 0.62059(8)
C2D C 0.48382(12) 0.7000(3) 0.66207(9)
H1D H 0.4794 0.5828 0.6615
C3D C 0.45206(12) 0.7923(3) 0.70414(10)
H2D H 0.4260 0.7380 0.7317
C4D C 0.45888(13) 0.9652(4) 0.70546(11)
H3D H 0.4376 1.0280 0.7340
C5D C 0.49713(12) 1.0452(4) 0.66472(12)
H4D H 0.5018 1.1622 0.6658
C6D C 0.52878(11) 0.9527(3) 0.62218(9)
H5D H 0.5545 1.0076 0.5945
C7D C 0.61458(10) 0.5111(2) 0.60682(10)
C8D C 0.64329(11) 0.5621(3) 0.65848(9)
H6D H 0.6370 0.6721 0.6717
C9D C 0.68103(12) 0.4512(3) 0.69035(10)
H7D H 0.6996 0.4855 0.7254
C10D C 0.69124(12) 0.2889(3) 0.67023(11)
H8D H 0.7168 0.2137 0.6917
C11D C 0.66374(12) 0.2380(3) 0.61853(11)
H9D H 0.6712 0.1289 0.6049
C12D C 0.62505(11) 0.3483(3) 0.58677(10)
H10D H 0.6061 0.3132 0.5520
C13D C 0.61773(9) 0.7988(2) 0.52841(9)
C14D C 0.68508(10) 0.8009(3) 0.53663(10)
H11D H 0.7044 0.7278 0.5633
C15D C 0.72387(13) 0.9117(3) 0.50515(10)
H12D H 0.7694 0.9120 0.5102
C16D C 0.69505(13) 1.0219(3) 0.46633(12)
H13D H 0.7213 1.0975 0.4457
C17D C 0.62783(13) 1.0212(3) 0.45785(11)
H14D H 0.6085 1.0967 0.4319
C18D C 0.58937(11) 0.9078(3) 0.48810(10)
H15D H 0.5441 0.9041 0.4815
Pd1 Pd 0.5000 0.0000 0.0000
P1 P 0.56376(2) -0.15368(6) 0.06569(2)
O1 O 0.44170(9) 0.1358(2) 0.09848(7)
O2 O 0.37913(8) -0.0469(3) 0.05857(8)
N1 N 0.43057(9) 0.0320(3) 0.06008(8)
C1 C 0.52232(10) -0.2789(3) 0.12059(8)
C2 C 0.48382(12) -0.2000(3) 0.16207(9)
H1 H 0.4794 -0.0828 0.1615
C3 C 0.45206(12) -0.2923(3) 0.20414(10)
H2 H 0.4260 -0.2380 0.2317
C4 C 0.45888(13) -0.4652(4) 0.20546(11)
H3 H 0.4376 -0.5280 0.2340
C5 C 0.49713(12) -0.5452(4) 0.16472(12)
H4 H 0.5018 -0.6622 0.1658
C6 C 0.52878(11) -0.4527(3) 0.12218(9)
H5 H 0.5545 -0.5076 0.0945
C7 C 0.61458(10) -0.0111(2) 0.10682(10)
C8 C 0.64329(11) -0.0621(3) 0.15848(9)
H6 H 0.6370 -0.1721 0.1717
C9 C 0.68103(12) 0.0488(3) 0.19035(10)
H7 H 0.6996 0.0145 0.2254
C10 C 0.69124(12) 0.2111(3) 0.17023(11)
H8 H 0.7168 0.2863 0.1917
C11 C 0.66374(12) 0.2620(3) 0.11853(11)
H9 H 0.6712 0.3711 0.1049
C12 C 0.62505(11) 0.1517(3) 0.08677(10)
H10 H 0.6061 0.1868 0.0520
C13 C 0.61773(9) -0.2988(2) 0.02841(9)
C14 C 0.68508(10) -0.3009(3) 0.03663(10)
H11 H 0.7044 -0.2278 0.0633
C15 C 0.72387(13) -0.4117(3) 0.00515(10)
H12 H 0.7694 -0.4120 0.0102
C16 C 0.69505(13) -0.5219(3) -0.03367(12)
H13 H 0.7213 -0.5975 -0.0543
C17 C 0.62783(13) -0.5212(3) -0.04215(11)
H14 H 0.6085 -0.5967 -0.0681
C18 C 0.58937(11) -0.4078(3) -0.01190(10)
H15 H 0.5441 -0.4041 -0.0185
P1D P 0.43624(2) 0.15368(6) -0.06569(2)
O1D O 0.55830(9) -0.1358(2) -0.09848(7)
O2D O 0.62087(8) 0.0469(3) -0.05857(8)
N1D N 0.56943(9) -0.0320(3) -0.06008(8)
C1D C 0.47768(10) 0.2789(3) -0.12059(8)
C2D C 0.51618(12) 0.2000(3) -0.16207(9)
H1D H 0.5206 0.0828 -0.1615
C3D C 0.54794(12) 0.2923(3) -0.20414(10)
H2D H 0.5740 0.2380 -0.2317
C4D C 0.54112(13) 0.4652(4) -0.20546(11)
H3D H 0.5624 0.5280 -0.2340
C5D C 0.50287(12) 0.5452(4) -0.16472(12)
H4D H 0.4982 0.6622 -0.1658
C6D C 0.47122(11) 0.4527(3) -0.12218(9)
H5D H 0.4455 0.5076 -0.0945
C7D C 0.38542(10) 0.0111(2) -0.10682(10)
C8D C 0.35671(11) 0.0621(3) -0.15848(9)
H6D H 0.3630 0.1721 -0.1717
C9D C 0.31897(12) -0.0488(3) -0.19035(10)
H7D H 0.3004 -0.0145 -0.2254
C10D C 0.30876(12) -0.2111(3) -0.17023(11)
H8D H 0.2832 -0.2863 -0.1917
C11D C 0.33626(12) -0.2620(3) -0.11853(11)
H9D H 0.3288 -0.3711 -0.1049
C12D C 0.37495(11) -0.1517(3) -0.08677(10)
H10D H 0.3939 -0.1868 -0.0520
C13D C 0.38227(9) 0.2988(2) -0.02841(9)
C14D C 0.31492(10) 0.3009(3) -0.03663(10)
H11D H 0.2956 0.2278 -0.0633
C15D C 0.27613(13) 0.4117(3) -0.00515(10)
H12D H 0.2306 0.4120 -0.0102
C16D C 0.30495(13) 0.5219(3) 0.03367(12)
H13D H 0.2787 0.5975 0.0543
C17D C 0.37217(13) 0.5212(3) 0.04215(11)
H14D H 0.3915 0.5967 0.0681
C18D C 0.41063(11) 0.4078(3) 0.01190(10)
H15D H 0.4559 0.4041 0.0185
Pd1 Pd 0.5000 0.0000 1.0000
P1 P 0.56376(2) -0.15368(6) 1.06569(2)
O1 O 0.44170(9) 0.1358(2) 1.09848(7)
O2 O 0.37913(8) -0.0469(3) 1.05857(8)
N1 N 0.43057(9) 0.0320(3) 1.06008(8)
C1 C 0.52232(10) -0.2789(3) 1.12059(8)
C2 C 0.48382(12) -0.2000(3) 1.16207(9)
H1 H 0.4794 -0.0828 1.1615
C3 C 0.45206(12) -0.2923(3) 1.20414(10)
H2 H 0.4260 -0.2380 1.2317
C4 C 0.45888(13) -0.4652(4) 1.20546(11)
H3 H 0.4376 -0.5280 1.2340
C5 C 0.49713(12) -0.5452(4) 1.16472(12)
H4 H 0.5018 -0.6622 1.1658
C6 C 0.52878(11) -0.4527(3) 1.12218(9)
H5 H 0.5545 -0.5076 1.0945
C7 C 0.61458(10) -0.0111(2) 1.10682(10)
C8 C 0.64329(11) -0.0621(3) 1.15848(9)
H6 H 0.6370 -0.1721 1.1717
C9 C 0.68103(12) 0.0488(3) 1.19035(10)
H7 H 0.6996 0.0145 1.2254
C10 C 0.69124(12) 0.2111(3) 1.17023(11)
H8 H 0.7168 0.2863 1.1917
C11 C 0.66374(12) 0.2620(3) 1.11853(11)
H9 H 0.6712 0.3711 1.1049
C12 C 0.62505(11) 0.1517(3) 1.08677(10)
H10 H 0.6061 0.1868 1.0520
C13 C 0.61773(9) -0.2988(2) 1.02841(9)
C14 C 0.68508(10) -0.3009(3) 1.03663(10)
H11 H 0.7044 -0.2278 1.0633
C15 C 0.72387(13) -0.4117(3) 1.00515(10)
H12 H 0.7694 -0.4120 1.0102
C16 C 0.69505(13) -0.5219(3) 0.96633(12)
H13 H 0.7213 -0.5975 0.9457
C17 C 0.62783(13) -0.5212(3) 0.95785(11)
H14 H 0.6085 -0.5967 0.9319
C18 C 0.58937(11) -0.4078(3) 0.98810(10)
H15 H 0.5441 -0.4041 0.9815
P1D P 0.43624(2) 0.15368(6) 0.93431(2)
O1D O 0.55830(9) -0.1358(2) 0.90152(7)
O2D O 0.62087(8) 0.0469(3) 0.94143(8)
N1D N 0.56943(9) -0.0320(3) 0.93992(8)
C1D C 0.47768(10) 0.2789(3) 0.87941(8)
C2D C 0.51618(12) 0.2000(3) 0.83793(9)
H1D H 0.5206 0.0828 0.8385
C3D C 0.54794(12) 0.2923(3) 0.79586(10)
H2D H 0.5740 0.2380 0.7683
C4D C 0.54112(13) 0.4652(4) 0.79454(11)
H3D H 0.5624 0.5280 0.7660
C5D C 0.50287(12) 0.5452(4) 0.83528(12)
H4D H 0.4982 0.6622 0.8342
C6D C 0.47122(11) 0.4527(3) 0.87782(9)
H5D H 0.4455 0.5076 0.9055
C7D C 0.38542(10) 0.0111(2) 0.89318(10)
C8D C 0.35671(11) 0.0621(3) 0.84152(9)
H6D H 0.3630 0.1721 0.8283
C9D C 0.31897(12) -0.0488(3) 0.80965(10)
H7D H 0.3004 -0.0145 0.7746
C10D C 0.30876(12) -0.2111(3) 0.82977(11)
H8D H 0.2832 -0.2863 0.8083
C11D C 0.33626(12) -0.2620(3) 0.88147(11)
H9D H 0.3288 -0.3711 0.8951
C12D C 0.37495(11) -0.1517(3) 0.91323(10)
H10D H 0.3939 -0.1868 0.9480
C13D C 0.38227(9) 0.2988(2) 0.97159(9)
C14D C 0.31492(10) 0.3009(3) 0.96337(10)
H11D H 0.2956 0.2278 0.9367
C15D C 0.27613(13) 0.4117(3) 0.99485(10)
H12D H 0.2306 0.4120 0.9898
C16D C 0.30495(13) 0.5219(3) 1.03367(12)
H13D H 0.2787 0.5975 1.0543
C17D C 0.37217(13) 0.5212(3) 1.04215(11)
H14D H 0.3915 0.5967 1.0681
C18D C 0.41063(11) 0.4078(3) 1.01190(10)
H15D H 0.4559 0.4041 1.0185
Pd1 Pd 0.5000 1.0000 0.0000
P1 P 0.56376(2) 0.84632(6) 0.06569(2)
O1 O 0.44170(9) 1.1358(2) 0.09848(7)
O2 O 0.37913(8) 0.9531(3) 0.05857(8)
N1 N 0.43057(9) 1.0320(3) 0.06008(8)
C1 C 0.52232(10) 0.7211(3) 0.12059(8)
C2 C 0.48382(12) 0.8000(3) 0.16207(9)
H1 H 0.4794 0.9172 0.1615
C3 C 0.45206(12) 0.7077(3) 0.20414(10)
H2 H 0.4260 0.7620 0.2317
C4 C 0.45888(13) 0.5348(4) 0.20546(11)
H3 H 0.4376 0.4720 0.2340
C5 C 0.49713(12) 0.4548(4) 0.16472(12)
H4 H 0.5018 0.3378 0.1658
C6 C 0.52878(11) 0.5473(3) 0.12218(9)
H5 H 0.5545 0.4924 0.0945
C7 C 0.61458(10) 0.9889(2) 0.10682(10)
C8 C 0.64329(11) 0.9379(3) 0.15848(9)
H6 H 0.6370 0.8279 0.1717
C9 C 0.68103(12) 1.0488(3) 0.19035(10)
H7 H 0.6996 1.0145 0.2254
C10 C 0.69124(12) 1.2111(3) 0.17023(11)
H8 H 0.7168 1.2863 0.1917
C11 C 0.66374(12) 1.2620(3) 0.11853(11)
H9 H 0.6712 1.3711 0.1049
C12 C 0.62505(11) 1.1517(3) 0.08677(10)
H10 H 0.6061 1.1868 0.0520
C13 C 0.61773(9) 0.7012(2) 0.02841(9)
C14 C 0.68508(10) 0.6991(3) 0.03663(10)
H11 H 0.7044 0.7722 0.0633
C15 C 0.72387(13) 0.5883(3) 0.00515(10)
H12 H 0.7694 0.5880 0.0102
C16 C 0.69505(13) 0.4781(3) -0.03367(12)
H13 H 0.7213 0.4025 -0.0543
C17 C 0.62783(13) 0.4788(3) -0.04215(11)
H14 H 0.6085 0.4033 -0.0681
C18 C 0.58937(11) 0.5922(3) -0.01190(10)
H15 H 0.5441 0.5959 -0.0185
P1D P 0.43624(2) 1.15368(6) -0.06569(2)
O1D O 0.55830(9) 0.8642(2) -0.09848(7)
O2D O 0.62087(8) 1.0469(3) -0.05857(8)
N1D N 0.56943(9) 0.9680(3) -0.06008(8)
C1D C 0.47768(10) 1.2789(3) -0.12059(8)
C2D C 0.51618(12) 1.2000(3) -0.16207(9)
H1D H 0.5206 1.0828 -0.1615
C3D C 0.54794(12) 1.2923(3) -0.20414(10)
H2D H 0.5740 1.2380 -0.2317
C4D C 0.54112(13) 1.4652(4) -0.20546(11)
H3D H 0.5624 1.5280 -0.2340
C5D C 0.50287(12) 1.5452(4) -0.16472(12)
H4D H 0.4982 1.6622 -0.1658
C6D C 0.47122(11) 1.4527(3) -0.12218(9)
H5D H 0.4455 1.5076 -0.0945
C7D C 0.38542(10) 1.0111(2) -0.10682(10)
C8D C 0.35671(11) 1.0621(3) -0.15848(9)
H6D H 0.3630 1.1721 -0.1717
C9D C 0.31897(12) 0.9512(3) -0.19035(10)
H7D H 0.3004 0.9855 -0.2254
C10D C 0.30876(12) 0.7889(3) -0.17023(11)
H8D H 0.2832 0.7137 -0.1917
C11D C 0.33626(12) 0.7380(3) -0.11853(11)
H9D H 0.3288 0.6289 -0.1049
C12D C 0.37495(11) 0.8483(3) -0.08677(10)
H10D H 0.3939 0.8132 -0.0520
C13D C 0.38227(9) 1.2988(2) -0.02841(9)
C14D C 0.31492(10) 1.3009(3) -0.03663(10)
H11D H 0.2956 1.2278 -0.0633
C15D C 0.27613(13) 1.4117(3) -0.00515(10)
H12D H 0.2306 1.4120 -0.0102
C16D C 0.30495(13) 1.5219(3) 0.03367(12)
H13D H 0.2787 1.5975 0.0543
C17D C 0.37217(13) 1.5212(3) 0.04215(11)
H14D H 0.3915 1.5967 0.0681
C18D C 0.41063(11) 1.4078(3) 0.01190(10)
H15D H 0.4559 1.4041 0.0185
Pd1 Pd 0.5000 1.0000 1.0000
P1 P 0.56376(2) 0.84632(6) 1.06569(2)
O1 O 0.44170(9) 1.1358(2) 1.09848(7)
O2 O 0.37913(8) 0.9531(3) 1.05857(8)
N1 N 0.43057(9) 1.0320(3) 1.06008(8)
C1 C 0.52232(10) 0.7211(3) 1.12059(8)
C2 C 0.48382(12) 0.8000(3) 1.16207(9)
H1 H 0.4794 0.9172 1.1615
C3 C 0.45206(12) 0.7077(3) 1.20414(10)
H2 H 0.4260 0.7620 1.2317
C4 C 0.45888(13) 0.5348(4) 1.20546(11)
H3 H 0.4376 0.4720 1.2340
C5 C 0.49713(12) 0.4548(4) 1.16472(12)
H4 H 0.5018 0.3378 1.1658
C6 C 0.52878(11) 0.5473(3) 1.12218(9)
H5 H 0.5545 0.4924 1.0945
C7 C 0.61458(10) 0.9889(2) 1.10682(10)
C8 C 0.64329(11) 0.9379(3) 1.15848(9)
H6 H 0.6370 0.8279 1.1717
C9 C 0.68103(12) 1.0488(3) 1.19035(10)
H7 H 0.6996 1.0145 1.2254
C10 C 0.69124(12) 1.2111(3) 1.17023(11)
H8 H 0.7168 1.2863 1.1917
C11 C 0.66374(12) 1.2620(3) 1.11853(11)
H9 H 0.6712 1.3711 1.1049
C12 C 0.62505(11) 1.1517(3) 1.08677(10)
H10 H 0.6061 1.1868 1.0520
C13 C 0.61773(9) 0.7012(2) 1.02841(9)
C14 C 0.68508(10) 0.6991(3) 1.03663(10)
H11 H 0.7044 0.7722 1.0633
C15 C 0.72387(13) 0.5883(3) 1.00515(10)
H12 H 0.7694 0.5880 1.0102
C16 C 0.69505(13) 0.4781(3) 0.96633(12)
H13 H 0.7213 0.4025 0.9457
C17 C 0.62783(13) 0.4788(3) 0.95785(11)
H14 H 0.6085 0.4033 0.9319
C18 C 0.58937(11) 0.5922(3) 0.98810(10)
H15 H 0.5441 0.5959 0.9815
P1D P 0.43624(2) 1.15368(6) 0.93431(2)
O1D O 0.55830(9) 0.8642(2) 0.90152(7)
O2D O 0.62087(8) 1.0469(3) 0.94143(8)
N1D N 0.56943(9) 0.9680(3) 0.93992(8)
C1D C 0.47768(10) 1.2789(3) 0.87941(8)
C2D C 0.51618(12) 1.2000(3) 0.83793(9)
H1D H 0.5206 1.0828 0.8385
C3D C 0.54794(12) 1.2923(3) 0.79586(10)
H2D H 0.5740 1.2380 0.7683
C4D C 0.54112(13) 1.4652(4) 0.79454(11)
H3D H 0.5624 1.5280 0.7660
C5D C 0.50287(12) 1.5452(4) 0.83528(12)
H4D H 0.4982 1.6622 0.8342
C6D C 0.47122(11) 1.4527(3) 0.87782(9)
H5D H 0.4455 1.5076 0.9055
C7D C 0.38542(10) 1.0111(2) 0.89318(10)
C8D C 0.35671(11) 1.0621(3) 0.84152(9)
H6D H 0.3630 1.1721 0.8283
C9D C 0.31897(12) 0.9512(3) 0.80965(10)
H7D H 0.3004 0.9855 0.7746
C10D C 0.30876(12) 0.7889(3) 0.82977(11)
H8D H 0.2832 0.7137 0.8083
C11D C 0.33626(12) 0.7380(3) 0.88147(11)
H9D H 0.3288 0.6289 0.8951
C12D C 0.37495(11) 0.8483(3) 0.91323(10)
H10D H 0.3939 0.8132 0.9480
C13D C 0.38227(9) 1.2988(2) 0.97159(9)
C14D C 0.31492(10) 1.3009(3) 0.96337(10)
H11D H 0.2956 1.2278 0.9367
C15D C 0.27613(13) 1.4117(3) 0.99485(10)
H12D H 0.2306 1.4120 0.9898
C16D C 0.30495(13) 1.5219(3) 1.03367(12)
H13D H 0.2787 1.5975 1.0543
C17D C 0.37217(13) 1.5212(3) 1.04215(11)
H14D H 0.3915 1.5967 1.0681
C18D C 0.41063(11) 1.4078(3) 1.01190(10)
H15D H 0.4559 1.4041 1.0185
Pd1 Pd 0.0000 0.0000 0.5000
P1 P -0.06376(2) 0.15368(6) 0.56569(2)
O1 O 0.05830(9) -0.1358(2) 0.59848(7)
O2 O 0.12087(8) 0.0469(3) 0.55857(8)
N1 N 0.06943(9) -0.0320(3) 0.56008(8)
C1 C -0.02232(10) 0.2789(3) 0.62059(8)
C2 C 0.01618(12) 0.2000(3) 0.66207(9)
H1 H 0.0206 0.0828 0.6615
C3 C 0.04794(12) 0.2923(3) 0.70414(10)
H2 H 0.0740 0.2380 0.7317
C4 C 0.04112(13) 0.4652(4) 0.70546(11)
H3 H 0.0624 0.5280 0.7340
C5 C 0.00287(12) 0.5452(4) 0.66472(12)
H4 H -0.0018 0.6622 0.6658
C6 C -0.02878(11) 0.4527(3) 0.62218(9)
H5 H -0.0545 0.5076 0.5945
C7 C -0.11458(10) 0.0111(2) 0.60682(10)
C8 C -0.14329(11) 0.0621(3) 0.65848(9)
H6 H -0.1370 0.1721 0.6717
C9 C -0.18103(12) -0.0488(3) 0.69035(10)
H7 H -0.1996 -0.0145 0.7254
C10 C -0.19124(12) -0.2111(3) 0.67023(11)
H8 H -0.2168 -0.2863 0.6917
C11 C -0.16374(12) -0.2620(3) 0.61853(11)
H9 H -0.1712 -0.3711 0.6049
C12 C -0.12505(11) -0.1517(3) 0.58677(10)
H10 H -0.1061 -0.1868 0.5520
C13 C -0.11773(9) 0.2988(2) 0.52841(9)
C14 C -0.18508(10) 0.3009(3) 0.53663(10)
H11 H -0.2044 0.2278 0.5633
C15 C -0.22387(13) 0.4117(3) 0.50515(10)
H12 H -0.2694 0.4120 0.5102
C16 C -0.19505(13) 0.5219(3) 0.46633(12)
H13 H -0.2213 0.5975 0.4457
C17 C -0.12783(13) 0.5212(3) 0.45785(11)
H14 H -0.1085 0.5967 0.4319
C18 C -0.08937(11) 0.4078(3) 0.48810(10)
H15 H -0.0441 0.4041 0.4815
P1D P 0.06376(2) -0.15368(6) 0.43431(2)
O1D O -0.05830(9) 0.1358(2) 0.40152(7)
O2D O -0.12087(8) -0.0469(3) 0.44143(8)
N1D N -0.06943(9) 0.0320(3) 0.43992(8)
C1D C 0.02232(10) -0.2789(3) 0.37941(8)
C2D C -0.01618(12) -0.2000(3) 0.33793(9)
H1D H -0.0206 -0.0828 0.3385
C3D C -0.04794(12) -0.2923(3) 0.29586(10)
H2D H -0.0740 -0.2380 0.2683
C4D C -0.04112(13) -0.4652(4) 0.29454(11)
H3D H -0.0624 -0.5280 0.2660
C5D C -0.00287(12) -0.5452(4) 0.33528(12)
H4D H 0.0018 -0.6622 0.3342
C6D C 0.02878(11) -0.4527(3) 0.37782(9)
H5D H 0.0545 -0.5076 0.4055
C7D C 0.11458(10) -0.0111(2) 0.39318(10)
C8D C 0.14329(11) -0.0621(3) 0.34152(9)
H6D H 0.1370 -0.1721 0.3283
C9D C 0.18103(12) 0.0488(3) 0.30965(10)
H7D H 0.1996 0.0145 0.2746
C10D C 0.19124(12) 0.2111(3) 0.32977(11)
H8D H 0.2168 0.2863 0.3083
C11D C 0.16374(12) 0.2620(3) 0.38147(11)
H9D H 0.1712 0.3711 0.3951
C12D C 0.12505(11) 0.1517(3) 0.41323(10)
H10D H 0.1061 0.1868 0.4480
C13D C 0.11773(9) -0.2988(2) 0.47159(9)
C14D C 0.18508(10) -0.3009(3) 0.46337(10)
H11D H 0.2044 -0.2278 0.4367
C15D C 0.22387(13) -0.4117(3) 0.49485(10)
H12D H 0.2694 -0.4120 0.4898
C16D C 0.19505(13) -0.5219(3) 0.53367(12)
H13D H 0.2213 -0.5975 0.5543
C17D C 0.12783(13) -0.5212(3) 0.54215(11)
H14D H 0.1085 -0.5967 0.5681
C18D C 0.08937(11) -0.4078(3) 0.51190(10)
H15D H 0.0441 -0.4041 0.5185
Pd1 Pd 0.0000 1.0000 0.5000
P1 P -0.06376(2) 1.15368(6) 0.56569(2)
O1 O 0.05830(9) 0.8642(2) 0.59848(7)
O2 O 0.12087(8) 1.0469(3) 0.55857(8)
N1 N 0.06943(9) 0.9680(3) 0.56008(8)
C1 C -0.02232(10) 1.2789(3) 0.62059(8)
C2 C 0.01618(12) 1.2000(3) 0.66207(9)
H1 H 0.0206 1.0828 0.6615
C3 C 0.04794(12) 1.2923(3) 0.70414(10)
H2 H 0.0740 1.2380 0.7317
C4 C 0.04112(13) 1.4652(4) 0.70546(11)
H3 H 0.0624 1.5280 0.7340
C5 C 0.00287(12) 1.5452(4) 0.66472(12)
H4 H -0.0018 1.6622 0.6658
C6 C -0.02878(11) 1.4527(3) 0.62218(9)
H5 H -0.0545 1.5076 0.5945
C7 C -0.11458(10) 1.0111(2) 0.60682(10)
C8 C -0.14329(11) 1.0621(3) 0.65848(9)
H6 H -0.1370 1.1721 0.6717
C9 C -0.18103(12) 0.9512(3) 0.69035(10)
H7 H -0.1996 0.9855 0.7254
C10 C -0.19124(12) 0.7889(3) 0.67023(11)
H8 H -0.2168 0.7137 0.6917
C11 C -0.16374(12) 0.7380(3) 0.61853(11)
H9 H -0.1712 0.6289 0.6049
C12 C -0.12505(11) 0.8483(3) 0.58677(10)
H10 H -0.1061 0.8132 0.5520
C13 C -0.11773(9) 1.2988(2) 0.52841(9)
C14 C -0.18508(10) 1.3009(3) 0.53663(10)
H11 H -0.2044 1.2278 0.5633
C15 C -0.22387(13) 1.4117(3) 0.50515(10)
H12 H -0.2694 1.4120 0.5102
C16 C -0.19505(13) 1.5219(3) 0.46633(12)
H13 H -0.2213 1.5975 0.4457
C17 C -0.12783(13) 1.5212(3) 0.45785(11)
H14 H -0.1085 1.5967 0.4319
C18 C -0.08937(11) 1.4078(3) 0.48810(10)
H15 H -0.0441 1.4041 0.4815
P1D P 0.06376(2) 0.84632(6) 0.43431(2)
O1D O -0.05830(9) 1.1358(2) 0.40152(7)
O2D O -0.12087(8) 0.9531(3) 0.44143(8)
N1D N -0.06943(9) 1.0320(3) 0.43992(8)
C1D C 0.02232(10) 0.7211(3) 0.37941(8)
C2D C -0.01618(12) 0.8000(3) 0.33793(9)
H1D H -0.0206 0.9172 0.3385
C3D C -0.04794(12) 0.7077(3) 0.29586(10)
H2D H -0.0740 0.7620 0.2683
C4D C -0.04112(13) 0.5348(4) 0.29454(11)
H3D H -0.0624 0.4720 0.2660
C5D C -0.00287(12) 0.4548(4) 0.33528(12)
H4D H 0.0018 0.3378 0.3342
C6D C 0.02878(11) 0.5473(3) 0.37782(9)
H5D H 0.0545 0.4924 0.4055
C7D C 0.11458(10) 0.9889(2) 0.39318(10)
C8D C 0.14329(11) 0.9379(3) 0.34152(9)
H6D H 0.1370 0.8279 0.3283
C9D C 0.18103(12) 1.0488(3) 0.30965(10)
H7D H 0.1996 1.0145 0.2746
C10D C 0.19124(12) 1.2111(3) 0.32977(11)
H8D H 0.2168 1.2863 0.3083
C11D C 0.16374(12) 1.2620(3) 0.38147(11)
H9D H 0.1712 1.3711 0.3951
C12D C 0.12505(11) 1.1517(3) 0.41323(10)
H10D H 0.1061 1.1868 0.4480
C13D C 0.11773(9) 0.7012(2) 0.47159(9)
C14D C 0.18508(10) 0.6991(3) 0.46337(10)
H11D H 0.2044 0.7722 0.4367
C15D C 0.22387(13) 0.5883(3) 0.49485(10)
H12D H 0.2694 0.5880 0.4898
C16D C 0.19505(13) 0.4781(3) 0.53367(12)
H13D H 0.2213 0.4025 0.5543
C17D C 0.12783(13) 0.4788(3) 0.54215(11)
H14D H 0.1085 0.4033 0.5681
C18D C 0.08937(11) 0.5922(3) 0.51190(10)
H15D H 0.0441 0.5959 0.5185
Pd1 Pd 1.0000 0.0000 0.5000
P1 P 0.93624(2) 0.15368(6) 0.56569(2)
O1 O 1.05830(9) -0.1358(2) 0.59848(7)
O2 O 1.12087(8) 0.0469(3) 0.55857(8)
N1 N 1.06943(9) -0.0320(3) 0.56008(8)
C1 C 0.97768(10) 0.2789(3) 0.62059(8)
C2 C 1.01618(12) 0.2000(3) 0.66207(9)
H1 H 1.0206 0.0828 0.6615
C3 C 1.04794(12) 0.2923(3) 0.70414(10)
H2 H 1.0740 0.2380 0.7317
C4 C 1.04112(13) 0.4652(4) 0.70546(11)
H3 H 1.0624 0.5280 0.7340
C5 C 1.00287(12) 0.5452(4) 0.66472(12)
H4 H 0.9982 0.6622 0.6658
C6 C 0.97122(11) 0.4527(3) 0.62218(9)
H5 H 0.9455 0.5076 0.5945
C7 C 0.88542(10) 0.0111(2) 0.60682(10)
C8 C 0.85671(11) 0.0621(3) 0.65848(9)
H6 H 0.8630 0.1721 0.6717
C9 C 0.81897(12) -0.0488(3) 0.69035(10)
H7 H 0.8004 -0.0145 0.7254
C10 C 0.80876(12) -0.2111(3) 0.67023(11)
H8 H 0.7832 -0.2863 0.6917
C11 C 0.83626(12) -0.2620(3) 0.61853(11)
H9 H 0.8288 -0.3711 0.6049
C12 C 0.87495(11) -0.1517(3) 0.58677(10)
H10 H 0.8939 -0.1868 0.5520
C13 C 0.88227(9) 0.2988(2) 0.52841(9)
C14 C 0.81492(10) 0.3009(3) 0.53663(10)
H11 H 0.7956 0.2278 0.5633
C15 C 0.77613(13) 0.4117(3) 0.50515(10)
H12 H 0.7306 0.4120 0.5102
C16 C 0.80495(13) 0.5219(3) 0.46633(12)
H13 H 0.7787 0.5975 0.4457
C17 C 0.87217(13) 0.5212(3) 0.45785(11)
H14 H 0.8915 0.5967 0.4319
C18 C 0.91063(11) 0.4078(3) 0.48810(10)
H15 H 0.9559 0.4041 0.4815
P1D P 1.06376(2) -0.15368(6) 0.43431(2)
O1D O 0.94170(9) 0.1358(2) 0.40152(7)
O2D O 0.87913(8) -0.0469(3) 0.44143(8)
N1D N 0.93057(9) 0.0320(3) 0.43992(8)
C1D C 1.02232(10) -0.2789(3) 0.37941(8)
C2D C 0.98382(12) -0.2000(3) 0.33793(9)
H1D H 0.9794 -0.0828 0.3385
C3D C 0.95206(12) -0.2923(3) 0.29586(10)
H2D H 0.9260 -0.2380 0.2683
C4D C 0.95888(13) -0.4652(4) 0.29454(11)
H3D H 0.9376 -0.5280 0.2660
C5D C 0.99713(12) -0.5452(4) 0.33528(12)
H4D H 1.0018 -0.6622 0.3342
C6D C 1.02878(11) -0.4527(3) 0.37782(9)
H5D H 1.0545 -0.5076 0.4055
C7D C 1.11458(10) -0.0111(2) 0.39318(10)
C8D C 1.14329(11) -0.0621(3) 0.34152(9)
H6D H 1.1370 -0.1721 0.3283
C9D C 1.18103(12) 0.0488(3) 0.30965(10)
H7D H 1.1996 0.0145 0.2746
C10D C 1.19124(12) 0.2111(3) 0.32977(11)
H8D H 1.2168 0.2863 0.3083
C11D C 1.16374(12) 0.2620(3) 0.38147(11)
H9D H 1.1712 0.3711 0.3951
C12D C 1.12505(11) 0.1517(3) 0.41323(10)
H10D H 1.1061 0.1868 0.4480
C13D C 1.11773(9) -0.2988(2) 0.47159(9)
C14D C 1.18508(10) -0.3009(3) 0.46337(10)
H11D H 1.2044 -0.2278 0.4367
C15D C 1.22387(13) -0.4117(3) 0.49485(10)
H12D H 1.2694 -0.4120 0.4898
C16D C 1.19505(13) -0.5219(3) 0.53367(12)
H13D H 1.2213 -0.5975 0.5543
C17D C 1.12783(13) -0.5212(3) 0.54215(11)
H14D H 1.1085 -0.5967 0.5681
C18D C 1.08937(11) -0.4078(3) 0.51190(10)
H15D H 1.0441 -0.4041 0.5185
Pd1 Pd 1.0000 1.0000 0.5000
P1 P 0.93624(2) 1.15368(6) 0.56569(2)
O1 O 1.05830(9) 0.8642(2) 0.59848(7)
O2 O 1.12087(8) 1.0469(3) 0.55857(8)
N1 N 1.06943(9) 0.9680(3) 0.56008(8)
C1 C 0.97768(10) 1.2789(3) 0.62059(8)
C2 C 1.01618(12) 1.2000(3) 0.66207(9)
H1 H 1.0206 1.0828 0.6615
C3 C 1.04794(12) 1.2923(3) 0.70414(10)
H2 H 1.0740 1.2380 0.7317
C4 C 1.04112(13) 1.4652(4) 0.70546(11)
H3 H 1.0624 1.5280 0.7340
C5 C 1.00287(12) 1.5452(4) 0.66472(12)
H4 H 0.9982 1.6622 0.6658
C6 C 0.97122(11) 1.4527(3) 0.62218(9)
H5 H 0.9455 1.5076 0.5945
C7 C 0.88542(10) 1.0111(2) 0.60682(10)
C8 C 0.85671(11) 1.0621(3) 0.65848(9)
H6 H 0.8630 1.1721 0.6717
C9 C 0.81897(12) 0.9512(3) 0.69035(10)
H7 H 0.8004 0.9855 0.7254
C10 C 0.80876(12) 0.7889(3) 0.67023(11)
H8 H 0.7832 0.7137 0.6917
C11 C 0.83626(12) 0.7380(3) 0.61853(11)
H9 H 0.8288 0.6289 0.6049
C12 C 0.87495(11) 0.8483(3) 0.58677(10)
H10 H 0.8939 0.8132 0.5520
C13 C 0.88227(9) 1.2988(2) 0.52841(9)
C14 C 0.81492(10) 1.3009(3) 0.53663(10)
H11 H 0.7956 1.2278 0.5633
C15 C 0.77613(13) 1.4117(3) 0.50515(10)
H12 H 0.7306 1.4120 0.5102
C16 C 0.80495(13) 1.5219(3) 0.46633(12)
H13 H 0.7787 1.5975 0.4457
C17 C 0.87217(13) 1.5212(3) 0.45785(11)
H14 H 0.8915 1.5967 0.4319
C18 C 0.91063(11) 1.4078(3) 0.48810(10)
H15 H 0.9559 1.4041 0.4815
P1D P 1.06376(2) 0.84632(6) 0.43431(2)
O1D O 0.94170(9) 1.1358(2) 0.40152(7)
O2D O 0.87913(8) 0.9531(3) 0.44143(8)
N1D N 0.93057(9) 1.0320(3) 0.43992(8)
C1D C 1.02232(10) 0.7211(3) 0.37941(8)
C2D C 0.98382(12) 0.8000(3) 0.33793(9)
H1D H 0.9794 0.9172 0.3385
C3D C 0.95206(12) 0.7077(3) 0.29586(10)
H2D H 0.9260 0.7620 0.2683
C4D C 0.95888(13) 0.5348(4) 0.29454(11)
H3D H 0.9376 0.4720 0.2660
C5D C 0.99713(12) 0.4548(4) 0.33528(12)
H4D H 1.0018 0.3378 0.3342
C6D C 1.02878(11) 0.5473(3) 0.37782(9)
H5D H 1.0545 0.4924 0.4055
C7D C 1.11458(10) 0.9889(2) 0.39318(10)
C8D C 1.14329(11) 0.9379(3) 0.34152(9)
H6D H 1.1370 0.8279 0.3283
C9D C 1.18103(12) 1.0488(3) 0.30965(10)
H7D H 1.1996 1.0145 0.2746
C10D C 1.19124(12) 1.2111(3) 0.32977(11)
H8D H 1.2168 1.2863 0.3083
C11D C 1.16374(12) 1.2620(3) 0.38147(11)
H9D H 1.1712 1.3711 0.3951
C12D C 1.12505(11) 1.1517(3) 0.41323(10)
H10D H 1.1061 1.1868 0.4480
C13D C 1.11773(9) 0.7012(2) 0.47159(9)
C14D C 1.18508(10) 0.6991(3) 0.46337(10)
H11D H 1.2044 0.7722 0.4367
C15D C 1.22387(13) 0.5883(3) 0.49485(10)
H12D H 1.2694 0.5880 0.4898
C16D C 1.19505(13) 0.4781(3) 0.53367(12)
H13D H 1.2213 0.4025 0.5543
C17D C 1.12783(13) 0.4788(3) 0.54215(11)
H14D H 1.1085 0.4033 0.5681
C18D C 1.08937(11) 0.5922(3) 0.51190(10)
H15D H 1.0441 0.5959 0.5185
Cl1 Cl 0.85392(4) 0.12752(10) 0.27375(3)
Cl2 Cl 0.73451(4) 0.25888(11) 0.32627(4)
C19 C 0.81634(16) 0.2019(4) 0.33742(12)
H16 H 0.8184 0.1145 0.3669
H17 H 0.8406 0.2992 0.3516
Cl1 Cl 0.64608(4) 0.87248(10) 0.77375(3)
Cl2 Cl 0.76549(4) 0.74112(11) 0.82627(4)
C19 C 0.68366(16) 0.7981(4) 0.83742(12)
H16 H 0.6816 0.8855 0.8669
H17 H 0.6594 0.7008 0.8516
Cl1 Cl 0.35392(4) 0.37248(10) 0.72625(3)
Cl2 Cl 0.23451(4) 0.24112(11) 0.67373(4)
C19 C 0.31634(16) 0.2981(4) 0.66258(12)
H16 H 0.3184 0.3855 0.6331
H17 H 0.3406 0.2008 0.6484
Cl1 Cl 0.14608(4) 0.62752(10) 0.22625(3)
Cl2 Cl 0.26549(4) 0.75888(11) 0.17373(4)
C19 C 0.18366(16) 0.7019(4) 0.16258(12)
H16 H 0.1816 0.6145 0.1331
H17 H 0.1594 0.7992 0.1484
Cl1 Cl 0.14608(4) 0.87248(10) 0.72625(3)
Cl2 Cl 0.26549(4) 0.74112(11) 0.67373(4)
C19 C 0.18366(16) 0.7981(4) 0.66258(12)
H16 H 0.1816 0.8855 0.6331
H17 H 0.1594 0.7008 0.6484
Cl1 Cl 0.35392(4) 0.12752(10) 0.22625(3)
Cl2 Cl 0.23451(4) 0.25888(11) 0.17373(4)
C19 C 0.31634(16) 0.2019(4) 0.16258(12)
H16 H 0.3184 0.1145 0.1331
H17 H 0.3406 0.2992 0.1484
Cl1 Cl 0.64608(4) 0.62752(10) 0.27375(3)
Cl2 Cl 0.76549(4) 0.75888(11) 0.32627(4)
C19 C 0.68366(16) 0.7019(4) 0.33742(12)
H16 H 0.6816 0.6145 0.3669
H17 H 0.6594 0.7992 0.3516
Cl1 Cl 0.85392(4) 0.37248(10) 0.77375(3)
Cl2 Cl 0.73451(4) 0.24112(11) 0.82627(4)
C19 C 0.81634(16) 0.2981(4) 0.83742(12)
H16 H 0.8184 0.3855 0.8669
H17 H 0.8406 0.2008 0.8516

#END
