./ACOWUM_from_POSCAR.cif_generated_by_CrystalShift
_symmetry_cell_setting triclinic
_symmetry_space_group_name_H-M 'P 1'
loop_
_symmetry_equiv_pos_site_id
_symmetry_equiv_pos_as_xyz
1 x,y,z
_cell_length_a 9.594000
_cell_length_b 9.998700
_cell_length_c 10.127400
_cell_angle_alpha 111.490000
_cell_angle_beta 90.473000
_cell_angle_gamma 115.209000
_cell_volume 802.142252
loop_
_atom_site_label
_atom_site_type_symbol
_atom_site_fract_x
_atom_site_fract_y
_atom_site_fract_z
H1 H 0.205800 0.646400 0.580900
H2 H 1.037500 0.409800 0.350500
H3 H 1.066700 0.408600 0.121100
H4 H 0.849100 0.333600 -0.045900
H5 H 0.602000 0.269800 0.020000
H6 H 0.432900 0.464900 0.158800
H7 H 0.294600 0.422400 -0.056300
H8 H 0.806000 0.957800 0.641700
H9 H 0.117400 0.160200 -0.217600
H10 H 0.886300 1.200700 0.614200
H11 H 0.076000 -0.061400 -0.164100
H12 H 0.721000 1.323800 0.646000
H13 H 0.220300 -0.020100 0.048100
H14 H 0.479300 1.208200 0.709500
H15 H 0.602000 0.034400 0.259500
H16 H 0.398000 0.965600 0.740500
H17 H 0.520700 -0.208200 0.290500
H18 H 0.279000 -0.323800 0.354000
H19 H 0.779700 1.020100 0.951900
H20 H 0.113700 -0.200700 0.385800
H21 H 0.924000 1.061400 1.164100
H22 H 0.194000 0.042200 0.358300
H23 H 0.882600 0.839800 1.217600
H24 H 0.794200 0.353600 0.419100
H25 H 0.705400 0.577600 1.056300
H26 H -0.037500 0.590200 0.649500
H27 H 0.567100 0.535100 0.841200
H28 H -0.066700 0.591400 0.878900
H29 H 0.150900 0.666400 1.045900
H30 H 0.398000 0.730200 0.980000
C31 C 0.162500 0.662500 0.951700
C32 C 0.309500 0.700200 0.912500
C33 C 0.033600 0.619200 0.852700
C34 C 0.325500 0.693700 0.773900
C35 C 0.050400 0.616200 0.715700
C36 C 0.637700 0.642000 0.907600
C37 C 0.195000 0.651200 0.675500
C38 C 0.720800 0.667300 1.034800
C39 C 0.805000 0.348800 0.324500
C40 C 0.949600 0.383800 0.284300
C41 C 0.966400 0.380800 0.147300
C42 C 0.837500 0.337500 0.048300
C43 C 0.405500 0.061200 0.305600
C44 C 0.260000 -0.008600 0.343900
C45 C 0.826300 0.823100 1.130600
C46 C 0.212800 -0.152300 0.360900
C47 C 0.850100 0.955000 1.099500
C48 C 0.311200 -0.226000 0.341400
C49 C 0.764900 0.930400 0.972900
C50 C 0.454800 -0.157400 0.303900
C51 C 0.658200 0.774000 0.877700
C52 C 0.503400 -0.012900 0.285400
C53 C 0.496600 1.012900 0.714600
C54 C 0.341800 0.226000 0.122300
C55 C 0.235100 0.069600 0.027100
C56 C 0.545200 1.157400 0.696100
C57 C 0.149900 0.045000 -0.099500
C58 C 0.688800 1.226000 0.658600
C59 C 0.173700 0.176900 -0.130600
C60 C 0.787200 1.152300 0.639100
C61 C 0.279200 0.332700 -0.034800
C62 C 0.740000 1.008600 0.656100
C63 C 0.362300 0.358000 0.092400
C64 C 0.594500 0.938800 0.694400
C65 C 0.674500 0.306300 0.226100
C66 C 0.690500 0.299800 0.087500
N67 N 0.294300 0.356500 0.538700
N68 N 0.705700 0.643500 0.461300
O69 O 0.827900 0.696800 0.546300
O70 O 0.172100 0.303200 0.453700
O71 O 0.701700 0.677100 0.357200
O72 O 0.298300 0.322900 0.642800
As73 As 0.476540 0.266660 0.289620
As74 As 0.523460 0.733340 0.710380
Pd75 Pd 0.500000 0.500000 0.500000

#END
