./ACOWIA_from_POSCAR.cif_generated_by_CrystalShift
_symmetry_cell_setting triclinic
_symmetry_space_group_name_H-M 'P 1'
loop_
_symmetry_equiv_pos_site_id
_symmetry_equiv_pos_as_xyz
1 x,y,z
_cell_length_a 20.690000
_cell_length_b 8.069000
_cell_length_c 23.510000
_cell_angle_alpha 90.000000
_cell_angle_beta 90.000000
_cell_angle_gamma 90.000000
_cell_volume 3924.938311
loop_
_atom_site_label
_atom_site_type_symbol
_atom_site_fract_x
_atom_site_fract_y
_atom_site_fract_z
H1 H 0.300400 -0.014500 0.774600
H2 H 0.818400 0.385500 0.866900
H3 H 0.659400 0.799200 0.351600
H4 H 0.681600 0.614500 0.366900
H5 H 0.340600 0.299200 0.148400
H6 H 0.318400 0.114500 0.133100
H7 H 0.159400 0.700800 0.648400
H8 H -0.020600 0.582800 -0.161500
H9 H 0.181600 0.885500 0.633100
H10 H -0.074000 0.738000 -0.231700
H11 H 0.159400 0.799200 0.148400
H12 H -0.062400 1.028000 -0.234000
H13 H 0.181600 0.614500 0.133100
H14 H 0.001800 1.162200 -0.165800
H15 H 0.340600 0.200800 0.648400
H16 H 0.054500 1.007600 -0.094500
H17 H 0.318400 0.385500 0.633100
H18 H 0.659400 0.700800 0.851600
H19 H 0.137000 0.672100 -0.171700
H20 H 0.681600 0.885500 0.866900
H21 H 0.199600 0.485500 -0.225400
H22 H 0.840600 0.299200 0.351600
H23 H 0.216800 0.213700 -0.191700
H24 H 0.818400 0.114500 0.366900
H25 H 0.171200 0.128900 -0.104900
H26 H 1.044100 0.595900 0.518500
H27 H 0.106100 0.313200 -0.052000
H28 H 1.108500 0.403300 0.568100
H29 H 1.221300 0.402500 0.554300
H30 H 0.204400 0.727800 -0.063300
H31 H 1.269400 0.588000 0.489800
H32 H 0.269400 0.912000 -0.010200
H33 H 1.204400 0.772200 0.436700
H34 H 0.221300 1.097500 0.054300
H35 H 1.106100 1.186800 0.448000
H36 H 0.108500 1.096700 0.068100
H37 H 1.171200 1.371100 0.395100
H38 H 0.044100 0.904100 0.018500
H39 H 1.216800 1.286300 0.308300
H40 H 1.199600 1.014500 0.274600
H41 H 1.137000 0.827900 0.328300
H42 H 1.054500 0.492400 0.405500
H43 H 1.001800 0.337800 0.334200
H44 H 0.937600 0.472000 0.266000
H45 H 0.020600 0.417200 0.161500
H46 H 0.926000 0.762000 0.268300
H47 H 0.074000 0.262000 0.231700
H48 H 0.979400 0.917200 0.338500
H49 H 0.062400 -0.028000 0.234000
H50 H 0.955900 1.404100 0.481500
H51 H -0.001800 -0.162200 0.165800
H52 H 0.891500 1.596700 0.431900
H53 H -0.054500 -0.007600 0.094500
H54 H 0.778700 1.597500 0.445700
H55 H 0.730600 1.412000 0.510200
H56 H -0.137000 0.327900 0.171700
H57 H 0.795600 1.227800 0.563300
H58 H -0.199600 0.514500 0.225400
H59 H 0.893900 0.813200 0.552000
H60 H -0.216800 0.786300 0.191700
H61 H 0.828800 0.628900 0.604900
H62 H -0.171200 0.871100 0.104900
H63 H 0.783200 0.713700 0.691700
H64 H -0.106100 0.686800 0.052000
H65 H 0.800400 0.985500 0.725400
H66 H 0.863000 1.172100 0.671700
H67 H -0.204400 0.272200 0.063300
H68 H 0.945500 1.507600 0.594500
H69 H -0.269400 0.088000 0.010200
H70 H 0.998200 1.662200 0.665800
H71 H -0.221300 -0.097500 -0.054300
H72 H 1.062400 1.528000 0.734000
H73 H -0.108500 -0.096700 -0.068100
H74 H 1.074000 1.238000 0.731700
H75 H -0.044100 0.095900 -0.018500
H76 H 1.020600 1.082800 0.661500
H77 H 1.044100 -0.404100 0.518500
H78 H 1.108500 -0.596700 0.568100
H79 H 1.221300 -0.597500 0.554300
H80 H 1.269400 -0.412000 0.489800
H81 H 1.204400 -0.227800 0.436700
H82 H 1.106100 0.186800 0.448000
H83 H -0.020600 0.582800 0.838500
H84 H 1.171200 0.371100 0.395100
H85 H -0.074000 0.738000 0.768300
H86 H 1.216800 0.286300 0.308300
H87 H -0.062400 1.028000 0.766000
H88 H 1.199600 0.014500 0.274600
H89 H 0.001800 1.162200 0.834200
H90 H 1.137000 -0.172100 0.328300
H91 H 0.054500 1.007600 0.905500
H92 H 1.054500 -0.507600 0.405500
H93 H 1.001800 -0.662200 0.334200
H94 H 0.137000 0.672100 0.828300
H95 H 0.937600 -0.528000 0.266000
H96 H 0.199600 0.485500 0.774600
H97 H 0.926000 -0.238000 0.268300
H98 H 0.216800 0.213700 0.808300
H99 H 0.979400 -0.082800 0.338500
H100 H 0.171200 0.128900 0.895100
H101 H 0.955900 0.404100 0.481500
H102 H 0.106100 0.313200 0.948000
H103 H 0.891500 0.596700 0.431900
H104 H 0.778700 0.597500 0.445700
H105 H 0.204400 0.727800 0.936700
H106 H 0.730600 0.412000 0.510200
H107 H 0.269400 0.912000 0.989800
H108 H 0.795600 0.227800 0.563300
H109 H 0.221300 1.097500 1.054300
H110 H 0.893900 -0.186800 0.552000
H111 H 0.108500 1.096700 1.068100
H112 H 0.828800 -0.371100 0.604900
H113 H 0.044100 0.904100 1.018500
H114 H 0.783200 -0.286300 0.691700
H115 H 0.800400 -0.014500 0.725400
H116 H 0.863000 0.172100 0.671700
H117 H 0.945500 0.507600 0.594500
H118 H 0.998200 0.662200 0.665800
H119 H 1.062400 0.528000 0.734000
H120 H 0.020600 0.417200 1.161500
H121 H 1.074000 0.238000 0.731700
H122 H 0.074000 0.262000 1.231700
H123 H 1.020600 0.082800 0.661500
H124 H 0.062400 -0.028000 1.234000
H125 H 0.044100 0.595900 0.518500
H126 H -0.001800 -0.162200 1.165800
H127 H 0.108500 0.403300 0.568100
H128 H -0.054500 -0.007600 1.094500
H129 H 0.221300 0.402500 0.554300
H130 H 0.269400 0.588000 0.489800
H131 H -0.137000 0.327900 1.171700
H132 H 0.204400 0.772200 0.436700
H133 H -0.199600 0.514500 1.225400
H134 H 0.106100 1.186800 0.448000
H135 H -0.216800 0.786300 1.191700
H136 H 0.171200 1.371100 0.395100
H137 H -0.171200 0.871100 1.104900
H138 H 0.216800 1.286300 0.308300
H139 H -0.106100 0.686800 1.052000
H140 H 0.199600 1.014500 0.274600
H141 H 0.137000 0.827900 0.328300
H142 H -0.204400 0.272200 1.063300
H143 H 0.054500 0.492400 0.405500
H144 H -0.269400 0.088000 1.010200
H145 H 0.001800 0.337800 0.334200
H146 H -0.221300 -0.097500 0.945700
H147 H -0.062400 0.472000 0.266000
H148 H -0.108500 -0.096700 0.931900
H149 H -0.074000 0.762000 0.268300
H150 H -0.044100 0.095900 0.981500
H151 H -0.020600 0.917200 0.338500
H152 H -0.044100 1.404100 0.481500
H153 H -0.108500 1.596700 0.431900
H154 H -0.221300 1.597500 0.445700
H155 H -0.269400 1.412000 0.510200
H156 H -0.204400 1.227800 0.563300
H157 H -0.106100 0.813200 0.552000
H158 H 0.979400 0.582800 -0.161500
H159 H -0.171200 0.628900 0.604900
H160 H 0.926000 0.738000 -0.231700
H161 H -0.216800 0.713700 0.691700
H162 H 0.937600 1.028000 -0.234000
H163 H -0.199600 0.985500 0.725400
H164 H 1.001800 1.162200 -0.165800
H165 H -0.137000 1.172100 0.671700
H166 H 1.054500 1.007600 -0.094500
H167 H -0.054500 1.507600 0.594500
H168 H -0.001800 1.662200 0.665800
H169 H 1.137000 0.672100 -0.171700
H170 H 0.062400 1.528000 0.734000
H171 H 1.199600 0.485500 -0.225400
H172 H 0.074000 1.238000 0.731700
H173 H 1.216800 0.213700 -0.191700
H174 H 0.020600 1.082800 0.661500
H175 H 1.171200 0.128900 -0.104900
H176 H 0.044100 -0.404100 0.518500
H177 H 1.106100 0.313200 -0.052000
H178 H 0.108500 -0.596700 0.568100
H179 H 0.221300 -0.597500 0.554300
H180 H 1.204400 0.727800 -0.063300
H181 H 0.269400 -0.412000 0.489800
H182 H 1.269400 0.912000 -0.010200
H183 H 0.204400 -0.227800 0.436700
H184 H 1.221300 1.097500 0.054300
H185 H 0.106100 0.186800 0.448000
H186 H 1.108500 1.096700 0.068100
H187 H 0.171200 0.371100 0.395100
H188 H 1.044100 0.904100 0.018500
H189 H 0.216800 0.286300 0.308300
H190 H 0.199600 0.014500 0.274600
H191 H 0.137000 -0.172100 0.328300
H192 H 0.054500 -0.507600 0.405500
H193 H 0.001800 -0.662200 0.334200
H194 H -0.062400 -0.528000 0.266000
H195 H 1.020600 0.417200 0.161500
H196 H -0.074000 -0.238000 0.268300
H197 H 1.074000 0.262000 0.231700
H198 H -0.020600 -0.082800 0.338500
H199 H 1.062400 -0.028000 0.234000
H200 H -0.044100 0.404100 0.481500
H201 H 0.998200 -0.162200 0.165800
H202 H -0.108500 0.596700 0.431900
H203 H 0.945500 -0.007600 0.094500
H204 H -0.221300 0.597500 0.445700
H205 H -0.269400 0.412000 0.510200
H206 H 0.863000 0.327900 0.171700
H207 H -0.204400 0.227800 0.563300
H208 H 0.800400 0.514500 0.225400
H209 H -0.106100 -0.186800 0.552000
H210 H 0.783200 0.786300 0.191700
H211 H -0.171200 -0.371100 0.604900
H212 H 0.828800 0.871100 0.104900
H213 H -0.216800 -0.286300 0.691700
H214 H 0.893900 0.686800 0.052000
H215 H -0.199600 -0.014500 0.725400
H216 H -0.137000 0.172100 0.671700
H217 H 0.795600 0.272200 0.063300
H218 H -0.054500 0.507600 0.594500
H219 H 0.730600 0.088000 0.010200
H220 H -0.001800 0.662200 0.665800
H221 H 0.778700 -0.097500 -0.054300
H222 H 0.062400 0.528000 0.734000
H223 H 0.891500 -0.096700 -0.068100
H224 H 0.074000 0.238000 0.731700
H225 H 0.955900 0.095900 -0.018500
H226 H 0.020600 0.082800 0.661500
H227 H 0.455900 1.404100 1.018500
H228 H 0.391500 1.596700 1.068100
H229 H 0.278700 1.597500 1.054300
H230 H 0.230600 1.412000 0.989800
H231 H 0.295600 1.227800 0.936700
H232 H 0.393900 0.813200 0.948000
H233 H 0.979400 0.582800 0.838500
H234 H 0.328800 0.628900 0.895100
H235 H 0.926000 0.738000 0.768300
H236 H 0.283200 0.713700 0.808300
H237 H 0.937600 1.028000 0.766000
H238 H 0.300400 0.985500 0.774600
H239 H 1.001800 1.162200 0.834200
H240 H 0.363000 1.172100 0.828300
H241 H 1.054500 1.007600 0.905500
H242 H 0.445500 1.507600 0.905500
H243 H 0.498200 1.662200 0.834200
H244 H 1.137000 0.672100 0.828300
H245 H 0.562400 1.528000 0.766000
H246 H 1.199600 0.485500 0.774600
H247 H 0.574000 1.238000 0.768300
H248 H 1.216800 0.213700 0.808300
H249 H 0.520600 1.082800 0.838500
H250 H 1.171200 0.128900 0.895100
H251 H 0.544100 0.595900 0.981500
H252 H 1.106100 0.313200 0.948000
H253 H 0.608500 0.403300 0.931900
H254 H 0.721300 0.402500 0.945700
H255 H 1.204400 0.727800 0.936700
H256 H 0.769400 0.588000 1.010200
H257 H 1.269400 0.912000 0.989800
H258 H 0.704400 0.772200 1.063300
H259 H 1.221300 1.097500 1.054300
H260 H 0.606100 1.186800 1.052000
H261 H 1.108500 1.096700 1.068100
H262 H 0.671200 1.371100 1.104900
H263 H 1.044100 0.904100 1.018500
H264 H 0.716800 1.286300 1.191700
H265 H 0.699600 1.014500 1.225400
H266 H 0.637000 0.827900 1.171700
H267 H 0.554500 0.492400 1.094500
H268 H 0.501800 0.337800 1.165800
H269 H 0.437600 0.472000 1.234000
H270 H 1.020600 0.417200 1.161500
H271 H 0.426000 0.762000 1.231700
H272 H 1.074000 0.262000 1.231700
H273 H 0.479400 0.917200 1.161500
H274 H 1.062400 -0.028000 1.234000
H275 H 0.455900 1.404100 0.018500
H276 H 0.998200 -0.162200 1.165800
H277 H 0.391500 1.596700 0.068100
H278 H 0.945500 -0.007600 1.094500
H279 H 0.278700 1.597500 0.054300
H280 H 0.230600 1.412000 -0.010200
H281 H 0.863000 0.327900 1.171700
H282 H 0.295600 1.227800 -0.063300
H283 H 0.800400 0.514500 1.225400
H284 H 0.393900 0.813200 -0.052000
H285 H 0.783200 0.786300 1.191700
H286 H 0.328800 0.628900 -0.104900
H287 H 0.828800 0.871100 1.104900
H288 H 0.283200 0.713700 -0.191700
H289 H 0.893900 0.686800 1.052000
H290 H 0.300400 0.985500 -0.225400
H291 H 0.363000 1.172100 -0.171700
H292 H 0.795600 0.272200 1.063300
H293 H 0.445500 1.507600 -0.094500
H294 H 0.730600 0.088000 1.010200
H295 H 0.498200 1.662200 -0.165800
H296 H 0.778700 -0.097500 0.945700
H297 H 0.562400 1.528000 -0.234000
H298 H 0.891500 -0.096700 0.931900
H299 H 0.574000 1.238000 -0.231700
H300 H 0.955900 0.095900 0.981500
H301 H 0.520600 1.082800 -0.161500
H302 H 0.544100 0.595900 -0.018500
H303 H 0.608500 0.403300 -0.068100
H304 H 0.721300 0.402500 -0.054300
H305 H 0.769400 0.588000 0.010200
H306 H 0.704400 0.772200 0.063300
H307 H 0.606100 1.186800 0.052000
H308 H 0.520600 0.417200 0.338500
H309 H 0.671200 1.371100 0.104900
H310 H 0.574000 0.262000 0.268300
H311 H 0.716800 1.286300 0.191700
H312 H 0.562400 -0.028000 0.266000
H313 H 0.699600 1.014500 0.225400
H314 H 0.498200 -0.162200 0.334200
H315 H 0.637000 0.827900 0.171700
H316 H 0.445500 -0.007600 0.405500
H317 H 0.554500 0.492400 0.094500
H318 H 0.501800 0.337800 0.165800
H319 H 0.363000 0.327900 0.328300
H320 H 0.437600 0.472000 0.234000
H321 H 0.300400 0.514500 0.274600
H322 H 0.426000 0.762000 0.231700
H323 H 0.283200 0.786300 0.308300
H324 H 0.479400 0.917200 0.161500
H325 H 0.328800 0.871100 0.395100
H326 H 0.455900 0.404100 1.018500
H327 H 0.393900 0.686800 0.448000
H328 H 0.391500 0.596700 1.068100
H329 H 0.278700 0.597500 1.054300
H330 H 0.295600 0.272200 0.436700
H331 H 0.230600 0.412000 0.989800
H332 H 0.230600 0.088000 0.489800
H333 H 0.295600 0.227800 0.936700
H334 H 0.278700 -0.097500 0.554300
H335 H 0.393900 -0.186800 0.948000
H336 H 0.391500 -0.096700 0.568100
H337 H 0.328800 -0.371100 0.895100
H338 H 0.455900 0.095900 0.518500
H339 H 0.283200 -0.286300 0.808300
H340 H 0.840600 0.200800 0.851600
H341 H 0.363000 0.172100 0.828300
H342 H 0.445500 0.507600 0.905500
H343 H 0.498200 0.662200 0.834200
H344 H 0.562400 0.528000 0.766000
H345 H 0.479400 0.582800 0.661500
H346 H 0.574000 0.238000 0.768300
H347 H 0.426000 0.738000 0.731700
H348 H 0.520600 0.082800 0.838500
H349 H 0.437600 1.028000 0.734000
H350 H 0.544100 -0.404100 0.981500
H351 H 0.501800 1.162200 0.665800
H352 H 0.608500 -0.596700 0.931900
H353 H 0.554500 1.007600 0.594500
H354 H 0.721300 -0.597500 0.945700
H355 H 0.769400 -0.412000 1.010200
H356 H 0.637000 0.672100 0.671700
H357 H 0.704400 -0.227800 1.063300
H358 H 0.699600 0.485500 0.725400
H359 H 0.606100 0.186800 1.052000
H360 H 0.716800 0.213700 0.691700
H361 H 0.671200 0.371100 1.104900
H362 H 0.671200 0.128900 0.604900
H363 H 0.716800 0.286300 1.191700
H364 H 0.606100 0.313200 0.552000
H365 H 0.699600 0.014500 1.225400
H366 H 0.637000 -0.172100 1.171700
H367 H 0.704400 0.727800 0.563300
H368 H 0.554500 -0.507600 1.094500
H369 H 0.769400 0.912000 0.510200
H370 H 0.501800 -0.662200 1.165800
H371 H 0.721300 1.097500 0.445700
H372 H 0.437600 -0.528000 1.234000
H373 H 0.608500 1.096700 0.431900
H374 H 0.426000 -0.238000 1.231700
H375 H 0.544100 0.904100 0.481500
H376 H 0.479400 -0.082800 1.161500
H377 H 0.455900 0.404100 0.018500
H378 H 0.391500 0.596700 0.068100
H379 H 0.278700 0.597500 0.054300
H380 H 0.230600 0.412000 -0.010200
H381 H 0.295600 0.227800 -0.063300
H382 H 0.393900 -0.186800 -0.052000
H383 H 0.479400 -0.082800 0.161500
H384 H 0.328800 -0.371100 -0.104900
H385 H 0.426000 -0.238000 0.231700
H386 H 0.283200 -0.286300 -0.191700
H387 H 0.437600 -0.528000 0.234000
H388 H 0.300400 -0.014500 -0.225400
H389 H 0.501800 -0.662200 0.165800
H390 H 0.363000 0.172100 -0.171700
H391 H 0.554500 -0.507600 0.094500
H392 H 0.445500 0.507600 -0.094500
H393 H 0.498200 0.662200 -0.165800
H394 H 0.637000 -0.172100 0.171700
H395 H 0.562400 0.528000 -0.234000
H396 H 0.699600 0.014500 0.225400
H397 H 0.574000 0.238000 -0.231700
H398 H 0.716800 0.286300 0.191700
H399 H 0.520600 0.082800 -0.161500
H400 H 0.671200 0.371100 0.104900
H401 H 0.544100 -0.404100 -0.018500
H402 H 0.606100 0.186800 0.052000
H403 H 0.608500 -0.596700 -0.068100
H404 H 0.721300 -0.597500 -0.054300
H405 H 0.704400 -0.227800 0.063300
H406 H 0.769400 -0.412000 0.010200
C407 C 0.723870 -0.411700 0.005150
C408 C 0.695050 -0.521900 -0.033670
C409 C 0.685080 -0.300900 0.036630
C410 C 0.627830 -0.521200 -0.042150
C411 C 0.617730 -0.298800 0.028410
C412 C 0.589370 -0.407800 -0.011900
C413 C 0.625050 0.151700 0.086770
C414 C 0.816340 0.298100 0.837420
C415 C 0.683660 0.701900 0.337420
C416 C 0.022320 0.778900 -0.120590
C417 C 0.316340 0.201900 0.162580
C418 C 0.477680 0.278900 -0.120590
C419 C 0.516180 0.200000 -0.162070
C420 C 0.663740 0.262000 0.118530
C421 C 0.547940 0.292300 -0.204140
C422 C 0.691240 0.211100 0.170230
C423 C 0.541120 0.465200 -0.205460
C424 C 0.681030 0.048800 0.190350
C425 C 0.502870 0.545200 -0.164720
C426 C 0.643290 -0.062100 0.158480
C427 C 0.471220 0.452700 -0.122180
C428 C 0.614580 -0.011100 0.106820
C429 C 0.385420 0.011100 -0.106820
C430 C 0.356710 0.062100 -0.158480
C431 C 0.528780 -0.452700 0.122180
C432 C 0.318970 -0.048800 -0.190350
C433 C 0.497130 -0.545200 0.164720
C434 C 0.308760 -0.211100 -0.170230
C435 C 0.458880 -0.465200 0.205460
C436 C 0.336260 -0.262000 -0.118530
C437 C 0.452060 -0.292300 0.204140
C438 C 0.374950 -0.151700 -0.086770
C439 C 0.483820 -0.200000 0.162070
C440 C 0.382270 0.298800 -0.028410
C441 C 0.314920 0.300900 -0.036630
C442 C 0.522320 -0.278900 0.120590
C443 C 0.276130 0.411700 -0.005150
C444 C -0.016180 0.700000 -0.162070
C445 C 0.304950 0.521900 0.033670
C446 C -0.047940 0.792300 -0.204140
C447 C 0.372170 0.521200 0.042150
C448 C 0.183660 0.798100 0.662580
C449 C 0.410630 0.407800 0.011900
C450 C -0.041120 0.965200 -0.205460
C451 C -0.002870 1.045200 -0.164720
C452 C 0.183660 0.701900 0.162580
C453 C 0.028780 0.952700 -0.122180
C454 C 0.114580 0.511100 -0.106820
C455 C 0.316340 0.298100 0.662580
C456 C 0.522320 -0.278900 1.120590
C457 C 0.483820 -0.200000 1.162070
C458 C 0.143290 0.562100 -0.158480
C459 C 0.452060 -0.292300 1.204140
C460 C 0.589370 0.907800 0.488100
C461 C 0.458880 -0.465200 1.205460
C462 C 0.627830 1.021200 0.457850
C463 C 0.497130 -0.545200 1.164720
C464 C 0.695050 1.021900 0.466330
C465 C 0.528780 -0.452700 1.122180
C466 C 0.723870 0.911700 0.505150
C467 C 0.614580 -0.011100 1.106820
C468 C 0.643290 -0.062100 1.158480
C469 C 0.685080 0.800900 0.536630
C470 C 0.681030 0.048800 1.190350
C471 C 0.617730 0.798800 0.528410
C472 C 0.691240 0.211100 1.170230
C473 C 0.625050 0.348300 0.586770
C474 C 0.663740 0.262000 1.118530
C475 C 0.663740 0.238000 0.618530
C476 C 0.625050 0.151700 1.086770
C477 C 0.691240 0.288900 0.670230
C478 C 0.617730 -0.298800 1.028410
C479 C 0.685080 -0.300900 1.036630
C480 C 0.681030 0.451200 0.690350
C481 C 0.723870 -0.411700 1.005150
C482 C 0.643290 0.562100 0.658480
C483 C 0.695050 -0.521900 0.966330
C484 C 0.614580 0.511100 0.606820
C485 C 0.627830 -0.521200 0.957850
C486 C 0.528780 0.952700 0.622180
C487 C 0.589370 -0.407800 0.988100
C488 C 0.497130 1.045200 0.664720
C489 C 0.181030 0.451200 -0.190350
C490 C 0.683660 0.798100 0.837420
C491 C 0.191240 0.288900 -0.170230
C492 C 0.163740 0.238000 -0.118530
C493 C 0.477680 0.278900 0.879410
C494 C 0.516180 0.200000 0.837930
C495 C 0.458880 0.965200 0.705460
C496 C 0.547940 0.292300 0.795860
C497 C 0.452060 0.792300 0.704140
C498 C 0.541120 0.465200 0.794540
C499 C 0.483820 0.700000 0.662070
C500 C 0.502870 0.545200 0.835280
C501 C 0.522320 0.778900 0.620590
C502 C 0.471220 0.452700 0.877820
C503 C 0.816340 0.201900 0.337420
C504 C 0.385420 0.011100 0.893180
C505 C 0.356710 0.062100 0.841520
C506 C 0.125050 0.348300 -0.086770
C507 C 0.318970 -0.048800 0.809650
C508 C 1.089370 0.592200 0.511900
C509 C 0.308760 -0.211100 0.829770
C510 C 0.117730 0.798800 -0.028410
C511 C 0.336260 -0.262000 0.881470
C512 C 0.410630 0.092200 0.511900
C513 C 0.374950 -0.151700 0.913230
C514 C 0.372170 -0.021200 0.542150
C515 C 0.382270 0.298800 0.971590
C516 C 0.314920 0.300900 0.963370
C517 C 0.304950 -0.021900 0.533670
C518 C 0.276130 0.411700 0.994850
C519 C 0.276130 0.088300 0.494850
C520 C 0.304950 0.521900 1.033670
C521 C 0.314920 0.199100 0.463370
C522 C 0.372170 0.521200 1.042150
C523 C 0.382270 0.201200 0.471590
C524 C 0.410630 0.407800 1.011900
C525 C 0.374950 0.651700 0.413230
C526 C 1.127830 0.478800 0.542150
C527 C 0.185080 0.800900 -0.036630
C528 C 1.195050 0.478100 0.533670
C529 C 0.223870 0.911700 -0.005150
C530 C 1.223870 0.588300 0.494850
C531 C 0.522320 0.721100 0.120590
C532 C 0.483820 0.800000 0.162070
C533 C 0.336260 0.762000 0.381470
C534 C 0.452060 0.707700 0.204140
C535 C 0.308760 0.711100 0.329770
C536 C 0.458880 0.534800 0.205460
C537 C 0.318970 0.548800 0.309650
C538 C 0.497130 0.454800 0.164720
C539 C 0.356710 0.437900 0.341520
C540 C 0.528780 0.547300 0.122180
C541 C 0.385420 0.488900 0.393180
C542 C 0.614580 0.988900 0.106820
C543 C 0.643290 0.937900 0.158480
C544 C 0.471220 0.047300 0.377820
C545 C 0.681030 1.048800 0.190350
C546 C 0.502870 -0.045200 0.335280
C547 C 0.691240 1.211100 0.170230
C548 C 0.541120 0.034800 0.294540
C549 C 0.663740 1.262000 0.118530
C550 C 0.547940 0.207700 0.295860
C551 C 0.625050 1.151700 0.086770
C552 C 0.516180 0.300000 0.337930
C553 C 0.617730 0.701200 0.028410
C554 C 0.685080 0.699100 0.036630
C555 C 0.477680 0.221100 0.379410
C556 C 0.723870 0.588300 0.005150
C557 C 0.195050 1.021900 0.033670
C558 C 0.695050 0.478100 -0.033670
C559 C 1.185080 0.699100 0.463370
C560 C 0.627830 0.478800 -0.042150
C561 C 1.117730 0.701200 0.471590
C562 C 0.589370 0.592200 -0.011900
C563 C 0.127830 1.021200 0.042150
C564 C 1.125050 1.151700 0.413230
C565 C 0.089370 0.907800 0.011900
C566 C 1.163740 1.262000 0.381470
C567 C 1.191240 1.211100 0.329770
C568 C 0.477680 1.278900 -0.120590
C569 C 0.516180 1.200000 -0.162070
C570 C 1.181030 1.048800 0.309650
C571 C 0.547940 1.292300 -0.204140
C572 C 0.910630 0.092200 0.988100
C573 C 0.541120 1.465200 -0.205460
C574 C 0.872170 -0.021200 0.957850
C575 C 0.502870 1.545200 -0.164720
C576 C 0.804950 -0.021900 0.966330
C577 C 0.471220 1.452700 -0.122180
C578 C 0.776130 0.088300 1.005150
C579 C 0.385420 1.011100 -0.106820
C580 C 0.356710 1.062100 -0.158480
C581 C 0.814920 0.199100 1.036630
C582 C 0.318970 0.951200 -0.190350
C583 C 0.882270 0.201200 1.028410
C584 C 0.308760 0.788900 -0.170230
C585 C 0.874950 0.651700 1.086770
C586 C 0.336260 0.738000 -0.118530
C587 C 0.836260 0.762000 1.118530
C588 C 0.374950 0.848300 -0.086770
C589 C 0.808760 0.711100 1.170230
C590 C 0.382270 1.298800 -0.028410
C591 C 0.314920 1.300900 -0.036630
C592 C 0.818970 0.548800 1.190350
C593 C 0.276130 1.411700 -0.005150
C594 C 0.856710 0.437900 1.158480
C595 C 0.304950 1.521900 0.033670
C596 C 0.885420 0.488900 1.106820
C597 C 0.372170 1.521200 0.042150
C598 C 0.971220 0.047300 1.122180
C599 C 0.410630 1.407800 0.011900
C600 C 1.002870 -0.045200 1.164720
C601 C 1.143290 0.937900 0.341520
C602 C 1.114580 0.988900 0.393180
C603 C 1.028780 0.547300 0.377820
C604 C -0.022320 0.221100 0.120590
C605 C 0.997130 0.454800 0.335280
C606 C 0.522320 0.721100 1.120590
C607 C 0.483820 0.800000 1.162070
C608 C 1.041120 0.034800 1.205460
C609 C 0.452060 0.707700 1.204140
C610 C 1.047940 0.207700 1.204140
C611 C 0.458880 0.534800 1.205460
C612 C 1.016180 0.300000 1.162070
C613 C 0.497130 0.454800 1.164720
C614 C 0.977680 0.221100 1.120590
C615 C 0.528780 0.547300 1.122180
C616 C 0.016180 0.300000 0.162070
C617 C 0.614580 0.988900 1.106820
C618 C 0.643290 0.937900 1.158480
C619 C 0.958880 0.534800 0.294540
C620 C 0.681030 1.048800 1.190350
C621 C 0.047940 0.207700 0.204140
C622 C 0.691240 1.211100 1.170230
C623 C 0.952060 0.707700 0.295860
C624 C 0.663740 1.262000 1.118530
C625 C 1.089370 0.907800 1.011900
C626 C 0.625050 1.151700 1.086770
C627 C 1.127830 1.021200 1.042150
C628 C 0.617730 0.701200 1.028410
C629 C 0.685080 0.699100 1.036630
C630 C 1.195050 1.021900 1.033670
C631 C 0.723870 0.588300 1.005150
C632 C 1.223870 0.911700 0.994850
C633 C 0.695050 0.478100 0.966330
C634 C 1.185080 0.800900 0.963370
C635 C 0.627830 0.478800 0.957850
C636 C 1.117730 0.798800 0.971590
C637 C 0.589370 0.592200 0.988100
C638 C 1.125050 0.348300 0.913230
C639 C 0.041120 0.034800 0.205460
C640 C 0.983820 0.800000 0.337930
C641 C 1.022320 0.721100 0.379410
C642 C 0.002870 -0.045200 0.164720
C643 C 0.477680 1.278900 0.879410
C644 C 0.516180 1.200000 0.837930
C645 C 1.163740 0.238000 0.881470
C646 C 0.547940 1.292300 0.795860
C647 C 1.191240 0.288900 0.829770
C648 C 0.541120 1.465200 0.794540
C649 C 1.181030 0.451200 0.809650
C650 C 0.502870 1.545200 0.835280
C651 C 1.143290 0.562100 0.841520
C652 C 0.471220 1.452700 0.877820
C653 C 1.114580 0.511100 0.893180
C654 C 0.385420 1.011100 0.893180
C655 C 0.356710 1.062100 0.841520
C656 C 1.028780 0.952700 0.877820
C657 C 0.318970 0.951200 0.809650
C658 C 0.997130 1.045200 0.835280
C659 C 0.308760 0.788900 0.829770
C660 C 0.958880 0.965200 0.794540
C661 C 0.336260 0.738000 0.881470
C662 C 0.952060 0.792300 0.795860
C663 C 0.374950 0.848300 0.913230
C664 C 0.983820 0.700000 0.837930
C665 C 0.382270 1.298800 0.971590
C666 C 0.314920 1.300900 0.963370
C667 C 1.022320 0.778900 0.879410
C668 C 0.276130 1.411700 0.994850
C669 C 0.910630 1.407800 0.488100
C670 C 0.304950 1.521900 1.033670
C671 C -0.028780 0.047300 0.122180
C672 C 0.372170 1.521200 1.042150
C673 C 0.872170 1.521200 0.457850
C674 C 0.410630 1.407800 1.011900
C675 C -0.114580 0.488900 0.106820
C676 C 0.804950 1.521900 0.466330
C677 C -0.143290 0.437900 0.158480
C678 C 0.776130 1.411700 0.505150
C679 C -0.181030 0.548800 0.190350
C680 C 0.814920 1.300900 0.536630
C681 C -0.022320 0.278900 0.620590
C682 C 0.016180 0.200000 0.662070
C683 C 0.882270 1.298800 0.528410
C684 C 0.047940 0.292300 0.704140
C685 C 0.910630 0.092200 -0.011900
C686 C 0.041120 0.465200 0.705460
C687 C 0.872170 -0.021200 -0.042150
C688 C 0.002870 0.545200 0.664720
C689 C 0.804950 -0.021900 -0.033670
C690 C -0.028780 0.452700 0.622180
C691 C 0.776130 0.088300 0.005150
C692 C -0.114580 0.011100 0.606820
C693 C -0.143290 0.062100 0.658480
C694 C 0.814920 0.199100 0.036630
C695 C -0.181030 -0.048800 0.690350
C696 C 0.882270 0.201200 0.028410
C697 C -0.191240 -0.211100 0.670230
C698 C 0.874950 0.651700 0.086770
C699 C -0.163740 -0.262000 0.618530
C700 C 0.836260 0.762000 0.118530
C701 C -0.125050 -0.151700 0.586770
C702 C 0.808760 0.711100 0.170230
C703 C -0.117730 0.298800 0.528410
C704 C -0.185080 0.300900 0.536630
C705 C 0.818970 0.548800 0.190350
C706 C -0.223870 0.411700 0.505150
C707 C 0.856710 0.437900 0.158480
C708 C -0.195050 0.521900 0.466330
C709 C 0.885420 0.488900 0.106820
C710 C -0.127830 0.521200 0.457850
C711 C 0.971220 0.047300 0.122180
C712 C -0.089370 0.407800 0.488100
C713 C 1.002870 -0.045200 0.164720
C714 C -0.191240 0.711100 0.170230
C715 C 0.874950 0.848300 0.586770
C716 C -0.163740 0.762000 0.118530
C717 C 0.836260 0.738000 0.618530
C718 C 0.022320 -0.278900 0.379410
C719 C -0.016180 -0.200000 0.337930
C720 C 1.041120 0.034800 0.205460
C721 C -0.047940 -0.292300 0.295860
C722 C 1.047940 0.207700 0.204140
C723 C -0.041120 -0.465200 0.294540
C724 C 1.016180 0.300000 0.162070
C725 C -0.002870 -0.545200 0.335280
C726 C 0.977680 0.221100 0.120590
C727 C 0.028780 -0.452700 0.377820
C728 C -0.125050 0.651700 0.086770
C729 C 0.114580 -0.011100 0.393180
C730 C 0.143290 -0.062100 0.341520
C731 C 0.808760 0.788900 0.670230
C732 C 0.181030 0.048800 0.309650
C733 C -0.117730 0.201200 0.028410
C734 C 0.191240 0.211100 0.329770
C735 C 0.818970 0.951200 0.690350
C736 C 0.163740 0.262000 0.381470
C737 C 1.089370 0.907800 0.011900
C738 C 0.125050 0.151700 0.413230
C739 C 1.127830 1.021200 0.042150
C740 C 0.117730 -0.298800 0.471590
C741 C 0.185080 -0.300900 0.463370
C742 C 1.195050 1.021900 0.033670
C743 C 0.223870 -0.411700 0.494850
C744 C 1.223870 0.911700 -0.005150
C745 C 0.195050 -0.521900 0.533670
C746 C 1.185080 0.800900 -0.036630
C747 C 0.127830 -0.521200 0.542150
C748 C 1.117730 0.798800 -0.028410
C749 C 0.089370 -0.407800 0.511900
C750 C 1.125050 0.348300 -0.086770
C751 C -0.185080 0.199100 0.036630
C752 C 0.856710 1.062100 0.658480
C753 C 0.885420 1.011100 0.606820
C754 C -0.223870 0.088300 0.005150
C755 C 0.971220 1.452700 0.622180
C756 C -0.022320 1.278900 0.620590
C757 C 0.016180 1.200000 0.662070
C758 C 1.163740 0.238000 -0.118530
C759 C 0.047940 1.292300 0.704140
C760 C 1.191240 0.288900 -0.170230
C761 C 0.041120 1.465200 0.705460
C762 C 1.181030 0.451200 -0.190350
C763 C 0.002870 1.545200 0.664720
C764 C 1.143290 0.562100 -0.158480
C765 C -0.028780 1.452700 0.622180
C766 C 1.114580 0.511100 -0.106820
C767 C -0.114580 1.011100 0.606820
C768 C -0.143290 1.062100 0.658480
C769 C 1.028780 0.952700 -0.122180
C770 C -0.181030 0.951200 0.690350
C771 C 0.997130 1.045200 -0.164720
C772 C -0.191240 0.788900 0.670230
C773 C 0.958880 0.965200 -0.205460
C774 C -0.163740 0.738000 0.618530
C775 C 0.952060 0.792300 -0.204140
C776 C -0.125050 0.848300 0.586770
C777 C 0.983820 0.700000 -0.162070
C778 C -0.117730 1.298800 0.528410
C779 C -0.185080 1.300900 0.536630
C780 C 1.022320 0.778900 -0.120590
C781 C -0.223870 1.411700 0.505150
C782 C -0.195050 -0.021900 -0.033670
C783 C -0.195050 1.521900 0.466330
C784 C 1.002870 1.545200 0.664720
C785 C -0.127830 1.521200 0.457850
C786 C -0.127830 -0.021200 -0.042150
C787 C -0.089370 1.407800 0.488100
C788 C 1.041120 1.465200 0.705460
C789 C -0.089370 0.092200 -0.011900
C790 C 1.047940 1.292300 0.704140
C791 C 1.016180 1.200000 0.662070
C792 C 0.977680 1.278900 0.620590
C793 C 0.022320 0.721100 0.379410
C794 C -0.016180 0.800000 0.337930
C795 C 1.089370 -0.407800 0.511900
C796 C -0.047940 0.707700 0.295860
C797 C -0.089370 0.092200 0.988100
C798 C -0.041120 0.534800 0.294540
C799 C -0.127830 -0.021200 0.957850
C800 C -0.002870 0.454800 0.335280
C801 C -0.195050 -0.021900 0.966330
C802 C 0.028780 0.547300 0.377820
C803 C -0.223870 0.088300 1.005150
C804 C 0.114580 0.988900 0.393180
C805 C 0.143290 0.937900 0.341520
C806 C -0.185080 0.199100 1.036630
C807 C 0.181030 1.048800 0.309650
C808 C -0.117730 0.201200 1.028410
C809 C 0.191240 1.211100 0.329770
C810 C -0.125050 0.651700 1.086770
C811 C 0.163740 1.262000 0.381470
C812 C -0.163740 0.762000 1.118530
C813 C 0.125050 1.151700 0.413230
C814 C -0.191240 0.711100 1.170230
C815 C 0.117730 0.701200 0.471590
C816 C 0.185080 0.699100 0.463370
C817 C -0.181030 0.548800 1.190350
C818 C 0.223870 0.588300 0.494850
C819 C -0.143290 0.437900 1.158480
C820 C 0.195050 0.478100 0.533670
C821 C -0.114580 0.488900 1.106820
C822 C 0.127830 0.478800 0.542150
C823 C -0.028780 0.047300 1.122180
C824 C 0.089370 0.592200 0.511900
C825 C 0.002870 -0.045200 1.164720
C826 C 1.127830 -0.521200 0.542150
C827 C 1.195050 -0.521900 0.533670
C828 C 1.223870 -0.411700 0.494850
C829 C 0.022320 0.778900 0.879410
C830 C 1.185080 -0.300900 0.463370
C831 C 0.977680 0.278900 0.620590
C832 C 1.016180 0.200000 0.662070
C833 C 0.041120 0.034800 1.205460
C834 C 1.047940 0.292300 0.704140
C835 C 0.047940 0.207700 1.204140
C836 C 1.041120 0.465200 0.705460
C837 C 0.016180 0.300000 1.162070
C838 C 1.002870 0.545200 0.664720
C839 C -0.022320 0.221100 1.120590
C840 C 0.971220 0.452700 0.622180
C841 C 1.117730 -0.298800 0.471590
C842 C 0.885420 0.011100 0.606820
C843 C 0.856710 0.062100 0.658480
C844 C -0.016180 0.700000 0.837930
C845 C 0.818970 -0.048800 0.690350
C846 C 1.125050 0.151700 0.413230
C847 C 0.808760 -0.211100 0.670230
C848 C -0.047940 0.792300 0.795860
C849 C 0.836260 -0.262000 0.618530
C850 C 0.089370 0.907800 1.011900
C851 C 0.874950 -0.151700 0.586770
C852 C 0.127830 1.021200 1.042150
C853 C 0.882270 0.298800 0.528410
C854 C 0.814920 0.300900 0.536630
C855 C 0.195050 1.021900 1.033670
C856 C 0.776130 0.411700 0.505150
C857 C 0.223870 0.911700 0.994850
C858 C 0.804950 0.521900 0.466330
C859 C 0.185080 0.800900 0.963370
C860 C 0.872170 0.521200 0.457850
C861 C 0.117730 0.798800 0.971590
C862 C 0.910630 0.407800 0.488100
C863 C 0.125050 0.348300 0.913230
C864 C 1.163740 0.262000 0.381470
C865 C -0.041120 0.965200 0.794540
C866 C 1.191240 0.211100 0.329770
C867 C -0.002870 1.045200 0.835280
C868 C 1.022320 -0.278900 0.379410
C869 C 0.983820 -0.200000 0.337930
C870 C 0.163740 0.238000 0.881470
C871 C 0.952060 -0.292300 0.295860
C872 C 0.191240 0.288900 0.829770
C873 C 0.958880 -0.465200 0.294540
C874 C 0.181030 0.451200 0.809650
C875 C 0.997130 -0.545200 0.335280
C876 C 0.143290 0.562100 0.841520
C877 C 1.028780 -0.452700 0.377820
C878 C 0.114580 0.511100 0.893180
C879 C 1.114580 -0.011100 0.393180
C880 C 1.143290 -0.062100 0.341520
C881 C 0.028780 0.952700 0.877820
C882 C 1.181030 0.048800 0.309650
N883 N 0.930570 0.032000 0.439920
N884 N -0.069430 0.468000 -0.060080
N885 N 0.569430 -0.032000 -0.060080
N886 N 0.430570 0.032000 0.060080
N887 N 0.430570 0.032000 1.060080
N888 N 0.569430 -0.032000 0.939920
N889 N 0.430570 0.468000 0.560080
N890 N 0.069430 0.532000 1.060080
N891 N 1.069430 -0.032000 0.560080
N892 N 0.430570 1.032000 0.060080
N893 N 0.569430 0.532000 0.439920
N894 N -0.069430 0.468000 0.939920
N895 N 0.569430 0.968000 -0.060080
N896 N 0.069430 0.532000 0.060080
N897 N 0.430570 1.032000 1.060080
N898 N 1.069430 0.532000 1.060080
N899 N 0.930570 1.032000 0.439920
N900 N 0.569430 0.968000 0.939920
N901 N 0.930570 0.468000 0.939920
N902 N 0.069430 -0.032000 0.560080
N903 N -0.069430 0.032000 0.439920
N904 N 1.069430 0.532000 0.060080
N905 N 1.069430 0.968000 0.560080
N906 N -0.069430 1.032000 0.439920
N907 N 0.069430 0.968000 0.560080
N908 N 0.930570 0.468000 -0.060080
O909 O -0.058300 1.135800 0.401520
O910 O -0.058300 0.364200 -0.098480
O911 O -0.120870 0.546900 -0.058570
O912 O 0.941700 0.364200 -0.098480
O913 O 0.879130 0.546900 -0.058570
O914 O 0.558300 -0.135800 -0.098480
O915 O -0.120870 0.953100 0.441430
O916 O 0.120870 1.046900 0.558570
O917 O 0.058300 0.864200 0.598480
O918 O 0.879130 -0.046900 0.441430
O919 O 0.620870 0.046900 -0.058570
O920 O 0.941700 0.135800 0.401520
O921 O 1.058300 0.635800 0.098480
O922 O 1.120870 0.453100 0.058570
O923 O 1.120870 1.046900 0.558570
O924 O 1.058300 0.864200 0.598480
O925 O -0.120870 -0.046900 0.441430
O926 O -0.058300 0.135800 0.401520
O927 O 0.379130 -0.046900 0.058570
O928 O 0.441700 0.135800 0.098480
O929 O 0.441700 0.135800 1.098480
O930 O 0.120870 0.046900 0.558570
O931 O 0.058300 -0.135800 0.598480
O932 O 0.379130 -0.046900 1.058570
O933 O 0.558300 -0.135800 0.901520
O934 O 0.620870 0.046900 0.941430
O935 O 0.941700 0.364200 0.901520
O936 O 0.879130 0.546900 0.941430
O937 O 0.058300 0.635800 1.098480
O938 O 0.120870 0.453100 1.058570
O939 O 0.379130 0.546900 0.558570
O940 O 0.941700 1.135800 0.401520
O941 O 0.879130 0.953100 0.441430
O942 O 0.441700 0.364200 0.598480
O943 O 0.620870 1.046900 0.941430
O944 O 0.558300 0.864200 0.901520
O945 O 0.441700 1.135800 0.098480
O946 O 0.379130 0.953100 0.058570
O947 O 1.058300 0.635800 1.098480
O948 O 1.120870 0.453100 1.058570
O949 O -0.058300 0.364200 0.901520
O950 O 1.120870 0.046900 0.558570
O951 O 0.379130 0.953100 1.058570
O952 O 0.441700 1.135800 1.098480
O953 O -0.120870 0.546900 0.941430
O954 O 1.058300 -0.135800 0.598480
O955 O 0.620870 0.453100 0.441430
O956 O 0.120870 0.453100 0.058570
O957 O 0.558300 0.635800 0.401520
O958 O 0.058300 0.635800 0.098480
O959 O 0.558300 0.864200 -0.098480
O960 O 0.620870 1.046900 -0.058570
P961 P -0.063760 0.346320 0.065690
P962 P 0.936240 0.153680 0.565690
P963 P 0.436240 1.153680 -0.065690
P964 P 0.436240 0.346320 0.434310
P965 P 0.063760 0.653680 -0.065690
P966 P 0.436240 0.153680 -0.065690
P967 P 0.563760 0.846320 1.065690
P968 P 0.063760 0.846320 0.434310
P969 P 0.936240 0.346320 1.065690
P970 P 0.436240 1.153680 0.934310
P971 P 0.563760 0.846320 0.065690
P972 P 1.063760 0.653680 -0.065690
P973 P 0.563760 0.653680 0.565690
P974 P -0.063760 1.153680 0.565690
P975 P 1.063760 0.846320 0.434310
P976 P 0.936240 0.346320 0.065690
P977 P 1.063760 -0.153680 0.434310
P978 P 0.063760 0.653680 0.934310
P979 P 0.063760 -0.153680 0.434310
P980 P 1.063760 0.653680 0.934310
P981 P 0.563760 -0.153680 0.065690
P982 P 0.563760 -0.153680 1.065690
P983 P 0.936240 1.153680 0.565690
P984 P 0.436240 0.153680 0.934310
P985 P -0.063760 0.153680 0.565690
P986 P -0.063760 0.346320 1.065690
Cl987 Cl 0.234510 0.241120 0.673730
Cl988 Cl 0.353920 0.372480 0.726250
Cl989 Cl 0.734510 0.241120 0.826270
Cl990 Cl 0.853920 0.372480 0.773750
Cl991 Cl 0.146080 0.627520 0.226250
Cl992 Cl 0.265490 0.758880 0.173730
Cl993 Cl 0.765490 0.741120 0.826270
Cl994 Cl 0.765490 0.758880 0.326270
Cl995 Cl 0.646080 0.872480 0.773750
Cl996 Cl 0.146080 0.872480 0.726250
Cl997 Cl 0.265490 0.741120 0.673730
Cl998 Cl 0.646080 0.627520 0.273750
Cl999 Cl 0.853920 0.127520 0.273750
Cl1000 Cl 0.734510 0.258880 0.326270
Cl1001 Cl 0.353920 0.127520 0.226250
Cl1002 Cl 0.234510 0.258880 0.173730
Pd1003 Pd 1.000000 1.000000 0.500000
Pd1004 Pd 0.000000 1.000000 0.500000
Pd1005 Pd 1.000000 0.500000 0.000000
Pd1006 Pd 1.000000 0.500000 1.000000
Pd1007 Pd 0.500000 0.000000 1.000000
Pd1008 Pd 0.000000 0.500000 1.000000
Pd1009 Pd 0.500000 1.000000 0.000000
Pd1010 Pd 1.000000 0.000000 0.500000
Pd1011 Pd 0.000000 0.000000 0.500000
Pd1012 Pd 0.500000 0.000000 0.000000
Pd1013 Pd 0.500000 1.000000 1.000000
Pd1014 Pd 0.500000 0.500000 0.500000
Pd1015 Pd 0.000000 0.500000 0.000000

#END
