./ACOXEX_from_POSCAR.cif_generated_by_CrystalShift
_symmetry_cell_setting triclinic
_symmetry_space_group_name_H-M 'P 1'
loop_
_symmetry_equiv_pos_site_id
_symmetry_equiv_pos_as_xyz
1 x,y,z
_cell_length_a 20.471000
_cell_length_b 7.953000
_cell_length_c 23.261000
_cell_angle_alpha 90.000000
_cell_angle_beta 90.000000
_cell_angle_gamma 90.000000
_cell_volume 3787.027179
loop_
_atom_site_label
_atom_site_type_symbol
_atom_site_fract_x
_atom_site_fract_y
_atom_site_fract_z
H1 H 0.830200 -0.380700 1.107100
H2 H 0.318200 0.112900 0.632300
H3 H 0.162100 0.697200 0.147000
H4 H 0.181800 0.887100 0.132300
H5 H 0.837900 0.197200 0.353000
H6 H 0.818200 0.387100 0.367700
H7 H 0.662100 0.802800 0.853000
H8 H 0.482100 -0.073000 0.663000
H9 H 0.681800 0.612900 0.867700
H10 H 0.427400 -0.228100 0.732500
H11 H 0.662100 0.697200 0.353000
H12 H 0.435500 -0.521100 0.733400
H13 H 0.681800 0.887100 0.367700
H14 H 0.497400 -0.657600 0.663700
H15 H 0.837900 0.302800 0.853000
H16 H 0.551000 -0.503100 0.592800
H17 H 0.818200 0.112900 0.867700
H18 H 0.162100 0.802800 0.647000
H19 H 0.605200 0.196400 0.553500
H20 H 0.181800 0.612900 0.632300
H21 H 0.669800 0.380700 0.607100
H22 H 0.337900 0.197200 0.147000
H23 H 0.715300 0.292800 0.693300
H24 H 0.318200 0.387100 0.132300
H25 H 0.701300 0.017400 0.724600
H26 H 0.704500 0.722400 1.065000
H27 H 0.636500 -0.168400 0.672200
H28 H 0.769600 0.906800 1.012600
H29 H 0.722400 1.094200 0.947900
H30 H 0.544600 -0.401800 0.482700
H31 H 0.609800 1.093700 0.933200
H32 H 0.609800 -0.593700 0.433200
H33 H 0.544600 0.901800 0.982700
H34 H 0.722400 -0.594200 0.447900
H35 H 0.636500 0.668400 1.172200
H36 H 0.769600 -0.406800 0.512600
H37 H 0.701300 0.482600 1.224600
H38 H 0.704500 -0.222400 0.565000
H39 H 0.715300 0.207200 1.193300
H40 H 0.669800 0.119300 1.107100
H41 H 0.605200 0.303600 1.053500
H42 H 0.551000 1.003100 1.092800
H43 H 0.497400 1.157600 1.163700
H44 H 0.435500 1.021100 1.233400
H45 H 0.517900 0.073000 0.337000
H46 H 0.427400 0.728100 1.232500
H47 H 0.572600 0.228100 0.267500
H48 H 0.482100 0.573000 1.163000
H49 H 0.564500 0.521100 0.266600
H50 H 0.295500 0.277600 0.935000
H51 H 0.502600 0.657600 0.336300
H52 H 0.230400 0.093200 0.987400
H53 H 0.449000 0.503100 0.407200
H54 H 0.277600 -0.094200 1.052100
H55 H 0.390200 -0.093700 1.066800
H56 H 0.394800 -0.196400 0.446500
H57 H 0.455400 0.098200 1.017300
H58 H 0.330200 -0.380700 0.392900
H59 H 0.363500 0.331600 0.827800
H60 H 0.284700 -0.292800 0.306700
H61 H 0.298700 0.517400 0.775400
H62 H 0.298700 -0.017400 0.275400
H63 H 0.284700 0.792800 0.806700
H64 H 0.363500 0.168400 0.327800
H65 H 0.330200 0.880700 0.892900
H66 H 0.394800 0.696400 0.946500
H67 H 0.455400 0.401800 0.517300
H68 H 0.449000 -0.003100 0.907200
H69 H 0.390200 0.593700 0.566800
H70 H 0.502600 -0.157600 0.836300
H71 H 0.277600 0.594200 0.552100
H72 H 0.564500 -0.021100 0.766600
H73 H 0.230400 0.406800 0.487400
H74 H 0.572600 0.271900 0.767500
H75 H 0.295500 0.222400 0.435000
H76 H 0.517900 0.427000 0.837000
H77 H 0.704500 0.722400 0.065000
H78 H 0.769600 0.906800 0.012600
H79 H 0.722400 1.094200 -0.052100
H80 H 0.609800 1.093700 -0.066800
H81 H 0.544600 0.901800 -0.017300
H82 H 0.636500 0.668400 0.172200
H83 H 0.482100 0.927000 0.663000
H84 H 0.701300 0.482600 0.224600
H85 H 0.427400 0.771900 0.732500
H86 H 0.715300 0.207200 0.193300
H87 H 0.435500 0.478900 0.733400
H88 H 0.669800 0.119300 0.107100
H89 H 0.497400 0.342400 0.663700
H90 H 0.605200 0.303600 0.053500
H91 H 0.551000 0.496900 0.592800
H92 H 0.551000 1.003100 0.092800
H93 H 0.497400 1.157600 0.163700
H94 H 0.605200 1.196400 0.553500
H95 H 0.435500 1.021100 0.233400
H96 H 0.669800 1.380700 0.607100
H97 H 0.427400 0.728100 0.232500
H98 H 0.715300 1.292800 0.693300
H99 H 0.482100 0.573000 0.163000
H100 H 0.701300 1.017400 0.724600
H101 H 0.295500 0.277600 -0.065000
H102 H 0.636500 0.831600 0.672200
H103 H 0.230400 0.093200 -0.012600
H104 H 0.277600 -0.094200 0.052100
H105 H 0.544600 0.598200 0.482700
H106 H 0.390200 -0.093700 0.066800
H107 H 0.609800 0.406300 0.433200
H108 H 0.455400 0.098200 0.017300
H109 H 0.722400 0.405800 0.447900
H110 H 0.363500 0.331600 -0.172200
H111 H 0.769600 0.593200 0.512600
H112 H 0.298700 0.517400 -0.224600
H113 H 0.704500 0.777600 0.565000
H114 H 0.284700 0.792800 -0.193300
H115 H 0.330200 0.880700 -0.107100
H116 H 0.394800 0.696400 -0.053500
H117 H 0.449000 -0.003100 -0.092800
H118 H 0.502600 -0.157600 -0.163700
H119 H 0.564500 -0.021100 -0.233400
H120 H 0.517900 1.073000 0.337000
H121 H 0.572600 0.271900 -0.232500
H122 H 0.572600 1.228100 0.267500
H123 H 0.517900 0.427000 -0.163000
H124 H 0.564500 1.521100 0.266600
H125 H 0.795500 0.277600 0.565000
H126 H 0.502600 1.657600 0.336300
H127 H 0.730400 0.093200 0.512600
H128 H 0.449000 1.503100 0.407200
H129 H 0.777600 -0.094200 0.447900
H130 H 0.890200 -0.093700 0.433200
H131 H 0.394800 0.803600 0.446500
H132 H 0.955400 0.098200 0.482700
H133 H 0.330200 0.619300 0.392900
H134 H 0.863500 0.331600 0.672200
H135 H 0.284700 0.707200 0.306700
H136 H 0.798700 0.517400 0.724600
H137 H 0.298700 0.982600 0.275400
H138 H 0.784700 0.792800 0.693300
H139 H 0.363500 1.168400 0.327800
H140 H 0.830200 0.880700 0.607100
H141 H 0.894800 0.696400 0.553500
H142 H 0.455400 1.401800 0.517300
H143 H 0.949000 -0.003100 0.592800
H144 H 0.390200 1.593700 0.566800
H145 H 1.002600 -0.157600 0.663700
H146 H 0.277600 1.594200 0.552100
H147 H 1.064500 -0.021100 0.733400
H148 H 0.230400 1.406800 0.487400
H149 H 1.072600 0.271900 0.732500
H150 H 0.295500 1.222400 0.435000
H151 H 1.017900 0.427000 0.663000
H152 H 1.204500 0.722400 0.435000
H153 H 1.269600 0.906800 0.487400
H154 H 1.222400 1.094200 0.552100
H155 H 1.109800 1.093700 0.566800
H156 H 1.044600 0.901800 0.517300
H157 H 1.136500 0.668400 0.327800
H158 H 0.017900 0.073000 0.163000
H159 H 1.201300 0.482600 0.275400
H160 H 0.072600 0.228100 0.232500
H161 H 1.215300 0.207200 0.306700
H162 H 0.064500 0.521100 0.233400
H163 H 1.169800 0.119300 0.392900
H164 H 0.002600 0.657600 0.163700
H165 H 1.105200 0.303600 0.446500
H166 H -0.051000 0.503100 0.092800
H167 H 1.051000 1.003100 0.407200
H168 H 0.997400 1.157600 0.336300
H169 H -0.105200 -0.196400 0.053500
H170 H 0.935500 1.021100 0.266600
H171 H -0.169800 -0.380700 0.107100
H172 H 0.927400 0.728100 0.267500
H173 H -0.215300 -0.292800 0.193300
H174 H 0.982100 0.573000 0.337000
H175 H -0.201300 -0.017400 0.224600
H176 H -0.204500 0.277600 0.565000
H177 H -0.136500 0.168400 0.172200
H178 H -0.269600 0.093200 0.512600
H179 H -0.222400 -0.094200 0.447900
H180 H -0.044600 0.401800 -0.017300
H181 H -0.109800 -0.093700 0.433200
H182 H -0.109800 0.593700 -0.066800
H183 H -0.044600 0.098200 0.482700
H184 H -0.222400 0.594200 -0.052100
H185 H -0.136500 0.331600 0.672200
H186 H -0.269600 0.406800 0.012600
H187 H -0.201300 0.517400 0.724600
H188 H -0.204500 0.222400 0.065000
H189 H -0.215300 0.792800 0.693300
H190 H -0.169800 0.880700 0.607100
H191 H -0.105200 0.696400 0.553500
H192 H -0.051000 -0.003100 0.592800
H193 H 0.002600 -0.157600 0.663700
H194 H 0.064500 -0.021100 0.733400
H195 H -0.017900 -0.073000 -0.163000
H196 H 0.072600 0.271900 0.732500
H197 H -0.072600 -0.228100 -0.232500
H198 H 0.017900 0.427000 0.663000
H199 H -0.064500 -0.521100 -0.233400
H200 H 0.204500 0.722400 0.435000
H201 H -0.002600 -0.657600 -0.163700
H202 H 0.269600 0.906800 0.487400
H203 H 0.051000 -0.503100 -0.092800
H204 H 0.222400 1.094200 0.552100
H205 H 0.109800 1.093700 0.566800
H206 H 0.105200 0.196400 -0.053500
H207 H 0.044600 0.901800 0.517300
H208 H 0.169800 0.380700 -0.107100
H209 H 0.136500 0.668400 0.327800
H210 H 0.215300 0.292800 -0.193300
H211 H 0.201300 0.482600 0.275400
H212 H 0.201300 0.017400 -0.224600
H213 H 0.215300 0.207200 0.306700
H214 H 0.136500 -0.168400 -0.172200
H215 H 0.169800 0.119300 0.392900
H216 H 0.105200 0.303600 0.446500
H217 H 0.044600 -0.401800 0.017300
H218 H 0.051000 1.003100 0.407200
H219 H 0.109800 -0.593700 0.066800
H220 H -0.002600 1.157600 0.336300
H221 H 0.222400 -0.594200 0.052100
H222 H -0.064500 1.021100 0.266600
H223 H 0.269600 -0.406800 -0.012600
H224 H -0.072600 0.728100 0.267500
H225 H 0.204500 -0.222400 -0.065000
H226 H -0.017900 0.573000 0.337000
H227 H 1.204500 0.777600 0.935000
H228 H 1.269600 0.593200 0.987400
H229 H 1.222400 0.405800 1.052100
H230 H 1.109800 0.406300 1.066800
H231 H 1.044600 0.598200 1.017300
H232 H 1.136500 0.831600 0.827800
H233 H 0.017900 0.073000 1.163000
H234 H 1.201300 1.017400 0.775400
H235 H 0.072600 0.228100 1.232500
H236 H 1.215300 1.292800 0.806700
H237 H 0.064500 0.521100 1.233400
H238 H 1.169800 1.380700 0.892900
H239 H 0.002600 0.657600 1.163700
H240 H 1.105200 1.196400 0.946500
H241 H -0.051000 0.503100 1.092800
H242 H 1.051000 0.496900 0.907200
H243 H 0.997400 0.342400 0.836300
H244 H -0.105200 -0.196400 1.053500
H245 H 0.935500 0.478900 0.766600
H246 H -0.169800 -0.380700 1.107100
H247 H 0.927400 0.771900 0.767500
H248 H -0.215300 -0.292800 1.193300
H249 H 0.982100 0.927000 0.837000
H250 H -0.201300 -0.017400 1.224600
H251 H 0.795500 1.222400 1.065000
H252 H -0.136500 0.168400 1.172200
H253 H 0.730400 1.406800 1.012600
H254 H 0.777600 1.594200 0.947900
H255 H -0.044600 0.401800 0.982700
H256 H 0.890200 1.593700 0.933200
H257 H -0.109800 0.593700 0.933200
H258 H 0.955400 1.401800 0.982700
H259 H -0.222400 0.594200 0.947900
H260 H 0.863500 1.168400 1.172200
H261 H -0.269600 0.406800 1.012600
H262 H 0.798700 0.982600 1.224600
H263 H -0.204500 0.222400 1.065000
H264 H 0.784700 0.707200 1.193300
H265 H 0.830200 0.619300 1.107100
H266 H 0.894800 0.803600 1.053500
H267 H 0.949000 1.503100 1.092800
H268 H 1.002600 1.657600 1.163700
H269 H 1.064500 1.521100 1.233400
H270 H -0.017900 -0.073000 0.837000
H271 H 1.072600 1.228100 1.232500
H272 H -0.072600 -0.228100 0.767500
H273 H 1.017900 1.073000 1.163000
H274 H -0.064500 -0.521100 0.766600
H275 H 1.204500 0.777600 -0.065000
H276 H -0.002600 -0.657600 0.836300
H277 H 1.269600 0.593200 -0.012600
H278 H 0.051000 -0.503100 0.907200
H279 H 1.222400 0.405800 0.052100
H280 H 1.109800 0.406300 0.066800
H281 H 0.105200 0.196400 0.946500
H282 H 1.044600 0.598200 0.017300
H283 H 0.169800 0.380700 0.892900
H284 H 1.136500 0.831600 -0.172200
H285 H 0.215300 0.292800 0.806700
H286 H 1.201300 1.017400 -0.224600
H287 H 0.201300 0.017400 0.775400
H288 H 1.215300 1.292800 -0.193300
H289 H 0.136500 -0.168400 0.827800
H290 H 1.169800 1.380700 -0.107100
H291 H 1.105200 1.196400 -0.053500
H292 H 0.044600 -0.401800 1.017300
H293 H 1.051000 0.496900 -0.092800
H294 H 0.109800 -0.593700 1.066800
H295 H 0.997400 0.342400 -0.163700
H296 H 0.222400 -0.594200 1.052100
H297 H 0.935500 0.478900 -0.233400
H298 H 0.269600 -0.406800 0.987400
H299 H 0.927400 0.771900 -0.232500
H300 H 0.204500 -0.222400 0.935000
H301 H 0.982100 0.927000 -0.163000
H302 H 0.795500 1.222400 0.065000
H303 H 0.730400 1.406800 0.012600
H304 H 0.777600 1.594200 -0.052100
H305 H 0.890200 1.593700 -0.066800
H306 H 0.955400 1.401800 -0.017300
H307 H 0.863500 1.168400 0.172200
H308 H 0.017900 1.073000 0.163000
H309 H 0.798700 0.982600 0.224600
H310 H 0.072600 1.228100 0.232500
H311 H 0.784700 0.707200 0.193300
H312 H 0.064500 1.521100 0.233400
H313 H 0.830200 0.619300 0.107100
H314 H 0.002600 1.657600 0.163700
H315 H 0.894800 0.803600 0.053500
H316 H -0.051000 1.503100 0.092800
H317 H 0.949000 1.503100 0.092800
H318 H 1.002600 1.657600 0.163700
H319 H -0.105200 0.803600 0.053500
H320 H 1.064500 1.521100 0.233400
H321 H -0.169800 0.619300 0.107100
H322 H 1.072600 1.228100 0.232500
H323 H -0.215300 0.707200 0.193300
H324 H 1.017900 1.073000 0.163000
H325 H -0.201300 0.982600 0.224600
H326 H 1.204500 -0.222400 0.935000
H327 H -0.136500 1.168400 0.172200
H328 H 1.269600 -0.406800 0.987400
H329 H 1.222400 -0.594200 1.052100
H330 H -0.044600 1.401800 -0.017300
H331 H 1.109800 -0.593700 1.066800
H332 H -0.109800 1.593700 -0.066800
H333 H 1.044600 -0.401800 1.017300
H334 H -0.222400 1.594200 -0.052100
H335 H 1.136500 -0.168400 0.827800
H336 H -0.269600 1.406800 0.012600
H337 H 1.201300 0.017400 0.775400
H338 H -0.204500 1.222400 0.065000
H339 H 1.215300 0.292800 0.806700
H340 H 1.169800 0.380700 0.892900
H341 H 1.105200 0.196400 0.946500
H342 H 1.051000 -0.503100 0.907200
H343 H 0.997400 -0.657600 0.836300
H344 H 0.935500 -0.521100 0.766600
H345 H -0.017900 0.927000 -0.163000
H346 H 0.927400 -0.228100 0.767500
H347 H -0.072600 0.771900 -0.232500
H348 H 0.982100 -0.073000 0.837000
H349 H -0.064500 0.478900 -0.233400
H350 H 0.795500 0.222400 1.065000
H351 H -0.002600 0.342400 -0.163700
H352 H 0.730400 0.406800 1.012600
H353 H 0.051000 0.496900 -0.092800
H354 H 0.777600 0.594200 0.947900
H355 H 0.890200 0.593700 0.933200
H356 H 0.105200 1.196400 -0.053500
H357 H 0.955400 0.401800 0.982700
H358 H 0.169800 1.380700 -0.107100
H359 H 0.863500 0.168400 1.172200
H360 H 0.215300 1.292800 -0.193300
H361 H 0.798700 -0.017400 1.224600
H362 H 0.201300 1.017400 -0.224600
H363 H 0.784700 -0.292800 1.193300
H364 H 0.136500 0.831600 -0.172200
H365 H 0.337900 0.302800 0.647000
H366 H 0.894800 -0.196400 1.053500
H367 H 0.044600 0.598200 0.017300
H368 H 0.949000 0.503100 1.092800
H369 H 0.109800 0.406300 0.066800
H370 H 1.002600 0.657600 1.163700
H371 H 0.222400 0.405800 0.052100
H372 H 1.064500 0.521100 1.233400
H373 H 0.269600 0.593200 -0.012600
H374 H 1.072600 0.228100 1.232500
H375 H 0.204500 0.777600 -0.065000
H376 H 1.017900 0.073000 1.163000
H377 H 1.204500 -0.222400 -0.065000
H378 H 1.269600 -0.406800 -0.012600
H379 H 1.222400 -0.594200 0.052100
H380 H 1.109800 -0.593700 0.066800
H381 H 1.044600 -0.401800 0.017300
H382 H 1.136500 -0.168400 -0.172200
H383 H 0.017900 1.073000 1.163000
H384 H 1.201300 0.017400 -0.224600
H385 H 0.072600 1.228100 1.232500
H386 H 1.215300 0.292800 -0.193300
H387 H 0.064500 1.521100 1.233400
H388 H 1.169800 0.380700 -0.107100
H389 H 0.002600 1.657600 1.163700
H390 H 1.105200 0.196400 -0.053500
H391 H -0.051000 1.503100 1.092800
H392 H 1.051000 -0.503100 -0.092800
H393 H 0.997400 -0.657600 -0.163700
H394 H -0.105200 0.803600 1.053500
H395 H 0.935500 -0.521100 -0.233400
H396 H -0.169800 0.619300 1.107100
H397 H 0.927400 -0.228100 -0.232500
H398 H -0.215300 0.707200 1.193300
H399 H 0.982100 -0.073000 -0.163000
H400 H -0.201300 0.982600 1.224600
H401 H 0.795500 0.222400 0.065000
H402 H -0.136500 1.168400 1.172200
H403 H 0.730400 0.406800 0.012600
H404 H 0.777600 0.594200 -0.052100
H405 H -0.044600 1.401800 0.982700
H406 H 0.890200 0.593700 -0.066800
H407 H -0.109800 1.593700 0.933200
H408 H 0.955400 0.401800 -0.017300
H409 H -0.222400 1.594200 0.947900
H410 H 0.863500 0.168400 0.172200
H411 H -0.269600 1.406800 1.012600
H412 H 0.798700 -0.017400 0.224600
H413 H -0.204500 1.222400 1.065000
H414 H 0.784700 -0.292800 0.193300
H415 H 0.830200 -0.380700 0.107100
H416 H 0.894800 -0.196400 0.053500
H417 H 0.949000 0.503100 0.092800
H418 H 1.002600 0.657600 0.163700
H419 H 1.064500 0.521100 0.233400
H420 H -0.017900 0.927000 0.837000
H421 H 1.072600 0.228100 0.232500
H422 H -0.072600 0.771900 0.767500
H423 H 1.017900 0.073000 0.163000
H424 H -0.064500 0.478900 0.766600
H425 H 0.204500 0.777600 0.935000
H426 H -0.002600 0.342400 0.836300
H427 H 0.269600 0.593200 0.987400
H428 H 0.051000 0.496900 0.907200
H429 H 0.222400 0.405800 1.052100
H430 H 0.109800 0.406300 1.066800
H431 H 0.105200 1.196400 0.946500
H432 H 0.044600 0.598200 1.017300
H433 H 0.169800 1.380700 0.892900
H434 H 0.136500 0.831600 0.827800
H435 H 0.215300 1.292800 0.806700
H436 H 0.201300 1.017400 0.775400
C437 C 0.181180 1.053700 0.810030
C438 C 0.143110 0.943100 0.841270
C439 C 0.190080 1.216700 0.828950
C440 C 0.117890 0.707200 0.970840
C441 C 0.090340 0.596100 1.010620
C442 C 0.162630 1.269200 0.879670
C443 C 0.129020 0.483000 1.040430
C444 C 0.124470 1.159400 0.911580
C445 C 0.195570 0.482500 1.031570
C446 C 0.114300 0.995900 0.892820
C447 C 0.223580 0.593300 0.992870
C448 C 0.026000 0.553400 0.878790
C449 C 0.185060 0.703800 0.962120
C450 C -0.005970 0.461500 0.836650
C451 C 0.314480 0.202600 0.661580
C452 C 0.185520 0.797400 0.161580
C453 C 0.521580 -0.271800 0.620350
C454 C 0.814480 0.297400 0.338420
C455 C 0.484970 -0.192200 0.662650
C456 C 0.978420 0.271800 0.120350
C457 C 1.015030 0.192200 0.162650
C458 C -0.042560 0.542200 0.795330
C459 C 1.047190 0.284000 0.204170
C460 C -0.047190 0.716000 0.795830
C461 C 1.042560 0.457800 0.204670
C462 C -0.015030 0.807800 0.837350
C463 C 1.005970 0.538500 0.163350
C464 C 0.021580 0.728200 0.879650
C465 C 0.974000 0.446600 0.121210
C466 C 0.452810 -0.284000 0.704170
C467 C 0.885700 0.004100 0.107180
C468 C 0.875530 -0.159400 0.088420
C469 C 0.685520 0.702600 0.838420
C470 C 0.837370 -0.269200 0.120330
C471 C 0.457440 -0.457800 0.704670
C472 C 0.809920 -0.216700 0.171050
C473 C 0.494030 -0.538500 0.663350
C474 C 0.818820 -0.053700 0.189970
C475 C -0.185060 1.296200 1.037880
C476 C 0.856890 0.056900 0.158730
C477 C -0.223580 1.406700 1.007130
C478 C 0.882110 0.292800 0.029160
C479 C 0.909660 0.403900 -0.010620
C480 C -0.195570 1.517500 0.968430
C481 C 0.870980 0.517000 -0.040430
C482 C -0.129020 1.517000 0.959570
C483 C 0.804430 0.517500 -0.031570
C484 C -0.090340 1.403900 0.989380
C485 C 0.776420 0.406700 0.007130
C486 C -0.117890 1.292800 1.029160
C487 C 0.814940 0.296200 0.037880
C488 C -0.143110 1.056900 1.158730
C489 C 0.685520 0.797400 0.338420
C490 C 0.526000 -0.446600 0.621210
C491 C 0.614300 -0.004100 0.607180
C492 C 0.814480 0.202600 0.838420
C493 C 1.021580 -0.271800 -0.120350
C494 C 0.984970 -0.192200 -0.162650
C495 C -0.181180 0.946300 1.189970
C496 C 0.952810 -0.284000 -0.204170
C497 C -0.190080 0.783300 1.171050
C498 C 0.957440 -0.457800 -0.204670
C499 C -0.162630 0.730800 1.120330
C500 C 0.994030 -0.538500 -0.163350
C501 C -0.124470 0.840600 1.088420
C502 C 1.026000 -0.446600 -0.121210
C503 C -0.114300 1.004100 1.107180
C504 C 1.114300 -0.004100 -0.107180
C505 C 1.124470 0.159400 -0.088420
C506 C -0.026000 1.446600 1.121210
C507 C 1.162630 0.269200 -0.120330
C508 C 0.005970 1.538500 1.163350
C509 C 1.190080 0.216700 -0.171050
C510 C 0.042560 1.457800 1.204670
C511 C 1.181180 0.053700 -0.189970
C512 C 0.047190 1.284000 1.204170
C513 C 1.143110 -0.056900 -0.158730
C514 C 0.015030 1.192200 1.162650
C515 C 1.117890 -0.292800 -0.029160
C516 C 1.090340 -0.403900 0.010620
C517 C -0.021580 1.271800 1.120350
C518 C 1.129020 -0.517000 0.040430
C519 C 0.624470 0.159400 0.588420
C520 C 1.195570 -0.517500 0.031570
C521 C 0.662630 0.269200 0.620330
C522 C 1.223580 -0.406700 -0.007130
C523 C 0.185520 0.702600 0.661580
C524 C 1.185060 -0.296200 -0.037880
C525 C 0.690080 0.216700 0.671050
C526 C 0.681180 0.053700 0.689970
C527 C 0.314480 0.297400 0.161580
C528 C 0.643110 -0.056900 0.658730
C529 C 0.685060 0.796200 1.037880
C530 C 0.617890 -0.292800 0.529160
C531 C 0.978420 0.271800 1.120350
C532 C 1.015030 0.192200 1.162650
C533 C 0.723580 0.906700 1.007130
C534 C 1.047190 0.284000 1.204170
C535 C 0.185060 0.703800 -0.037880
C536 C 1.042560 0.457800 1.204670
C537 C 0.223580 0.593300 -0.007130
C538 C 1.005970 0.538500 1.163350
C539 C 0.195570 0.482500 0.031570
C540 C 0.974000 0.446600 1.121210
C541 C 0.129020 0.483000 0.040430
C542 C 0.885700 0.004100 1.107180
C543 C 0.875530 -0.159400 1.088420
C544 C 0.090340 0.596100 0.010620
C545 C 0.837370 -0.269200 1.120330
C546 C 0.117890 0.707200 -0.029160
C547 C 0.809920 -0.216700 1.171050
C548 C 0.143110 0.943100 -0.158730
C549 C 0.818820 -0.053700 1.189970
C550 C 0.181180 1.053700 -0.189970
C551 C 0.856890 0.056900 1.158730
C552 C 0.190080 1.216700 -0.171050
C553 C 0.882110 0.292800 1.029160
C554 C 0.909660 0.403900 0.989380
C555 C 0.162630 1.269200 -0.120330
C556 C 0.870980 0.517000 0.959570
C557 C 0.124470 1.159400 -0.088420
C558 C 0.804430 0.517500 0.968430
C559 C 0.114300 0.995900 -0.107180
C560 C 0.776420 0.406700 1.007130
C561 C 0.026000 0.553400 -0.121210
C562 C 0.814940 0.296200 1.037880
C563 C -0.005970 0.461500 -0.163350
C564 C 0.590340 -0.403900 0.489380
C565 C 0.695570 1.017500 0.968430
C566 C 0.629020 -0.517000 0.459570
C567 C 0.629020 1.017000 0.959570
C568 C 1.021580 -0.271800 0.879650
C569 C 0.984970 -0.192200 0.837350
C570 C -0.042560 0.542200 -0.204670
C571 C 0.952810 -0.284000 0.795830
C572 C -0.047190 0.716000 -0.204170
C573 C 0.957440 -0.457800 0.795330
C574 C -0.015030 0.807800 -0.162650
C575 C 0.994030 -0.538500 0.836650
C576 C 0.021580 0.728200 -0.120350
C577 C 1.026000 -0.446600 0.878790
C578 C 0.695570 -0.517500 0.468430
C579 C 1.114300 -0.004100 0.892820
C580 C 1.124470 0.159400 0.911580
C581 C 0.590340 0.903900 0.989380
C582 C 1.162630 0.269200 0.879670
C583 C 0.617890 0.792800 1.029160
C584 C 1.190080 0.216700 0.828950
C585 C 0.723580 -0.406700 0.507130
C586 C 1.181180 0.053700 0.810030
C587 C -0.185060 1.296200 0.037880
C588 C 1.143110 -0.056900 0.841270
C589 C -0.223580 1.406700 0.007130
C590 C 1.117890 -0.292800 0.970840
C591 C 1.090340 -0.403900 1.010620
C592 C -0.195570 1.517500 -0.031570
C593 C 1.129020 -0.517000 1.040430
C594 C -0.129020 1.517000 -0.040430
C595 C 1.195570 -0.517500 1.031570
C596 C -0.090340 1.403900 -0.010620
C597 C 1.223580 -0.406700 0.992870
C598 C -0.117890 1.292800 0.029160
C599 C 1.185060 -0.296200 0.962120
C600 C -0.143110 1.056900 0.158730
C601 C 0.643110 0.556900 1.158730
C602 C 0.685060 -0.296200 0.537880
C603 C 0.681180 0.446300 1.189970
C604 C 0.690080 0.283300 1.171050
C605 C 0.662630 0.230800 1.120330
C606 C 0.978420 1.271800 0.120350
C607 C 1.015030 1.192200 0.162650
C608 C -0.181180 0.946300 0.189970
C609 C 1.047190 1.284000 0.204170
C610 C -0.190080 0.783300 0.171050
C611 C 1.042560 1.457800 0.204670
C612 C -0.162630 0.730800 0.120330
C613 C 1.005970 1.538500 0.163350
C614 C -0.124470 0.840600 0.088420
C615 C 0.974000 1.446600 0.121210
C616 C -0.114300 1.004100 0.107180
C617 C 0.885700 1.004100 0.107180
C618 C 0.875530 0.840600 0.088420
C619 C -0.026000 1.446600 0.121210
C620 C 0.837370 0.730800 0.120330
C621 C 0.005970 1.538500 0.163350
C622 C 0.809920 0.783300 0.171050
C623 C 0.042560 1.457800 0.204670
C624 C 0.818820 0.946300 0.189970
C625 C 0.047190 1.284000 0.204170
C626 C 0.856890 1.056900 0.158730
C627 C 0.015030 1.192200 0.162650
C628 C 0.882110 1.292800 0.029160
C629 C 0.909660 1.403900 -0.010620
C630 C -0.021580 1.271800 0.120350
C631 C 0.870980 1.517000 -0.040430
C632 C 0.624470 0.340600 1.088420
C633 C 0.804430 1.517500 -0.031570
C634 C 0.614300 0.504100 1.107180
C635 C 0.776420 1.406700 0.007130
C636 C 0.526000 0.946600 1.121210
C637 C 0.814940 1.296200 0.037880
C638 C 0.478420 0.271800 0.379650
C639 C 0.494030 1.038500 1.163350
C640 C 0.515030 0.192200 0.337350
C641 C 0.457440 0.957800 1.204670
C642 C 0.547190 0.284000 0.295830
C643 C 1.021580 0.728200 -0.120350
C644 C 0.984970 0.807800 -0.162650
C645 C 0.452810 0.784000 1.204170
C646 C 0.952810 0.716000 -0.204170
C647 C 0.185060 -0.296200 0.962120
C648 C 0.957440 0.542200 -0.204670
C649 C 0.223580 -0.406700 0.992870
C650 C 0.994030 0.461500 -0.163350
C651 C 0.195570 -0.517500 1.031570
C652 C 1.026000 0.553400 -0.121210
C653 C 0.129020 -0.517000 1.040430
C654 C 1.114300 0.995900 -0.107180
C655 C 1.124470 1.159400 -0.088420
C656 C 0.090340 -0.403900 1.010620
C657 C 1.162630 1.269200 -0.120330
C658 C 0.117890 -0.292800 0.970840
C659 C 1.190080 1.216700 -0.171050
C660 C 0.143110 -0.056900 0.841270
C661 C 1.181180 1.053700 -0.189970
C662 C 0.181180 0.053700 0.810030
C663 C 1.143110 0.943100 -0.158730
C664 C 0.190080 0.216700 0.828950
C665 C 1.117890 0.707200 -0.029160
C666 C 1.090340 0.596100 0.010620
C667 C 0.162630 0.269200 0.879670
C668 C 1.129020 0.483000 0.040430
C669 C 0.124470 0.159400 0.911580
C670 C 1.195570 0.482500 0.031570
C671 C 0.114300 -0.004100 0.892820
C672 C 1.223580 0.593300 -0.007130
C673 C 0.026000 -0.446600 0.878790
C674 C 1.185060 0.703800 -0.037880
C675 C -0.005970 -0.538500 0.836650
C676 C 0.542560 0.457800 0.295330
C677 C 0.484970 0.692200 1.162650
C678 C 0.521580 0.771800 1.120350
C679 C 0.505970 0.538500 0.336650
C680 C 0.314940 0.203800 0.962120
C681 C 0.978420 1.271800 1.120350
C682 C 1.015030 1.192200 1.162650
C683 C -0.042560 -0.457800 0.795330
C684 C 1.047190 1.284000 1.204170
C685 C -0.047190 -0.284000 0.795830
C686 C 1.042560 1.457800 1.204670
C687 C -0.015030 -0.192200 0.837350
C688 C 1.005970 1.538500 1.163350
C689 C 0.021580 -0.271800 0.879650
C690 C 0.974000 1.446600 1.121210
C691 C 0.474000 0.446600 0.378790
C692 C 0.885700 1.004100 1.107180
C693 C 0.875530 0.840600 1.088420
C694 C 0.276420 0.093300 0.992870
C695 C 0.837370 0.730800 1.120330
C696 C 0.385700 0.004100 0.392820
C697 C 0.809920 0.783300 1.171050
C698 C 0.304430 -0.017500 1.031570
C699 C 0.818820 0.946300 1.189970
C700 C -0.185060 0.296200 1.037880
C701 C 0.856890 1.056900 1.158730
C702 C -0.223580 0.406700 1.007130
C703 C 0.882110 1.292800 1.029160
C704 C 0.909660 1.403900 0.989380
C705 C -0.195570 0.517500 0.968430
C706 C 0.870980 1.517000 0.959570
C707 C -0.129020 0.517000 0.959570
C708 C 0.804430 1.517500 0.968430
C709 C -0.090340 0.403900 0.989380
C710 C 0.776420 1.406700 1.007130
C711 C -0.117890 0.292800 1.029160
C712 C 0.814940 1.296200 1.037880
C713 C -0.143110 0.056900 1.158730
C714 C 0.375530 -0.159400 0.411580
C715 C 0.370980 -0.017000 1.040430
C716 C 0.337370 -0.269200 0.379670
C717 C 0.409660 0.096100 1.010620
C718 C 1.021580 0.728200 0.879650
C719 C 0.984970 0.807800 0.837350
C720 C -0.181180 -0.053700 1.189970
C721 C 0.952810 0.716000 0.795830
C722 C -0.190080 -0.216700 1.171050
C723 C 0.957440 0.542200 0.795330
C724 C -0.162630 -0.269200 1.120330
C725 C 0.994030 0.461500 0.836650
C726 C -0.124470 -0.159400 1.088420
C727 C 1.026000 0.553400 0.878790
C728 C -0.114300 0.004100 1.107180
C729 C 1.114300 0.995900 0.892820
C730 C 1.124470 1.159400 0.911580
C731 C -0.026000 0.446600 1.121210
C732 C 1.162630 1.269200 0.879670
C733 C 0.005970 0.538500 1.163350
C734 C 1.190080 1.216700 0.828950
C735 C 0.042560 0.457800 1.204670
C736 C 1.181180 1.053700 0.810030
C737 C 0.047190 0.284000 1.204170
C738 C 1.143110 0.943100 0.841270
C739 C 0.015030 0.192200 1.162650
C740 C 1.117890 0.707200 0.970840
C741 C 1.090340 0.596100 1.010620
C742 C -0.021580 0.271800 1.120350
C743 C 1.129020 0.483000 1.040430
C744 C 0.382110 0.207200 0.970840
C745 C 1.195570 0.482500 1.031570
C746 C 0.309920 -0.216700 0.328950
C747 C 1.223580 0.593300 0.992870
C748 C 0.356890 0.443100 0.841270
C749 C 1.185060 0.703800 0.962120
C750 C 0.318820 -0.053700 0.310030
C751 C 0.318820 0.553700 0.810030
C752 C 0.356890 0.056900 0.341270
C753 C 0.309920 0.716700 0.828950
C754 C 0.382110 0.292800 0.470840
C755 C 0.337370 0.769200 0.879670
C756 C 0.021580 0.771800 0.379650
C757 C -0.015030 0.692200 0.337350
C758 C 0.409660 0.403900 0.510620
C759 C -0.047190 0.784000 0.295830
C760 C 0.185060 -0.296200 -0.037880
C761 C -0.042560 0.957800 0.295330
C762 C 0.223580 -0.406700 -0.007130
C763 C -0.005970 1.038500 0.336650
C764 C 0.195570 -0.517500 0.031570
C765 C 0.026000 0.946600 0.378790
C766 C 0.129020 -0.517000 0.040430
C767 C 0.114300 0.504100 0.392820
C768 C 0.124470 0.340600 0.411580
C769 C 0.090340 -0.403900 0.010620
C770 C 0.162630 0.230800 0.379670
C771 C 0.117890 -0.292800 -0.029160
C772 C 0.190080 0.283300 0.328950
C773 C 0.143110 -0.056900 -0.158730
C774 C 0.181180 0.446300 0.310030
C775 C 0.181180 0.053700 -0.189970
C776 C 0.143110 0.556900 0.341270
C777 C 0.190080 0.216700 -0.171050
C778 C 0.117890 0.792800 0.470840
C779 C 0.090340 0.903900 0.510620
C780 C 0.162630 0.269200 -0.120330
C781 C 0.129020 1.017000 0.540430
C782 C 0.124470 0.159400 -0.088420
C783 C 0.195570 1.017500 0.531570
C784 C 0.114300 -0.004100 -0.107180
C785 C 0.223580 0.906700 0.492870
C786 C 0.026000 -0.446600 -0.121210
C787 C 0.185060 0.796200 0.462120
C788 C -0.005970 -0.538500 -0.163350
C789 C 0.375530 0.659400 0.911580
C790 C 0.385700 0.495900 0.892820
C791 C 0.370980 0.517000 0.540430
C792 C 0.474000 0.053400 0.878790
C793 C -0.021580 0.228200 0.620350
C794 C 0.015030 0.307800 0.662650
C795 C -0.042560 -0.457800 -0.204670
C796 C 0.047190 0.216000 0.704170
C797 C -0.047190 -0.284000 -0.204170
C798 C 0.042560 0.042200 0.704670
C799 C -0.015030 -0.192200 -0.162650
C800 C 0.005970 -0.038500 0.663350
C801 C 0.021580 -0.271800 -0.120350
C802 C -0.026000 0.053400 0.621210
C803 C 0.304430 0.517500 0.531570
C804 C -0.114300 0.495900 0.607180
C805 C -0.124470 0.659400 0.588420
C806 C 0.505970 -0.038500 0.836650
C807 C -0.162630 0.769200 0.620330
C808 C 0.276420 0.406700 0.492870
C809 C -0.190080 0.716700 0.671050
C810 C 0.542560 0.042200 0.795330
C811 C -0.181180 0.553700 0.689970
C812 C -0.185060 0.296200 0.037880
C813 C -0.143110 0.443100 0.658730
C814 C -0.223580 0.406700 0.007130
C815 C -0.117890 0.207200 0.529160
C816 C -0.090340 0.096100 0.489380
C817 C -0.195570 0.517500 -0.031570
C818 C -0.129020 -0.017000 0.459570
C819 C -0.129020 0.517000 -0.040430
C820 C -0.195570 -0.017500 0.468430
C821 C -0.090340 0.403900 -0.010620
C822 C -0.223580 0.093300 0.507130
C823 C -0.117890 0.292800 0.029160
C824 C -0.185060 0.203800 0.537880
C825 C -0.143110 0.056900 0.158730
C826 C 0.314940 0.296200 0.462120
C827 C 0.547190 0.216000 0.795830
C828 C 0.515030 0.307800 0.837350
C829 C 0.478420 0.228200 0.879650
C830 C 0.685060 0.796200 0.037880
C831 C 1.021580 0.771800 0.379650
C832 C 0.984970 0.692200 0.337350
C833 C -0.181180 -0.053700 0.189970
C834 C 0.952810 0.784000 0.295830
C835 C -0.190080 -0.216700 0.171050
C836 C 0.957440 0.957800 0.295330
C837 C -0.162630 -0.269200 0.120330
C838 C 0.994030 1.038500 0.336650
C839 C -0.124470 -0.159400 0.088420
C840 C 1.026000 0.946600 0.378790
C841 C -0.114300 0.004100 0.107180
C842 C 1.114300 0.504100 0.392820
C843 C 1.124470 0.340600 0.411580
C844 C -0.026000 0.446600 0.121210
C845 C 1.162630 0.230800 0.379670
C846 C 0.005970 0.538500 0.163350
C847 C 1.190080 0.283300 0.328950
C848 C 0.042560 0.457800 0.204670
C849 C 1.181180 0.446300 0.310030
C850 C 0.047190 0.284000 0.204170
C851 C 1.143110 0.556900 0.341270
C852 C 0.015030 0.192200 0.162650
C853 C 1.117890 0.792800 0.470840
C854 C 1.090340 0.903900 0.510620
C855 C -0.021580 0.271800 0.120350
C856 C 1.129020 1.017000 0.540430
C857 C 0.723580 0.906700 0.007130
C858 C 1.195570 1.017500 0.531570
C859 C 0.695570 1.017500 -0.031570
C860 C 1.223580 0.906700 0.492870
C861 C 0.629020 1.017000 -0.040430
C862 C 1.185060 0.796200 0.462120
C863 C 0.521580 0.728200 0.620350
C864 C 0.590340 0.903900 -0.010620
C865 C 0.617890 0.792800 0.029160
C866 C 0.484970 0.807800 0.662650
C867 C 0.643110 0.556900 0.158730
C868 C 0.978420 0.228200 0.620350
C869 C 1.015030 0.307800 0.662650
C870 C 0.452810 0.716000 0.704170
C871 C 1.047190 0.216000 0.704170
C872 C 0.314940 1.296200 0.462120
C873 C 1.042560 0.042200 0.704670
C874 C 0.276420 1.406700 0.492870
C875 C 1.005970 -0.038500 0.663350
C876 C 0.304430 1.517500 0.531570
C877 C 0.974000 0.053400 0.621210
C878 C 0.370980 1.517000 0.540430
C879 C 0.885700 0.495900 0.607180
C880 C 0.875530 0.659400 0.588420
C881 C 0.409660 1.403900 0.510620
C882 C 0.837370 0.769200 0.620330
C883 C 0.382110 1.292800 0.470840
C884 C 0.809920 0.716700 0.671050
C885 C 0.356890 1.056900 0.341270
C886 C 0.818820 0.553700 0.689970
C887 C 0.318820 0.946300 0.310030
C888 C 0.856890 0.443100 0.658730
C889 C 0.309920 0.783300 0.328950
C890 C 0.882110 0.207200 0.529160
C891 C 0.909660 0.096100 0.489380
C892 C 0.337370 0.730800 0.379670
C893 C 0.870980 -0.017000 0.459570
C894 C 0.375530 0.840600 0.411580
C895 C 0.804430 -0.017500 0.468430
C896 C 0.385700 1.004100 0.392820
C897 C 0.776420 0.093300 0.507130
C898 C 0.474000 1.446600 0.378790
C899 C 0.814940 0.203800 0.537880
C900 C 0.505970 1.538500 0.336650
C901 C 0.681180 0.446300 0.189970
C902 C 0.457440 0.542200 0.704670
C903 C 0.690080 0.283300 0.171050
C904 C 0.494030 0.461500 0.663350
C905 C 0.662630 0.230800 0.120330
C906 C 0.478420 0.228200 -0.120350
C907 C 0.515030 0.307800 -0.162650
C908 C 0.542560 1.457800 0.295330
C909 C 0.547190 0.216000 -0.204170
C910 C 0.547190 1.284000 0.295830
C911 C 0.542560 0.042200 -0.204670
C912 C 0.515030 1.192200 0.337350
C913 C 0.505970 -0.038500 -0.163350
C914 C 0.478420 1.271800 0.379650
C915 C 0.474000 0.053400 -0.121210
C916 C 0.526000 0.553400 0.621210
C917 C 0.385700 0.495900 -0.107180
C918 C 0.375530 0.659400 -0.088420
C919 C 0.624470 0.340600 0.088420
C920 C 0.337370 0.769200 -0.120330
C921 C 0.614300 0.504100 0.107180
C922 C 0.309920 0.716700 -0.171050
C923 C 0.614300 0.995900 0.607180
C924 C 0.318820 0.553700 -0.189970
C925 C 0.685060 0.703800 0.537880
C926 C 0.356890 0.443100 -0.158730
C927 C 0.723580 0.593300 0.507130
C928 C 0.382110 0.207200 -0.029160
C929 C 0.409660 0.096100 0.010620
C930 C 0.695570 0.482500 0.468430
C931 C 0.370980 -0.017000 0.040430
C932 C 0.629020 0.483000 0.459570
C933 C 0.304430 -0.017500 0.031570
C934 C 0.590340 0.596100 0.489380
C935 C 0.276420 0.093300 -0.007130
C936 C 0.617890 0.707200 0.529160
C937 C 0.314940 0.203800 -0.037880
C938 C 0.643110 0.943100 0.658730
C939 C 0.526000 0.946600 0.121210
C940 C 0.624470 1.159400 0.588420
C941 C 0.494030 1.038500 0.163350
C942 C 0.662630 1.269200 0.620330
C943 C 0.521580 0.771800 0.120350
C944 C 0.484970 0.692200 0.162650
C945 C 0.681180 1.053700 0.689970
C946 C 0.452810 0.784000 0.204170
C947 C 0.690080 1.216700 0.671050
C948 C 0.457440 0.957800 0.204670
N949 N 0.429550 0.468420 0.059400
N950 N 0.070450 0.968420 1.059400
N951 N 0.929550 0.031580 -0.059400
N952 N 1.070450 -0.031580 1.059400
N953 N 0.929550 0.031580 0.940600
N954 N -0.070450 1.031580 -0.059400
N955 N 1.070450 0.968420 0.059400
N956 N 0.570450 0.968420 0.440600
N957 N 0.570450 0.531580 -0.059400
N958 N 0.070450 0.968420 0.059400
N959 N 0.570450 -0.031580 0.440600
N960 N 0.929550 1.031580 -0.059400
N961 N -0.070450 1.031580 0.940600
N962 N 0.429550 0.468420 1.059400
N963 N 1.070450 0.531580 0.559400
N964 N 1.070450 0.968420 1.059400
N965 N -0.070450 0.031580 0.940600
N966 N 0.929550 1.031580 0.940600
N967 N 0.070450 -0.031580 1.059400
N968 N 1.070450 -0.031580 0.059400
N969 N 0.429550 1.031580 0.559400
N970 N -0.070450 0.468420 0.440600
N971 N 0.070450 0.531580 0.559400
N972 N 0.070450 -0.031580 0.059400
N973 N -0.070450 0.031580 -0.059400
N974 N 0.929550 0.468420 0.440600
N975 N 0.429550 0.031580 0.559400
N976 N 0.570450 0.531580 0.940600
O977 O 1.121650 1.047120 1.056510
O978 O 0.621650 0.452880 0.943490
O979 O 0.560280 0.633850 0.901250
O980 O 0.121650 1.047120 1.056510
O981 O 0.939720 0.366150 0.401250
O982 O 0.878350 0.547120 0.443490
O983 O 0.439720 0.366150 0.098750
O984 O 0.378350 0.547120 0.056510
O985 O 1.121650 0.047120 0.056510
O986 O 0.939720 0.133850 -0.098750
O987 O -0.121650 -0.047120 -0.056510
O988 O -0.060280 0.133850 -0.098750
O989 O 0.378350 0.952880 0.556510
O990 O 0.439720 1.133850 0.598750
O991 O 0.060280 0.633850 0.598750
O992 O 0.121650 0.452880 0.556510
O993 O 0.878350 -0.047120 -0.056510
O994 O 1.060280 -0.133850 0.098750
O995 O 0.060280 -0.133850 0.098750
O996 O -0.060280 0.366150 0.401250
O997 O -0.121650 0.547120 0.443490
O998 O 1.121650 0.047120 1.056510
O999 O 0.121650 0.047120 0.056510
O1000 O 1.060280 -0.133850 1.098750
O1001 O 0.121650 0.047120 1.056510
O1002 O 0.060280 -0.133850 1.098750
O1003 O 0.878350 -0.047120 0.943490
O1004 O 0.939720 0.133850 0.901250
O1005 O 0.939720 1.133850 0.901250
O1006 O 0.878350 0.952880 0.943490
O1007 O 0.621650 1.047120 0.443490
O1008 O -0.060280 1.133850 -0.098750
O1009 O -0.121650 -0.047120 0.943490
O1010 O -0.060280 0.133850 0.901250
O1011 O 1.121650 0.452880 0.556510
O1012 O 1.060280 0.633850 0.598750
O1013 O 1.060280 0.866150 1.098750
O1014 O -0.121650 0.952880 -0.056510
O1015 O 0.378350 0.547120 1.056510
O1016 O 0.439720 0.366150 1.098750
O1017 O 0.439720 0.133850 0.598750
O1018 O 0.060280 0.866150 1.098750
O1019 O -0.121650 0.952880 0.943490
O1020 O 0.378350 -0.047120 0.556510
O1021 O -0.060280 1.133850 0.901250
O1022 O 1.121650 1.047120 0.056510
O1023 O 0.939720 1.133850 -0.098750
O1024 O 0.878350 0.952880 -0.056510
O1025 O 1.060280 0.866150 0.098750
O1026 O 0.621650 0.047120 0.443490
O1027 O 0.121650 1.047120 0.056510
O1028 O 0.621650 0.452880 -0.056510
O1029 O 0.060280 0.866150 0.098750
O1030 O 0.560280 0.633850 -0.098750
O1031 O 0.560280 -0.133850 0.401250
O1032 O 0.560280 0.866150 0.401250
P1033 P -0.063930 1.147370 0.065950
P1034 P 1.063930 0.852630 -0.065950
P1035 P 0.436070 0.147370 0.434050
P1036 P 0.436070 0.352630 -0.065950
P1037 P 0.936070 1.147370 0.065950
P1038 P 0.936070 1.147370 1.065950
P1039 P 0.063930 0.852630 -0.065950
P1040 P 0.563930 0.647370 1.065950
P1041 P 0.063930 -0.147370 0.934050
P1042 P 1.063930 0.852630 0.934050
P1043 P 0.436070 1.147370 0.434050
P1044 P 0.936070 0.352630 0.565950
P1045 P -0.063930 0.147370 0.065950
P1046 P 1.063930 -0.147370 0.934050
P1047 P 0.063930 0.852630 0.934050
P1048 P 0.563930 0.647370 0.065950
P1049 P -0.063930 0.147370 1.065950
P1050 P 0.063930 0.647370 0.434050
P1051 P 1.063930 -0.147370 -0.065950
P1052 P -0.063930 0.352630 0.565950
P1053 P 0.936070 0.147370 1.065950
P1054 P 0.063930 -0.147370 -0.065950
P1055 P -0.063930 1.147370 1.065950
P1056 P 1.063930 0.647370 0.434050
P1057 P 0.563930 0.852630 0.565950
P1058 P 0.936070 0.147370 0.065950
P1059 P 0.436070 0.352630 0.934050
P1060 P 0.563930 -0.147370 0.565950
Cl1061 Cl 0.731520 0.252920 0.828500
Cl1062 Cl 0.851510 0.134350 0.774090
Cl1063 Cl 0.268480 0.752920 0.671500
Cl1064 Cl 0.351510 0.134350 0.725910
Cl1065 Cl 0.351510 0.365650 0.225910
Cl1066 Cl 0.768480 0.747080 0.328500
Cl1067 Cl 0.648490 0.865650 0.274090
Cl1068 Cl 0.231520 0.247080 0.171500
Cl1069 Cl 0.231520 0.252920 0.671500
Cl1070 Cl 0.148490 0.865650 0.225910
Cl1071 Cl 0.768480 0.752920 0.828500
Cl1072 Cl 0.648490 0.634350 0.774090
Cl1073 Cl 0.268480 0.747080 0.171500
Cl1074 Cl 0.851510 0.365650 0.274090
Cl1075 Cl 0.148490 0.634350 0.725910
Cl1076 Cl 0.731520 0.247080 0.328500
Pt1077 Pt 1.000000 1.000000 1.000000
Pt1078 Pt 0.000000 0.000000 1.000000
Pt1079 Pt 1.000000 0.500000 0.500000
Pt1080 Pt 0.500000 1.000000 0.500000
Pt1081 Pt 0.000000 1.000000 0.000000
Pt1082 Pt 1.000000 1.000000 0.000000
Pt1083 Pt 0.500000 0.500000 1.000000
Pt1084 Pt 0.000000 0.000000 0.000000
Pt1085 Pt 0.500000 0.500000 0.000000
Pt1086 Pt 0.000000 1.000000 1.000000
Pt1087 Pt 1.000000 0.000000 1.000000
Pt1088 Pt 1.000000 0.000000 0.000000
Pt1089 Pt 0.000000 0.500000 0.500000
Pt1090 Pt 0.500000 0.000000 0.500000

#END
