./ACOXAS_from_POSCAR.cif_generated_by_CrystalShift
_symmetry_cell_setting triclinic
_symmetry_space_group_name_H-M 'P 1'
loop_
_symmetry_equiv_pos_site_id
_symmetry_equiv_pos_as_xyz
1 x,y,z
_cell_length_a 12.237400
_cell_length_b 7.384400
_cell_length_c 13.659100
_cell_angle_alpha 90.000000
_cell_angle_beta 108.741000
_cell_angle_gamma 90.000000
_cell_volume 1168.873575
loop_
_atom_site_label
_atom_site_type_symbol
_atom_site_fract_x
_atom_site_fract_y
_atom_site_fract_z
H1 H 0.495600 0.176900 0.039700
H2 H 0.145300 -0.136700 -0.154400
H3 H -0.054700 -0.130800 -0.209600
H4 H 0.399400 0.200800 0.799200
H5 H 0.486300 0.135500 0.740000
H6 H -0.150800 0.109400 -0.159800
H7 H 0.367500 -0.112500 0.748200
H8 H 0.253400 0.006000 0.698100
H9 H -0.047700 0.346500 -0.060900
H10 H 0.282700 -0.181400 0.569800
H11 H 0.410800 -0.104900 0.593100
H12 H 0.361000 0.518600 -0.095600
H13 H 0.232600 0.593300 -0.117100
H14 H 0.252800 0.110800 0.353100
H15 H 0.232600 -0.093300 0.382900
H16 H 0.361000 -0.018600 0.404400
H17 H 0.252800 0.389200 -0.146900
H18 H 0.410800 0.604900 0.093100
H19 H 0.282700 0.681400 0.069800
H20 H -0.047700 0.153500 0.439100
H21 H 0.253400 0.494000 0.198100
H22 H -0.150800 0.390600 0.340200
H23 H 0.367500 0.612500 0.248200
H24 H -0.054700 0.630800 0.290400
H25 H 0.486300 0.364500 0.240000
H26 H 0.145300 0.636700 0.345600
H27 H 0.399400 0.299200 0.299200
H28 H 0.504400 0.676900 0.460300
H29 H 0.854700 0.363300 0.654400
H30 H 1.054700 0.369200 0.709600
H31 H 1.150800 0.609400 0.659800
H32 H 0.495600 0.323100 0.539700
H33 H 1.047700 0.846500 0.560900
H34 H 0.639000 1.018600 0.595600
H35 H 0.767400 1.093300 0.617100
H36 H 0.600600 0.700800 0.700800
H37 H 0.513700 0.635500 0.760000
H38 H 0.747200 0.889200 0.646900
H39 H 0.632500 0.387500 0.751800
H40 H 0.746600 0.506000 0.801900
H41 H 0.589200 1.104900 0.406900
H42 H 0.717300 0.318600 0.930200
H43 H 0.589200 0.395100 0.906900
H44 H 0.717300 1.181400 0.430200
H45 H 0.746600 0.994000 0.301900
H46 H 0.747200 0.610800 1.146900
H47 H 0.767400 0.406700 1.117100
H48 H 0.639000 0.481400 1.095600
H49 H 0.632500 1.112500 0.251800
H50 H 0.513700 0.864500 0.260000
H51 H 0.600600 0.799200 0.200800
H52 H 1.047700 0.653500 1.060900
H53 H 0.504400 0.823100 0.960300
H54 H 1.150800 0.890600 1.159800
H55 H 0.854700 1.136700 1.154400
H56 H 1.054700 1.130800 1.209600
C57 C 0.893610 1.039100 1.134590
C58 C 1.011870 1.036000 1.167500
C59 C 0.829530 0.900610 1.072350
C60 C 0.703480 0.904830 1.032150
C61 C 0.296520 0.095170 -0.032150
C62 C 0.646120 0.753010 0.958410
C63 C 0.170470 0.099390 -0.072350
C64 C 1.068830 0.891700 1.138420
C65 C 0.359770 0.305800 0.652700
C66 C 0.640230 0.694200 0.347300
C67 C 0.595720 0.840000 0.268350
C68 C 1.008150 0.751700 1.079400
C69 C 0.888210 0.754900 1.047000
C70 C 0.666640 1.014600 0.301860
C71 C 0.106390 -0.039100 -0.134590
C72 C 0.717210 0.513100 1.096900
C73 C 0.668440 1.072200 0.409340
C74 C 0.714210 0.575240 0.990410
C75 C 0.668440 0.427800 0.909340
C76 C 0.714210 0.924760 0.490410
C77 C 0.717210 0.986900 0.596900
C78 C 0.666640 0.485400 0.801860
C79 C 0.595720 0.660000 0.768350
C80 C 0.640230 0.805800 0.847300
C81 C 0.404280 0.160000 0.731650
C82 C 0.888210 0.745100 0.547000
C83 C 1.008150 0.748300 0.579400
C84 C -0.011870 -0.036000 -0.167500
C85 C 1.068830 0.608300 0.638420
C86 C 0.333360 -0.014600 0.698140
C87 C 1.011870 0.464000 0.667500
C88 C 0.353880 0.253010 0.541590
C89 C 0.893610 0.460900 0.634590
C90 C -0.068830 0.108300 -0.138420
C91 C 0.829530 0.599390 0.572350
C92 C 0.703480 0.595170 0.532150
C93 C 0.331560 -0.072200 0.590660
C94 C 0.646120 0.746990 0.458410
C95 C -0.008150 0.248300 -0.079400
C96 C 0.296520 0.404830 0.467850
C97 C 0.111790 0.245100 -0.047000
C98 C 0.359770 0.194200 0.152700
C99 C 0.404280 0.340000 0.231650
C100 C 0.170470 0.400610 0.427650
C101 C 0.106390 0.539100 0.365410
C102 C 0.333360 0.514600 0.198140
C103 C -0.011870 0.536000 0.332500
C104 C -0.068830 0.391700 0.361580
C105 C 0.331560 0.572200 0.090660
C106 C -0.008150 0.251700 0.420600
C107 C 0.111790 0.254900 0.453000
C108 C 0.285790 0.424760 0.009590
C109 C 0.282790 0.486900 -0.096900
C110 C 0.285790 0.075240 0.509590
C111 C 0.282790 0.013100 0.403100
C112 C 0.353880 0.246990 0.041590
O113 O 0.168650 0.388210 0.011280
O114 O 0.333240 0.043350 0.171950
O115 O 0.531520 0.777740 0.457820
O116 O 0.644900 0.477050 0.554290
O117 O 0.355100 0.522950 0.445710
O118 O 0.468480 0.222260 0.542180
O119 O 0.666760 0.956650 0.828050
O120 O 0.831350 0.888210 0.488720
O121 O 0.831350 0.611790 0.988720
O122 O 0.666760 0.543350 0.328050
O123 O 0.531520 0.722260 0.957820
O124 O 0.644900 1.022950 1.054290
O125 O 0.355100 -0.022950 -0.054290
O126 O 0.168650 0.111790 0.511280
O127 O 0.468480 0.277740 0.042180
O128 O 0.333240 0.456650 0.671950

#END
