./ACOXUM_from_POSCAR.cif_generated_by_CrystalShift
_symmetry_cell_setting triclinic
_symmetry_space_group_name_H-M 'P 1'
loop_
_symmetry_equiv_pos_site_id
_symmetry_equiv_pos_as_xyz
1 x,y,z
_cell_length_a 7.831000
_cell_length_b 17.277000
_cell_length_c 8.430900
_cell_angle_alpha 90.000000
_cell_angle_beta 103.180000
_cell_angle_gamma 90.000000
_cell_volume 1110.621761
loop_
_atom_site_label
_atom_site_type_symbol
_atom_site_fract_x
_atom_site_fract_y
_atom_site_fract_z
H1 H 0.304000 -0.016700 -0.176000
H2 H 0.494000 0.116600 0.295600
H3 H 0.474300 0.029400 0.365500
H4 H 0.024500 0.138900 0.123500
H5 H 0.148300 0.176000 0.286900
H6 H 0.364000 0.207000 0.130300
H7 H 0.180000 0.249900 0.056600
H8 H 0.115000 0.165600 -0.163300
H9 H 0.322000 0.181100 -0.148000
H10 H 0.350400 -0.195200 0.160600
H11 H 0.278600 -0.264700 0.381800
H12 H 0.133000 -0.194600 0.564100
H13 H 0.066900 -0.062900 0.516100
H14 H 0.696000 0.483300 0.676000
H15 H 0.600000 0.602000 0.058000
H16 H 0.506000 0.616600 0.204400
H17 H 0.525700 0.529400 0.134500
H18 H 0.066900 0.562900 1.016100
H19 H 0.133000 0.694600 1.064100
H20 H 0.278600 0.764700 0.881800
H21 H 0.350400 0.695200 0.660600
H22 H 0.322000 0.318900 0.352000
H23 H 0.115000 0.334400 0.336700
H24 H 0.180000 0.250100 0.556600
H25 H 0.364000 0.293000 0.630300
H26 H 0.148300 0.324000 0.786900
H27 H 0.024500 0.361100 0.623500
H28 H 0.474300 0.470600 0.865500
H29 H 0.494000 0.383400 0.795600
H30 H 0.400000 0.398000 0.942000
H31 H 0.304000 0.516700 0.324000
H32 H 0.975500 0.638900 0.376500
H33 H 0.851700 0.676000 0.213100
H34 H 0.636000 0.707000 0.369700
H35 H 0.820000 0.749900 0.443400
H36 H 0.885000 0.665600 0.663300
H37 H 0.678000 0.681100 0.648000
H38 H 0.649600 0.304800 0.339400
H39 H 0.721400 0.235300 0.118200
H40 H 0.867000 0.305400 -0.064100
H41 H 0.933100 0.437100 -0.016100
H42 H 0.696000 1.016700 1.176000
H43 H 0.600000 0.898000 0.558000
H44 H 0.506000 0.883400 0.704400
H45 H 0.525700 0.970600 0.634500
H46 H 0.975500 0.861100 0.876500
H47 H 0.851700 0.824000 0.713100
H48 H 0.636000 0.793000 0.869700
H49 H 0.933100 1.062900 0.483900
H50 H 0.867000 1.194600 0.435900
H51 H 0.721400 1.264700 0.618200
H52 H 0.649600 1.195200 0.839400
H53 H 0.678000 0.818900 1.148000
H54 H 0.885000 0.834400 1.163300
H55 H 0.820000 0.750100 0.943400
H56 H 0.400000 0.102000 0.442000
C57 C 0.759580 0.928250 0.781560
C58 C 0.852650 0.850660 0.819240
C59 C 0.762190 0.801640 0.926560
C60 C 0.768120 0.840980 1.089760
C61 C 0.736440 0.926240 1.074710
C62 C 0.738730 0.967460 0.936410
C63 C 0.169890 0.551350 0.816400
C64 C 0.124210 0.590530 0.945010
C65 C 0.163670 0.668350 0.967360
C66 C 0.830110 0.448650 0.183600
C67 C 0.875790 0.409470 0.054990
C68 C 0.836330 0.331650 0.032640
C69 C 0.751460 0.291650 0.136480
C70 C 0.708120 0.330690 0.264640
C71 C 0.747610 0.409310 0.290860
C72 C 0.718040 0.450110 0.435170
C73 C 0.738730 0.532540 0.436410
C74 C 0.736440 0.573760 0.574710
C75 C 0.768120 0.659020 0.589760
C76 C 0.762190 0.698360 0.426560
C77 C 0.852650 0.649340 0.319240
C78 C 0.759580 0.571750 0.281560
C79 C 0.584070 0.580330 0.158220
C80 C 0.718040 1.049890 0.935170
C81 C 0.747610 1.090690 0.790860
C82 C 0.708120 1.169310 0.764640
C83 C 0.751460 1.208350 0.636480
C84 C 0.836330 1.168350 0.532640
C85 C 0.875790 1.090530 0.554990
C86 C 0.830110 1.051350 0.683600
C87 C 0.248540 0.708350 0.863520
C88 C 0.291880 0.669310 0.735360
C89 C 0.252390 0.590690 0.709140
C90 C 0.415930 0.419670 0.841780
C91 C 0.240420 0.428250 0.718440
C92 C 0.147350 0.350660 0.680760
C93 C 0.237810 0.301640 0.573440
C94 C 0.281960 0.549890 0.564830
C95 C 0.261270 0.467460 0.563590
C96 C 0.263560 0.426240 0.425290
C97 C 0.169890 -0.051350 0.316400
C98 C 0.124210 -0.090530 0.445010
C99 C 0.163670 -0.168350 0.467360
C100 C 0.248540 -0.208350 0.363520
C101 C 0.291880 -0.169310 0.235360
C102 C 0.252390 -0.090690 0.209140
C103 C 0.281960 -0.049890 0.064830
C104 C 0.261270 0.032540 0.063590
C105 C 0.263560 0.073760 -0.074710
C106 C 0.231880 0.159020 -0.089760
C107 C 0.237810 0.198360 0.073440
C108 C 0.147350 0.149340 0.180760
C109 C 0.240420 0.071750 0.218440
C110 C 0.415930 0.080330 0.341780
C111 C 0.231880 0.340980 0.410240
C112 C 0.584070 0.919670 0.658220
O113 O 0.314420 -0.086940 -0.053710
O114 O 0.125830 0.025060 0.295730
O115 O 0.874170 0.974940 0.704270
O116 O 0.685580 1.086940 1.053710
O117 O 0.709490 0.959930 1.207850
O118 O 0.709490 0.540070 0.707850
O119 O 0.685580 0.413060 0.553710
O120 O 0.874170 0.525060 0.204270
O121 O 0.290510 0.459930 0.292150
O122 O 0.314420 0.586940 0.446290
O123 O 0.290510 0.040070 -0.207850
O124 O 0.125830 0.474940 0.795730

#END
