./ACOZUO_from_POSCAR.cif_generated_by_CrystalShift
_symmetry_cell_setting triclinic
_symmetry_space_group_name_H-M 'P 1'
loop_
_symmetry_equiv_pos_site_id
_symmetry_equiv_pos_as_xyz
1 x,y,z
_cell_length_a 20.573400
_cell_length_b 8.231300
_cell_length_c 22.950700
_cell_angle_alpha 90.000000
_cell_angle_beta 114.718600
_cell_angle_gamma 90.000000
_cell_volume 3530.485266
loop_
_atom_site_label
_atom_site_type_symbol
_atom_site_fract_x
_atom_site_fract_y
_atom_site_fract_z
H1 H 0.522800 0.151000 0.718800
H2 H 0.510100 0.332000 0.690900
H3 H 0.753100 0.174000 0.936100
H4 H 0.741000 0.340000 0.968700
H5 H 1.044500 0.924000 0.073100
H6 H 0.704600 0.112000 1.008900
H7 H 1.165000 0.895000 0.125500
H8 H 0.648500 0.061000 0.939000
H9 H 1.214300 0.738000 0.217600
H10 H 0.595800 0.299000 0.937100
H11 H 1.138200 0.620000 0.259900
H12 H 0.593400 0.141000 1.035700
H13 H 1.015800 0.656000 0.204000
H14 H 0.553600 0.068000 0.967100
H15 H 0.484100 0.238000 1.010300
H16 H 0.825300 0.483000 0.077300
H17 H 0.899800 0.441000 0.137100
H18 H 0.519300 0.388000 0.990700
H19 H 0.963500 0.463000 0.076500
H20 H 0.887900 0.419000 0.021900
H21 H 0.406400 0.334000 0.908800
H22 H 0.424100 0.151000 0.903400
H23 H 0.980400 0.639000 -0.009900
H24 H 0.940300 0.807000 -0.026800
H25 H 0.425000 0.519000 0.826500
H26 H 0.873600 0.506000 -0.086300
H27 H 0.903200 0.644000 -0.118100
H28 H 0.501200 0.539000 0.882300
H29 H 0.815700 0.828000 -0.101800
H30 H 0.785500 0.704000 -0.158100
H31 H 0.486500 0.560000 0.766100
H32 H 0.784100 0.622000 -0.046300
H33 H 0.559200 0.500000 0.821700
H34 H 0.671600 0.771000 -0.132600
H35 H 0.725200 0.857000 -0.069900
H36 H 0.367800 0.355000 0.685400
H37 H 0.639100 0.579000 -0.077300
H38 H 0.624400 0.755000 -0.056200
H39 H 0.249800 0.366000 0.621600
H40 H 0.688200 0.554000 0.023700
H41 H 0.168800 0.216000 0.645000
H42 H 0.752200 0.846000 0.047500
H43 H 0.678300 0.822000 0.053800
H44 H 0.210300 0.040000 0.734400
H45 H 0.756600 0.590000 0.128800
H46 H 0.746800 0.755000 0.155400
H47 H 0.332300 0.024000 0.796700
H48 H 0.866300 0.699000 0.199500
H49 H 0.852300 0.860000 0.161700
H50 H 0.977200 0.651000 0.781200
H51 H 0.989900 0.832000 0.809100
H52 H 0.870500 0.755000 0.772400
H53 H 0.873600 0.908000 0.736800
H54 H 0.455500 0.424000 0.426900
H55 H 0.800900 0.656000 0.678000
H56 H 0.335000 0.395000 0.374500
H57 H 0.873700 0.617000 0.672400
H58 H 0.285700 0.238000 0.282400
H59 H 0.805200 0.899000 0.627800
H60 H 0.361800 0.120000 0.240100
H61 H 0.746900 0.674000 0.563900
H62 H 0.484200 0.156000 0.296000
H63 H 0.759000 0.840000 0.531300
H64 H 0.795400 0.612000 0.491100
H65 H 0.674700 -0.017000 0.422700
H66 H 0.600200 -0.059000 0.362900
H67 H 0.851500 0.561000 0.561000
H68 H 0.536500 -0.037000 0.423500
H69 H 0.612100 -0.081000 0.478100
H70 H 0.904200 0.799000 0.562900
H71 H 0.906600 0.641000 0.464300
H72 H 0.519600 0.139000 0.509900
H73 H 0.559700 0.307000 0.526800
H74 H 0.946400 0.568000 0.532900
H75 H 0.626400 0.006000 0.586300
H76 H 0.596800 0.144000 0.618100
H77 H 1.015900 0.738000 0.489700
H78 H 0.684300 0.328000 0.601800
H79 H 0.714500 0.204000 0.658100
H80 H 0.980700 0.888000 0.509300
H81 H 0.715900 0.122000 0.546300
H82 H 1.093600 0.834000 0.591200
H83 H 0.828400 0.271000 0.632600
H84 H 0.774800 0.357000 0.569900
H85 H 1.075900 0.651000 0.596600
H86 H 0.860900 0.079000 0.577300
H87 H 0.875600 0.255000 0.556200
H88 H 1.075000 1.019000 0.673500
H89 H 0.811800 0.054000 0.476300
H90 H 0.998800 1.039000 0.617700
H91 H 0.747800 0.346000 0.452500
H92 H 0.821700 0.322000 0.446200
H93 H 1.013500 1.060000 0.733900
H94 H 0.743400 0.090000 0.371200
H95 H 0.753200 0.255000 0.344600
H96 H 0.940800 1.000000 0.678300
H97 H 0.633700 0.199000 0.300500
H98 H 0.647700 0.360000 0.338300
H99 H 1.132200 0.855000 0.814600
H100 H 0.629500 0.255000 0.727600
H101 H 1.250200 0.866000 0.878400
H102 H 1.331200 0.716000 0.855000
H103 H -0.044500 0.076000 0.926900
H104 H 1.289700 0.540000 0.765600
H105 H -0.165000 0.105000 0.874500
H106 H 1.167700 0.524000 0.703300
H107 H -0.214300 0.262000 0.782400
H108 H 0.626300 0.117000 0.827600
H109 H -0.138200 0.380000 0.740100
H110 H 0.477200 0.849000 0.281200
H111 H -0.015800 0.344000 0.796000
H112 H 0.489900 0.668000 0.309100
H113 H 0.370500 0.745000 0.272400
H114 H 0.174700 0.517000 0.922700
H115 H 0.100200 0.559000 0.862900
H116 H 0.373600 0.592000 0.236800
H117 H 0.036500 0.537000 0.923500
H118 H 0.112100 0.581000 0.978100
H119 H 0.300900 0.844000 0.178000
H120 H 0.373700 0.883000 0.172400
H121 H 0.019600 0.361000 1.009900
H122 H 0.059700 0.193000 1.026800
H123 H 0.305200 0.601000 0.127800
H124 H 0.126400 0.494000 1.086300
H125 H 0.096800 0.356000 1.118100
H126 H 0.246900 0.826000 0.063900
H127 H 0.184300 0.172000 1.101800
H128 H 0.214500 0.296000 1.158100
H129 H 0.259000 0.660000 0.031300
H130 H 0.215900 0.378000 1.046300
H131 H 0.295400 0.888000 -0.008900
H132 H 0.328400 0.229000 1.132600
H133 H 0.274800 0.143000 1.069900
H134 H 0.351500 0.939000 0.061000
H135 H 0.360900 0.421000 1.077300
H136 H 0.375600 0.245000 1.056200
H137 H 0.404200 0.701000 0.062900
H138 H 0.311800 0.446000 0.976300
H139 H 0.406600 0.859000 -0.035700
H140 H 0.247800 0.154000 0.952500
H141 H 0.321700 0.178000 0.946200
H142 H 0.446400 0.932000 0.032900
H143 H 0.243400 0.410000 0.871200
H144 H 0.253200 0.245000 0.844600
H145 H 0.515900 0.762000 -0.010300
H146 H 0.133700 0.301000 0.800500
H147 H 0.147700 0.140000 0.838300
H148 H 0.480700 0.612000 0.009300
H149 H 0.626400 0.408000 0.763200
H150 H 0.593600 0.666000 0.091200
H151 H 0.575900 0.849000 0.096600
H152 H 0.544500 0.576000 0.573100
H153 H 0.575000 0.481000 0.173500
H154 H 0.665000 0.605000 0.625500
H155 H 0.498800 0.461000 0.117700
H156 H 0.714300 0.762000 0.717600
H157 H 0.513500 0.440000 0.233900
H158 H 0.638200 0.880000 0.759900
H159 H 0.440800 0.500000 0.178300
H160 H 0.515800 0.844000 0.704000
H161 H 0.632200 0.645000 0.314600
H162 H 0.750200 0.634000 0.378400
H163 H 0.325300 1.017000 0.577300
H164 H 0.399800 1.059000 0.637100
H165 H 0.831200 0.784000 0.355000
H166 H 0.463500 1.037000 0.576500
H167 H 0.387900 1.081000 0.521900
H168 H 0.789700 0.960000 0.265600
H169 H 0.667700 0.976000 0.203300
H170 H 0.480400 0.861000 0.490100
H171 H 0.440300 0.693000 0.473200
H172 H 0.699100 0.156000 0.822000
H173 H 0.373600 0.994000 0.413700
H174 H 0.403200 0.856000 0.381900
H175 H 0.022800 0.349000 0.218800
H176 H 0.315700 0.672000 0.398200
H177 H 0.285500 0.796000 0.341900
H178 H 0.010100 0.168000 0.190900
H179 H 0.284100 0.878000 0.453700
H180 H 0.129500 0.245000 0.227600
H181 H 0.171600 0.729000 0.367400
H182 H 0.225200 0.643000 0.430100
H183 H 0.126400 0.092000 0.263200
H184 H 0.139100 0.921000 0.422700
H185 H 0.124400 0.745000 0.443800
H186 H 0.199100 0.344000 0.322000
H187 H 0.188200 0.946000 0.523700
H188 H 0.126300 0.383000 0.327600
H189 H 0.252200 0.654000 0.547500
H190 H 0.178300 0.678000 0.553800
H191 H 0.194800 0.101000 0.372200
H192 H 0.256600 0.910000 0.628800
H193 H 0.246800 0.745000 0.655400
H194 H 0.253100 0.326000 0.436100
H195 H 0.366300 0.801000 0.699500
H196 H 0.352300 0.640000 0.661700
H197 H 0.241000 0.160000 0.468700
H198 H 0.204600 0.388000 0.508900
H199 H 0.148500 0.439000 0.439000
H200 H 0.095800 0.201000 0.437100
H201 H -0.167700 0.476000 0.296700
H202 H 0.093400 0.359000 0.535700
H203 H -0.289700 0.460000 0.234400
H204 H 0.053600 0.432000 0.467100
H205 H -0.331200 0.284000 0.145000
H206 H -0.015900 0.262000 0.510300
H207 H -0.250200 0.134000 0.121600
H208 H 0.019300 0.112000 0.490700
H209 H -0.132200 0.145000 0.185400
H210 H -0.093600 0.166000 0.408800
H211 H -0.075900 0.349000 0.403400
H212 H 0.059200 0.000000 0.321700
H213 H -0.013500 -0.060000 0.266100
H214 H -0.075000 -0.019000 0.326500
H215 H 0.001200 -0.039000 0.382300
H216 H 0.694800 0.399000 0.872200
C217 C 1.016850 0.793020 0.132440
C218 C -0.055250 0.234800 0.412400
C219 C 0.008070 0.023600 0.299150
C220 C 1.062920 0.867400 0.110190
C221 C 0.003200 0.226600 0.480710
C222 C -0.162630 0.206600 0.195500
C223 C -0.235770 0.198800 0.157240
C224 C 0.068620 0.329300 0.491350
C225 C -0.282920 0.290600 0.171720
C226 C -0.257680 0.393400 0.224160
C227 C 0.716330 0.245200 0.938970
C228 C -0.184670 0.403700 0.262120
C229 C 0.171790 0.346600 0.466320
C230 C -0.136450 0.308960 0.248660
C231 C 0.614160 0.292500 0.758700
C232 C 0.216330 0.254800 0.438970
C233 C 1.136170 0.847100 0.142060
C234 C 0.344830 0.757800 0.657300
C235 C 1.164520 0.754900 0.197500
C236 C 0.264750 0.794300 0.626720
C237 C 0.155380 0.293800 0.322630
C238 C 0.223790 0.734800 0.557990
C239 C 0.671790 0.153400 0.966320
C240 C 0.114160 0.207500 0.258700
C241 C 0.162350 0.821900 0.445660
C242 C 0.204800 0.748900 0.411940
C243 C 0.032740 0.231300 0.229570
C244 C 1.119720 0.683500 0.220870
C245 C 0.307920 0.789500 0.387430
C246 C 1.045890 0.701400 0.188470
C247 C 0.380320 0.875100 0.411490
C248 C 0.636450 0.808960 0.251340
C249 C 0.684670 0.903700 0.237880
C250 C 0.432520 0.813000 0.476650
C251 C 0.757680 0.893400 0.275840
C252 C 0.568620 0.170700 0.991350
C253 C 0.782920 0.790600 0.328280
C254 C 0.411780 1.001000 0.553760
C255 C 0.735770 0.698800 0.342760
C256 C 0.375790 0.987300 0.599930
C257 C 0.662630 0.706600 0.304500
C258 C 0.875790 0.512700 0.099930
C259 C 0.911780 0.499000 0.053760
C260 C 0.491930 0.523600 0.200850
C261 C 0.545890 0.798600 0.688470
C262 C 0.619720 0.816500 0.720870
C263 C 0.527150 0.523800 0.153890
C264 C 0.664520 0.745100 0.697500
C265 C 0.636170 0.652900 0.642060
C266 C 0.503200 0.273400 0.980710
C267 C 0.555250 0.734800 0.087600
C268 C 0.562920 0.632600 0.610190
C269 C 0.516850 0.706980 0.632440
C270 C 0.496800 0.726600 0.019290
C271 C 0.932520 0.687000 -0.023350
C272 C 0.155170 0.257800 0.842700
C273 C 0.431380 0.829300 0.008650
C274 C 0.235250 0.294300 0.873280
C275 C 0.276210 0.234800 0.942010
C276 C 0.444750 0.265200 0.912400
C277 C 0.880320 0.624900 -0.088510
C278 C 0.328210 0.846600 0.033680
C279 C 0.337650 0.321900 1.054340
C280 C 0.295200 0.248900 1.088060
C281 C 0.283670 0.754800 0.061030
C282 C 0.807920 0.710500 -0.112570
C283 C 0.192080 0.289500 1.112570
C284 C 0.472850 0.476200 0.846110
C285 C 0.119680 0.375100 1.088510
C286 C 0.344620 0.793800 0.177370
C287 C 0.067480 0.313000 1.023350
C288 C 0.704800 0.751100 -0.088060
C289 C 0.385840 0.707500 0.241300
C290 C 0.088220 0.501000 0.946240
C291 C 0.124210 0.487300 0.900070
C292 C 0.467260 0.731300 0.270430
C293 C 0.508070 0.476400 0.799150
C294 C -0.045890 0.298600 0.811530
C295 C 0.662350 0.678100 -0.054340
C296 C -0.119720 0.316500 0.779130
C297 C 1.136450 0.691040 0.751340
C298 C 1.184670 0.596300 0.737880
C299 C -0.164520 0.245100 0.802500
C300 C 1.257680 0.606600 0.775840
C301 C -0.136170 0.152900 0.857940
C302 C 1.282920 0.709400 0.828280
C303 C -0.062920 0.132600 0.889810
C304 C 1.235770 0.801200 0.842760
C305 C -0.016850 0.206980 0.867560
C306 C 1.162630 0.793400 0.804500
C307 C 0.337370 0.293400 0.695500
C308 C 0.264230 0.301200 0.657240
C309 C 0.991930 0.976400 0.700850
C310 C 0.655170 0.242200 0.342700
C311 C 0.735250 0.205700 0.373280
C312 C 1.027150 0.976200 0.653890
C313 C 0.776210 0.265200 0.442010
C314 C 0.723790 0.765200 0.057990
C315 C 0.217080 0.209400 0.671720
C316 C 1.055250 0.765200 0.587600
C317 C 0.837650 0.178100 0.554340
C318 C 0.795200 0.251100 0.588060
C319 C 0.996800 0.773400 0.519290
C320 C 0.764750 0.705700 0.126720
C321 C 0.692080 0.210500 0.612570
C322 C 0.931380 0.670700 0.508650
C323 C 0.619680 0.124900 0.588510
C324 C 0.567480 0.187000 0.523350
C325 C 0.242320 0.106600 0.724160
C326 C 0.844830 0.742200 0.157300
C327 C 0.828210 0.653400 0.533680
C328 C 0.588220 -0.001000 0.446240
C329 C 0.624210 0.012700 0.400070
C330 C 0.783670 0.745200 0.561030
C331 C 0.315330 0.096300 0.762120
C332 C 0.454110 0.201400 0.311530
C333 C 0.363550 0.191040 0.748660
C334 C 0.380280 0.183500 0.279130
C335 C 0.844620 0.706200 0.677370
C336 C 0.335480 0.254900 0.302500
C337 C 0.363830 0.347100 0.357940
C338 C 0.885840 0.792500 0.741300
C339 C 0.437080 0.367400 0.389810
C340 C 0.483150 0.293020 0.367560
C341 C 0.967260 0.768700 0.770430
C342 C 0.532740 0.268700 0.729570
C343 C 0.655380 0.206200 0.822630
C344 C -0.027150 0.023800 0.346110
N345 N 0.672600 0.316860 0.876470
N346 N 0.827400 0.816860 0.623530
N347 N 0.616500 0.183360 0.379200
N348 N 0.594040 0.161880 0.474080
N349 N 0.880780 0.760030 0.526040
N350 N 0.739310 0.139220 0.586550
N351 N 1.028890 0.805990 0.636180
N352 N 0.792340 0.132260 0.488070
N353 N 1.001060 0.812500 0.728250
N354 N 0.707660 0.632260 0.011930
N355 N -0.028890 0.194010 0.363820
N356 N -0.001060 0.187500 0.271750
N357 N 0.498940 0.312500 0.771750
N358 N 0.116500 0.316640 0.879200
N359 N 0.094040 0.338120 0.974080
N360 N 0.760690 0.639220 -0.086550
N361 N 0.327400 0.683140 0.123530
N362 N 0.239310 0.360780 1.086550
N363 N 0.292340 0.367740 0.988070
N364 N 0.471110 0.305990 0.863820
N365 N 0.380780 0.739970 0.026040
N366 N 0.119220 0.239970 0.473960
N367 N 0.905960 0.661880 0.025920
N368 N 0.528890 0.694010 0.136180
N369 N 0.501060 0.687500 0.228250
N370 N 0.383500 0.816640 0.620800
N371 N 0.405960 0.838120 0.525920
N372 N 0.883500 0.683360 0.120800
N373 N 0.172600 0.183140 0.376470
N374 N 0.619220 0.260030 0.973960
N375 N 0.260690 0.860780 0.413450
N376 N 0.207660 0.867740 0.511930
P377 P -0.041460 0.313240 0.301538
P378 P 0.420870 0.703080 0.584391
P379 P 1.041460 0.686760 0.698462
P380 P 0.079130 0.203080 0.915609
P381 P 0.579130 0.296920 0.415609
P382 P 0.458540 0.186760 0.801538
P383 P 0.541460 0.813240 0.198462
P384 P 0.920870 0.796920 0.084391
S385 S 1.008540 0.464500 0.678900
S386 S 0.508540 1.035500 0.178900
S387 S -0.008540 0.535500 0.321100
S388 S 0.386470 0.484380 0.557930
S389 S 0.113530 -0.015620 0.942070
S390 S 0.613530 0.515620 0.442070
S391 S 0.886470 1.015620 0.057930
S392 S 0.491460 -0.035500 0.821100

#END
