
#######################################################################
#
#                 Cambridge Crystallographic Data Centre
#                                CCDC 
#
#######################################################################
#
# If this CIF has been generated from an entry in the Cambridge 
# Structural Database, then it will include bibliographic, chemical, 
# crystal, experimental, refinement or atomic coordinate data resulting 
# from the CCDC's data processing and validation procedures.
#
#######################################################################

data_ABPZCU04
_symmetry_cell_setting           monoclinic
_symmetry_space_group_name_H-M   'I 2/a'
_symmetry_Int_Tables_number      15
_space_group_name_Hall           '-I 2ya'
loop_
_symmetry_equiv_pos_site_id
_symmetry_equiv_pos_as_xyz
1 x,y,z
2 1/2+x,1/2+y,1/2+z
3 1/2-x,y,-z
4 -x,1/2+y,1/2-z
5 -x,-y,-z
6 1/2-x,1/2-y,1/2-z
7 1/2+x,-y,z
8 x,1/2-y,1/2+z
_cell_length_a                   6.9630(10)
_cell_length_b                   12.4686(16)
_cell_length_c                   14.8540(15)
_cell_angle_alpha                90
_cell_angle_beta                 101.010(10)
_cell_angle_gamma                90
_cell_volume                     1265.87
loop_
_atom_site_label
_atom_site_type_symbol
_atom_site_fract_x
_atom_site_fract_y
_atom_site_fract_z
Cu1 Cu 0.75000 0.27434 0.50000
S1 S 0.25000 0.3461 0.50000
O1 O 0.42125 0.28015 0.5348
O2 O 0.20633 0.41637 0.57487
O3 O 0.653 0.38345 0.40585
N1 N 0.68405 0.1524 0.4118
C1 C 0.61755 0.16135 0.32125
C2 C 0.57847 0.07333 0.26497
C3 C 0.6068 -0.02790 0.30380
C4 C 0.67475 -0.03815 0.3973
C5 C 0.71223 0.05418 0.44967
O1B O 0.07875 0.28015 0.4652
O2B O 0.29367 0.41637 0.42513
C5B C 0.78777 0.05418 0.55033
N1B N 0.81595 0.1524 0.5882
C1B C 0.88245 0.16135 0.67875
C2B C 0.92153 0.07333 0.73503
C3B C 0.8932 -0.02790 0.69620
C4B C 0.82525 -0.03815 0.6027
O3B O 0.847 0.38345 0.59415
O1B O 1.07875 0.28015 0.4652
Cu1 Cu -0.25000 0.27434 0.50000
S1 S 1.25000 0.3461 0.50000
O2 O 1.29367 0.41637 0.42513
O1B O 1.42125 0.28015 0.5348
O2B O 1.20633 0.41637 0.57487
Cu1 Cu 1.75000 0.27434 0.50000
Cu1 Cu 0.25000 0.77434 1.00000
S1 S -0.25000 0.8461 1.00000
O1 O -0.07875 0.78015 1.0348
O2 O -0.29367 0.91637 1.07487
O3 O 0.153 0.88345 0.90585
N1 N 0.18405 0.6524 0.9118
C1 C 0.11755 0.66135 0.82125
C2 C 0.07847 0.57333 0.76497
C3 C 0.1068 0.47210 0.80380
C4 C 0.17475 0.46185 0.8973
C5 C 0.21223 0.55418 0.94967
O1B O -0.42125 0.78015 0.9652
O2B O -0.20633 0.91637 0.92513
C5B C 0.28777 0.55418 1.05033
N1B N 0.31595 0.6524 1.0882
C1B C 0.38245 0.66135 1.17875
C2B C 0.42153 0.57333 1.23503
C3B C 0.3932 0.47210 1.19620
C4B C 0.32525 0.46185 1.1027
O3B O 0.347 0.88345 1.09415
O1B O 0.57875 0.78015 0.9652
Cu1 Cu -0.75000 0.77434 1.00000
Cu1 Cu 0.25000 0.77434 0.00000
S1 S 0.75000 0.8461 0.00000
O1 O 0.57875 0.78015 -0.0348
O2 O 0.79367 0.91637 -0.07487
O3 O 0.347 0.88345 0.09415
N1 N 0.31595 0.6524 0.0882
C1 C 0.38245 0.66135 0.17875
C2 C 0.42153 0.57333 0.23503
C3 C 0.3932 0.47210 0.19620
C4 C 0.32525 0.46185 0.1027
C5 C 0.28777 0.55418 0.05033
O1B O 0.92125 0.78015 0.0348
O2B O 0.70633 0.91637 0.07487
C5B C 0.21223 0.55418 -0.05033
N1B N 0.18405 0.6524 -0.0882
C1B C 0.11755 0.66135 -0.17875
C2B C 0.07847 0.57333 -0.23503
C3B C 0.1068 0.47210 -0.19620
C4B C 0.17475 0.46185 -0.1027
O3B O 0.153 0.88345 -0.09415
O1B O -0.07875 0.78015 0.0348
Cu1 Cu 1.25000 0.77434 0.00000
Cu1 Cu 0.25000 0.72566 0.50000
S1 S 0.75000 0.6539 0.50000
O1 O 0.57875 0.71985 0.4652
O2 O 0.79367 0.58363 0.42513
O3 O 0.347 0.61655 0.59415
N1 N 0.31595 0.8476 0.5882
C1 C 0.38245 0.83865 0.67875
C2 C 0.42153 0.92667 0.73503
C3 C 0.3932 1.02790 0.69620
C4 C 0.32525 1.03815 0.6027
C5 C 0.28777 0.94582 0.55033
O1B O 0.92125 0.71985 0.5348
O2B O 0.70633 0.58363 0.57487
C5B C 0.21223 0.94582 0.44967
N1B N 0.18405 0.8476 0.4118
C1B C 0.11755 0.83865 0.32125
C2B C 0.07847 0.92667 0.26497
C3B C 0.1068 1.02790 0.30380
C4B C 0.17475 1.03815 0.3973
O3B O 0.153 0.61655 0.40585
O1B O -0.07875 0.71985 0.5348
Cu1 Cu 1.25000 0.72566 0.50000
S1 S -0.25000 0.6539 0.50000
O2 O -0.29367 0.58363 0.57487
O1B O -0.42125 0.71985 0.4652
O2B O -0.20633 0.58363 0.42513
Cu1 Cu -0.75000 0.72566 0.50000
Cu1 Cu 0.75000 0.22566 0.00000
S1 S 1.25000 0.1539 0.00000
O1 O 1.07875 0.21985 -0.0348
O2 O 1.29367 0.08363 -0.07487
O3 O 0.847 0.11655 0.09415
N1 N 0.81595 0.3476 0.0882
C1 C 0.88245 0.33865 0.17875
C2 C 0.92153 0.42667 0.23503
C3 C 0.8932 0.52790 0.19620
C4 C 0.82525 0.53815 0.1027
C5 C 0.78777 0.44582 0.05033
O1B O 1.42125 0.21985 0.0348
O2B O 1.20633 0.08363 0.07487
C5B C 0.71223 0.44582 -0.05033
N1B N 0.68405 0.3476 -0.0882
C1B C 0.61755 0.33865 -0.17875
C2B C 0.57847 0.42667 -0.23503
C3B C 0.6068 0.52790 -0.19620
C4B C 0.67475 0.53815 -0.1027
O3B O 0.653 0.11655 -0.09415
O1B O 0.42125 0.21985 0.0348
Cu1 Cu 1.75000 0.22566 0.00000
Cu1 Cu 0.75000 0.22566 1.00000
S1 S 0.25000 0.1539 1.00000
O1 O 0.42125 0.21985 1.0348
O2 O 0.20633 0.08363 1.07487
O3 O 0.653 0.11655 0.90585
N1 N 0.68405 0.3476 0.9118
C1 C 0.61755 0.33865 0.82125
C2 C 0.57847 0.42667 0.76497
C3 C 0.6068 0.52790 0.80380
C4 C 0.67475 0.53815 0.8973
C5 C 0.71223 0.44582 0.94967
O1B O 0.07875 0.21985 0.9652
O2B O 0.29367 0.08363 0.92513
C5B C 0.78777 0.44582 1.05033
N1B N 0.81595 0.3476 1.0882
C1B C 0.88245 0.33865 1.17875
C2B C 0.92153 0.42667 1.23503
C3B C 0.8932 0.52790 1.19620
C4B C 0.82525 0.53815 1.1027
O3B O 0.847 0.11655 1.09415
O1B O 1.07875 0.21985 0.9652
Cu1 Cu -0.25000 0.22566 1.00000

#END
