./ABUDAD_from_xyz.cif_generated_by_CrystalShift
_symmetry_cell_setting triclinic
_symmetry_space_group_name_H-M 'P 1'
loop_
_symmetry_equiv_pos_site_id
_symmetry_equiv_pos_as_xyz
1 x,y,z
_cell_length_a 5.962000
_cell_length_b 7.267000
_cell_length_c 28.689000
_cell_angle_alpha 90.000000
_cell_angle_beta 94.900000
_cell_angle_gamma 90.000000
_cell_volume 1238.432710
loop_
_atom_site_label
_atom_site_type_symbol
_atom_site_fract_x
_atom_site_fract_y
_atom_site_fract_z
O1 O 0.873300 0.707400 0.206530
N2 N 0.883200 0.387800 0.214430
H3 H 0.983000 0.356500 0.236400
C4 C 0.656600 0.463600 0.158390
H5 H 0.499400 0.497400 0.161500
C6 C 0.724900 0.493600 0.109030
H7 H 0.686700 0.618900 0.099800
H8 H 0.887200 0.481900 0.109800
C9 C 0.619100 0.364100 0.071400
H10 H 0.646100 0.238400 0.081800
H11 H 0.695600 0.381200 0.043200
C12 C 0.368600 0.388400 0.059150
H13 H 0.291800 0.378100 0.087500
H14 H 0.341500 0.511200 0.046700
C15 C 0.267500 0.247600 0.023380
H16 H 0.351000 0.252500 -0.004200
H17 H 0.113300 0.282700 0.013900
C18 C 0.269000 0.049300 0.041410
H19 H 0.420900 0.018400 0.053700
H20 H 0.228700 -0.032300 0.015300
C21 C 0.110200 0.013700 0.079270
H22 H -0.031200 -0.032300 0.064500
H23 H 0.079400 0.129900 0.094100
C24 C 0.197500 -0.121600 0.116780
H25 H 0.076500 -0.150000 0.136200
H26 H 0.238300 -0.234800 0.101700
C27 C 0.399900 -0.054600 0.148320
H28 H 0.518900 -0.020300 0.129000
H29 H 0.455400 -0.155200 0.168400
C30 C 0.347900 0.108700 0.178780
H31 H 0.231600 0.072300 0.198600
H32 H 0.286800 0.206800 0.158600
C33 C 0.544200 0.184000 0.209470
H34 H 0.487700 0.270700 0.231400
H35 H 0.614800 0.083500 0.227500
C36 C 0.722600 0.279800 0.183280
H37 H 0.798500 0.195300 0.163100
C38 C 0.818800 0.551000 0.196490
O39 O 0.873300 -0.207400 0.706530
N40 N 0.883200 0.112200 0.714430
H41 H 0.983000 0.143500 0.736400
C42 C 0.656600 0.036400 0.658390
H43 H 0.499400 0.002600 0.661500
C44 C 0.724900 0.006400 0.609030
H45 H 0.686700 -0.118900 0.599800
H46 H 0.887200 0.018100 0.609800
C47 C 0.619100 0.135900 0.571400
H48 H 0.646100 0.261600 0.581800
H49 H 0.695600 0.118800 0.543200
C50 C 0.368600 0.111600 0.559150
H51 H 0.291800 0.121900 0.587500
H52 H 0.341500 -0.011200 0.546700
C53 C 0.267500 0.252400 0.523380
H54 H 0.351000 0.247500 0.495800
H55 H 0.113300 0.217300 0.513900
C56 C 0.269000 0.450700 0.541410
H57 H 0.420900 0.481600 0.553700
H58 H 0.228700 0.532300 0.515300
C59 C 0.110200 0.486300 0.579270
H60 H -0.031200 0.532300 0.564500
H61 H 0.079400 0.370100 0.594100
C62 C 0.197500 0.621600 0.616780
H63 H 0.076500 0.650000 0.636200
H64 H 0.238300 0.734800 0.601700
C65 C 0.399900 0.554600 0.648320
H66 H 0.518900 0.520300 0.629000
H67 H 0.455400 0.655200 0.668400
C68 C 0.347900 0.391300 0.678780
H69 H 0.231600 0.427700 0.698600
H70 H 0.286800 0.293200 0.658600
C71 C 0.544200 0.316000 0.709470
H72 H 0.487700 0.229300 0.731400
H73 H 0.614800 0.416500 0.727500
C74 C 0.722600 0.220200 0.683280
H75 H 0.798500 0.304700 0.663100
C76 C 0.818800 -0.051000 0.696490
O77 O 0.126700 0.292600 0.793470
N78 N 0.116800 0.612200 0.785570
H79 H 0.017000 0.643500 0.763600
C80 C 0.343400 0.536400 0.841610
H81 H 0.500600 0.502600 0.838500
C82 C 0.275100 0.506400 0.890970
H83 H 0.313300 0.381100 0.900200
H84 H 0.112800 0.518100 0.890200
C85 C 0.380900 0.635900 0.928600
H86 H 0.353900 0.761600 0.918200
H87 H 0.304400 0.618800 0.956800
C88 C 0.631400 0.611600 0.940850
H89 H 0.708200 0.621900 0.912500
H90 H 0.658500 0.488800 0.953300
C91 C 0.732500 0.752400 0.976620
H92 H 0.649000 0.747500 1.004200
H93 H 0.886700 0.717300 0.986100
C94 C 0.731000 0.950700 0.958590
H95 H 0.579100 0.981600 0.946300
H96 H 0.771300 1.032300 0.984700
C97 C 0.889800 0.986300 0.920730
H98 H 1.031200 1.032300 0.935500
H99 H 0.920600 0.870100 0.905900
C100 C 0.802500 1.121600 0.883220
H101 H 0.923500 1.150000 0.863800
H102 H 0.761700 1.234800 0.898300
C103 C 0.600100 1.054600 0.851680
H104 H 0.481100 1.020300 0.871000
H105 H 0.544600 1.155200 0.831600
C106 C 0.652100 0.891300 0.821220
H107 H 0.768400 0.927700 0.801400
H108 H 0.713200 0.793200 0.841400
C109 C 0.455800 0.816000 0.790530
H110 H 0.512300 0.729300 0.768600
H111 H 0.385200 0.916500 0.772500
C112 C 0.277400 0.720200 0.816720
H113 H 0.201500 0.804700 0.836900
C114 C 0.181200 0.449000 0.803510
O115 O 0.126700 1.207400 0.293470
N116 N 0.116800 0.887800 0.285570
H117 H 0.017000 0.856500 0.263600
C118 C 0.343400 0.963600 0.341610
H119 H 0.500600 0.997400 0.338500
C120 C 0.275100 0.993600 0.390970
H121 H 0.313300 1.118900 0.400200
H122 H 0.112800 0.981900 0.390200
C123 C 0.380900 0.864100 0.428600
H124 H 0.353900 0.738400 0.418200
H125 H 0.304400 0.881200 0.456800
C126 C 0.631400 0.888400 0.440850
H127 H 0.708200 0.878100 0.412500
H128 H 0.658500 1.011200 0.453300
C129 C 0.732500 0.747600 0.476620
H130 H 0.649000 0.752500 0.504200
H131 H 0.886700 0.782700 0.486100
C132 C 0.731000 0.549300 0.458590
H133 H 0.579100 0.518400 0.446300
H134 H 0.771300 0.467700 0.484700
C135 C 0.889800 0.513700 0.420730
H136 H 1.031200 0.467700 0.435500
H137 H 0.920600 0.629900 0.405900
C138 C 0.802500 0.378400 0.383220
H139 H 0.923500 0.350000 0.363800
H140 H 0.761700 0.265200 0.398300
C141 C 0.600100 0.445400 0.351680
H142 H 0.481100 0.479700 0.371000
H143 H 0.544600 0.344800 0.331600
C144 C 0.652100 0.608700 0.321220
H145 H 0.768400 0.572300 0.301400
H146 H 0.713200 0.706800 0.341400
C147 C 0.455800 0.684000 0.290530
H148 H 0.512300 0.770700 0.268600
H149 H 0.385200 0.583500 0.272500
C150 C 0.277400 0.779800 0.316720
H151 H 0.201500 0.695300 0.336900
C152 C 0.181200 1.051000 0.303510

#END
