./ABUMIV_from_xyz.cif_generated_by_CrystalShift
_symmetry_cell_setting triclinic
_symmetry_space_group_name_H-M 'P 1'
loop_
_symmetry_equiv_pos_site_id
_symmetry_equiv_pos_as_xyz
1 x,y,z
_cell_length_a 7.620600
_cell_length_b 11.594400
_cell_length_c 13.075300
_cell_angle_alpha 97.282000
_cell_angle_beta 101.574000
_cell_angle_gamma 101.793000
_cell_volume 1090.821036
loop_
_atom_site_label
_atom_site_type_symbol
_atom_site_fract_x
_atom_site_fract_y
_atom_site_fract_z
Cl1 Cl 0.068750 0.813770 0.107460
O2 O 0.299600 0.610960 0.151420
O3 O 0.310800 0.917120 -0.052220
O4 O 0.420500 0.872420 0.166600
O5 O 0.626500 0.797580 0.097460
C6 C 0.282600 0.661300 0.076890
C7 C 0.283100 0.795130 0.083900
C8 C 0.287500 0.819720 -0.028340
C9 C 0.256200 0.702760 -0.096460
C10 C 0.255300 0.612970 -0.036000
C11 C 0.233600 0.495500 -0.083200
H12 H 0.233800 0.434800 -0.043000
C13 C 0.211900 0.471300 -0.190900
H14 H 0.197300 0.392900 -0.224000
C15 C 0.211200 0.559900 -0.250900
H16 H 0.195000 0.540400 -0.323900
C17 C 0.234000 0.677600 -0.205090
H18 H 0.234500 0.737700 -0.245800
C19 C 0.596300 0.864500 0.165160
C20 C 0.731900 0.946400 0.255610
H21 H 0.747300 0.906800 0.315900
H22 H 0.688400 1.016800 0.272900
H23 H 0.848100 0.968700 0.236700
Cl24 Cl 0.931250 0.186230 0.892540
O25 O 0.700400 0.389040 0.848580
O26 O 0.689200 0.082880 1.052220
O27 O 0.579500 0.127580 0.833400
O28 O 0.373500 0.202420 0.902540
C29 C 0.717400 0.338700 0.923110
C30 C 0.716900 0.204870 0.916100
C31 C 0.712500 0.180280 1.028340
C32 C 0.743800 0.297240 1.096460
C33 C 0.744700 0.387030 1.036000
C34 C 0.766400 0.504500 1.083200
H35 H 0.766200 0.565200 1.043000
C36 C 0.788100 0.528700 1.190900
H37 H 0.802700 0.607100 1.224000
C38 C 0.788800 0.440100 1.250900
H39 H 0.805000 0.459600 1.323900
C40 C 0.766000 0.322400 1.205090
H41 H 0.765500 0.262300 1.245800
C42 C 0.403700 0.135500 0.834840
C43 C 0.268100 0.053600 0.744390
H44 H 0.252700 0.093200 0.684100
H45 H 0.311600 -0.016800 0.727100
H46 H 0.151900 0.031300 0.763300
Cl47 Cl 0.433960 0.352920 0.604590
O48 O 0.229600 0.082130 0.479590
O49 O 0.166700 0.470890 0.445580
O50 O 0.089700 0.277220 0.572240
O51 O -0.121200 0.207290 0.421660
C52 C 0.236800 0.174400 0.447090
C53 C 0.223000 0.291700 0.511340
C54 C 0.202200 0.374800 0.429400
C55 C 0.238400 0.314300 0.332050
C56 C 0.258100 0.200100 0.342880
C57 C 0.288300 0.124600 0.260500
H58 H 0.301400 0.047900 0.267900
C59 C 0.298000 0.166200 0.167900
H60 H 0.317200 0.117100 0.111200
C61 C 0.279700 0.280300 0.158000
H62 H 0.287800 0.306900 0.094500
C63 C 0.249900 0.355800 0.238800
H64 H 0.237700 0.432600 0.231000
C65 C -0.085900 0.229400 0.515800
C66 C -0.212900 0.211200 0.586900
H67 H -0.337300 0.183200 0.545400
H68 H -0.201200 0.285500 0.632400
H69 H -0.183000 0.152900 0.629200
Cl70 Cl 0.566040 0.647080 0.395410
O71 O 0.770400 0.917870 0.520410
O72 O 0.833300 0.529110 0.554420
O73 O 0.910300 0.722780 0.427760
O74 O 1.121200 0.792710 0.578340
C75 C 0.763200 0.825600 0.552910
C76 C 0.777000 0.708300 0.488660
C77 C 0.797800 0.625200 0.570600
C78 C 0.761600 0.685700 0.667950
C79 C 0.741900 0.799900 0.657120
C80 C 0.711700 0.875400 0.739500
H81 H 0.698600 0.952100 0.732100
C82 C 0.702000 0.833800 0.832100
H83 H 0.682800 0.882900 0.888800
C84 C 0.720300 0.719700 0.842000
H85 H 0.712200 0.693100 0.905500
C86 C 0.750100 0.644200 0.761200
H87 H 0.762300 0.567400 0.769000
C88 C 1.085900 0.770600 0.484200
C89 C 1.212900 0.788800 0.413100
H90 H 1.337300 0.816800 0.454600
H91 H 1.201200 0.714500 0.367600
H92 H 1.183000 0.847100 0.370800

#END
