./ABUPUI01_from_xyz.cif_generated_by_CrystalShift
_symmetry_cell_setting triclinic
_symmetry_space_group_name_H-M 'P 1'
loop_
_symmetry_equiv_pos_site_id
_symmetry_equiv_pos_as_xyz
1 x,y,z
_cell_length_a 4.903600
_cell_length_b 8.655100
_cell_length_c 12.353000
_cell_angle_alpha 73.556000
_cell_angle_beta 79.960000
_cell_angle_gamma 83.935000
_cell_volume 494.250039
loop_
_atom_site_label
_atom_site_type_symbol
_atom_site_fract_x
_atom_site_fract_y
_atom_site_fract_z
S1 S 0.813170 0.494800 0.203060
C2 C 0.543400 0.511000 0.310480
C3 C 0.526900 0.655100 0.337520
C4 C 0.743500 0.754400 0.270400
C5 C 0.909500 0.684400 0.194300
C6 C 0.353100 0.383900 0.368820
O7 O 0.161600 0.401870 0.440130
O8 O 0.415200 0.250630 0.334380
C9 C 0.230100 0.121800 0.390300
H10 H 0.287000 0.031000 0.359800
H11 H 0.044100 0.158900 0.377200
H12 H 0.236700 0.090300 0.470800
O13 O 0.340800 0.707900 0.413780
H14 H 0.238000 0.642000 0.445900
O15 O 0.767800 0.901400 0.283540
H16 H 0.900000 0.940600 0.236000
C17 C 1.134700 0.767400 0.112400
O18 O 1.196200 0.899200 0.112900
O19 O 1.258100 0.684900 0.040420
C20 C 1.481900 0.760900 -0.045200
H21 H 1.564500 0.687600 -0.088900
H22 H 1.619600 0.788100 -0.008200
H23 H 1.409600 0.857100 -0.095000
S24 S 0.186830 0.505200 0.796940
C25 C 0.456600 0.489000 0.689520
C26 C 0.473100 0.344900 0.662480
C27 C 0.256500 0.245600 0.729600
C28 C 0.090500 0.315600 0.805700
C29 C 0.646900 0.616100 0.631180
O30 O 0.838400 0.598130 0.559870
O31 O 0.584800 0.749370 0.665620
C32 C 0.769900 0.878200 0.609700
H33 H 0.713000 0.969000 0.640200
H34 H 0.955900 0.841100 0.622800
H35 H 0.763300 0.909700 0.529200
O36 O 0.659200 0.292100 0.586220
H37 H 0.762000 0.358000 0.554100
O38 O 0.232200 0.098600 0.716460
H39 H 0.100000 0.059400 0.764000
C40 C -0.134700 0.232600 0.887600
O41 O -0.196200 0.100800 0.887100
O42 O -0.258100 0.315100 0.959580
C43 C -0.481900 0.239100 1.045200
H44 H -0.564500 0.312400 1.088900
H45 H -0.619600 0.211900 1.008200
H46 H -0.409600 0.142900 1.095000

#END
