./ABUPUI_from_xyz.cif_generated_by_CrystalShift
_symmetry_cell_setting triclinic
_symmetry_space_group_name_H-M 'P 1'
loop_
_symmetry_equiv_pos_site_id
_symmetry_equiv_pos_as_xyz
1 x,y,z
_cell_length_a 4.904300
_cell_length_b 8.674200
_cell_length_c 12.386100
_cell_angle_alpha 73.541000
_cell_angle_beta 79.938000
_cell_angle_gamma 83.848000
_cell_volume 496.623110
loop_
_atom_site_label
_atom_site_type_symbol
_atom_site_fract_x
_atom_site_fract_y
_atom_site_fract_z
S1 S 0.312820 0.495270 0.203400
C2 C 0.043100 0.511700 0.310630
C3 C 0.026000 0.655300 0.337610
C4 C 0.242900 0.754900 0.270700
C5 C 0.407500 0.684700 0.194720
O6 O -0.159900 0.707400 0.413730
H7 H -0.271200 0.638400 0.445200
O8 O 0.265800 0.901100 0.283640
H9 H 0.396100 0.944100 0.238000
C10 C -0.146400 0.383600 0.368670
O11 O -0.337700 0.402020 0.440030
O12 O -0.085000 0.251230 0.334500
C13 C -0.269500 0.122300 0.389600
H14 H -0.209900 0.031500 0.359700
H15 H -0.455000 0.158800 0.375400
H16 H -0.265700 0.091400 0.470200
C17 C 0.633300 0.767500 0.112800
O18 O 0.694100 0.898800 0.113080
O19 O 0.757000 0.685500 0.040650
C20 C 0.981500 0.760300 -0.044700
H21 H 1.054800 0.689900 -0.091600
H22 H 1.125400 0.780100 -0.007700
H23 H 0.912500 0.860400 -0.091100
S24 S 0.687180 0.504730 0.796600
C25 C 0.956900 0.488300 0.689370
C26 C 0.974000 0.344700 0.662390
C27 C 0.757100 0.245100 0.729300
C28 C 0.592500 0.315300 0.805280
O29 O 1.159900 0.292600 0.586270
H30 H 1.271200 0.361600 0.554800
O31 O 0.734200 0.098900 0.716360
H32 H 0.603900 0.055900 0.762000
C33 C 1.146400 0.616400 0.631330
O34 O 1.337700 0.597980 0.559970
O35 O 1.085000 0.748770 0.665500
C36 C 1.269500 0.877700 0.610400
H37 H 1.209900 0.968500 0.640300
H38 H 1.455000 0.841200 0.624600
H39 H 1.265700 0.908600 0.529800
C40 C 0.366700 0.232500 0.887200
O41 O 0.305900 0.101200 0.886920
O42 O 0.243000 0.314500 0.959350
C43 C 0.018500 0.239700 1.044700
H44 H -0.054800 0.310100 1.091600
H45 H -0.125400 0.219900 1.007700
H46 H 0.087500 0.139600 1.091100

#END
