./ABUQAR_from_xyz.cif_generated_by_CrystalShift
_symmetry_cell_setting triclinic
_symmetry_space_group_name_H-M 'P 1'
loop_
_symmetry_equiv_pos_site_id
_symmetry_equiv_pos_as_xyz
1 x,y,z
_cell_length_a 6.083200
_cell_length_b 10.018400
_cell_length_c 12.893400
_cell_angle_alpha 90.000000
_cell_angle_beta 102.399000
_cell_angle_gamma 90.000000
_cell_volume 767.447115
loop_
_atom_site_label
_atom_site_type_symbol
_atom_site_fract_x
_atom_site_fract_y
_atom_site_fract_z
C1 C 0.514500 0.157000 0.279210
H2 H 0.404100 0.116100 0.317200
C3 C 0.429200 -0.018400 0.141740
H4 H 0.359500 -0.035700 0.066200
H5 H 0.336700 -0.063200 0.185900
C6 C 0.666000 -0.075800 0.167290
H7 H 0.658600 -0.174500 0.169400
H8 H 0.746400 -0.050100 0.111200
C9 C 0.989900 -0.074800 0.325700
H10 H 1.064600 -0.152200 0.308300
C11 C 1.064300 0.006900 0.410600
H12 H 1.198700 -0.004000 0.463200
C13 C 0.904400 0.111100 0.406120
H14 H 0.912000 0.183000 0.454800
C15 C 0.736400 0.088180 0.317880
C16 C 0.517900 0.304700 0.300130
C17 C 0.679200 0.387900 0.272940
H18 H 0.789000 0.352200 0.238200
C19 C 0.680300 0.524100 0.296520
H20 H 0.789700 0.581600 0.277700
C21 C 0.520300 0.573800 0.347560
C22 C 0.356300 0.493000 0.373820
H23 H 0.246200 0.529100 0.408200
C24 C 0.355800 0.358500 0.349020
H25 H 0.242700 0.302100 0.365700
N26 N 0.432900 0.128190 0.162230
H27 H 0.290400 0.162500 0.139400
H28 H 0.526300 0.169200 0.124600
N29 N 0.787800 -0.025650 0.269680
Cl30 Cl 0.529900 0.741840 0.384110
C31 C 0.485500 0.657000 0.720790
H32 H 0.595900 0.616100 0.682800
C33 C 0.570800 0.481600 0.858260
H34 H 0.640500 0.464300 0.933800
H35 H 0.663300 0.436800 0.814100
C36 C 0.334000 0.424200 0.832710
H37 H 0.341400 0.325500 0.830600
H38 H 0.253600 0.449900 0.888800
C39 C 0.010100 0.425200 0.674300
H40 H -0.064600 0.347800 0.691700
C41 C -0.064300 0.506900 0.589400
H42 H -0.198700 0.496000 0.536800
C43 C 0.095600 0.611100 0.593880
H44 H 0.088000 0.683000 0.545200
C45 C 0.263600 0.588180 0.682120
C46 C 0.482100 0.804700 0.699870
C47 C 0.320800 0.887900 0.727060
H48 H 0.211000 0.852200 0.761800
C49 C 0.319700 1.024100 0.703480
H50 H 0.210300 1.081600 0.722300
C51 C 0.479700 1.073800 0.652440
C52 C 0.643700 0.993000 0.626180
H53 H 0.753800 1.029100 0.591800
C54 C 0.644200 0.858500 0.650980
H55 H 0.757300 0.802100 0.634300
N56 N 0.567100 0.628190 0.837770
H57 H 0.709600 0.662500 0.860600
H58 H 0.473700 0.669200 0.875400
N59 N 0.212200 0.474350 0.730320
Cl60 Cl 0.470100 1.241840 0.615890
C61 C 0.850300 0.190600 1.029540
C62 C 0.934700 0.139200 0.931830
O63 O 0.989000 0.187440 1.115590
O64 O 0.648700 0.222010 1.011200
F65 F 0.839200 0.200670 0.841980
F66 F 1.157000 0.154570 0.942270
F67 F 0.893500 0.009250 0.917790
C68 C 0.149700 0.690600 -0.029540
C69 C 0.065300 0.639200 0.068170
O70 O 0.011000 0.687440 -0.115590
O71 O 0.351300 0.722010 -0.011200
F72 F 0.160800 0.700670 0.158020
F73 F -0.157000 0.654570 0.057730
F74 F 0.106500 0.509250 0.082210

#END
