./ABURIY_from_xyz.cif_generated_by_CrystalShift
_symmetry_cell_setting triclinic
_symmetry_space_group_name_H-M 'P 1'
loop_
_symmetry_equiv_pos_site_id
_symmetry_equiv_pos_as_xyz
1 x,y,z
_cell_length_a 11.238900
_cell_length_b 8.129600
_cell_length_c 40.637000
_cell_angle_alpha 90.000000
_cell_angle_beta 92.584000
_cell_angle_gamma 90.000000
_cell_volume 3709.136406
loop_
_atom_site_label
_atom_site_type_symbol
_atom_site_fract_x
_atom_site_fract_y
_atom_site_fract_z
C1 C 0.983500 0.038300 0.639420
H2 H 0.909900 -0.001100 0.628200
C3 C 0.967200 0.217500 0.647040
H4 H 1.024600 0.265000 0.661300
C5 C 0.882200 0.313500 0.636030
H6 H 0.826100 0.268900 0.621100
C7 C 0.866900 0.490800 0.645470
H8 H 0.933100 0.524300 0.660100
H9 H 0.867600 0.558900 0.625900
C10 C 0.753000 0.517000 0.662190
H11 H 0.685400 0.537600 0.648800
C12 C 0.739700 0.513400 0.694060
H13 H 0.663100 0.534200 0.700800
C14 C 0.830800 0.480300 0.720770
H15 H 0.832100 0.571500 0.736200
H16 H 0.908400 0.474700 0.711300
C17 C 0.809400 0.320200 0.739730
H18 H 0.869600 0.309700 0.757500
H19 H 0.732300 0.325600 0.749400
C20 C 0.813600 0.171800 0.718050
H21 H 0.746200 0.151400 0.704500
C22 C 0.900100 0.069600 0.716080
H23 H 0.966100 0.087400 0.730300
C24 C 0.906300 -0.075000 0.693470
H25 H 0.831500 -0.083300 0.680700
H26 H 0.915200 -0.174100 0.706700
C27 C 1.007300 -0.067900 0.669870
H28 H 1.024500 -0.179000 0.662800
H29 H 1.077900 -0.026600 0.681700
C30 C 1.082900 0.015400 0.616260
H31 H 1.156000 0.063900 0.625500
H32 H 1.096700 -0.100700 0.612400
O33 O 1.046200 0.096700 0.585750
C34 C 1.113800 0.081600 0.560000
O35 O 1.206600 0.008900 0.560530
C36 C 1.058600 0.166100 0.530800
C37 C 0.951900 0.250200 0.531980
H38 H 0.914300 0.257700 0.551900
C39 C 0.900200 0.322800 0.504310
H40 H 0.828100 0.378400 0.505100
C41 C 0.958800 0.310800 0.475190
C42 C 1.064400 0.227300 0.472890
H43 H 1.100900 0.218300 0.452900
C44 C 1.114600 0.157400 0.501130
H45 H 1.187300 0.103300 0.500300
N46 N 0.902100 0.387500 0.445490
O47 O 0.808000 0.461600 0.447900
O48 O 0.953900 0.376700 0.419920
C49 C 0.983500 0.461700 0.139420
H50 H 0.909900 0.501100 0.128200
C51 C 0.967200 0.282500 0.147040
H52 H 1.024600 0.235000 0.161300
C53 C 0.882200 0.186500 0.136030
H54 H 0.826100 0.231100 0.121100
C55 C 0.866900 0.009200 0.145470
H56 H 0.933100 -0.024300 0.160100
H57 H 0.867600 -0.058900 0.125900
C58 C 0.753000 -0.017000 0.162190
H59 H 0.685400 -0.037600 0.148800
C60 C 0.739700 -0.013400 0.194060
H61 H 0.663100 -0.034200 0.200800
C62 C 0.830800 0.019700 0.220770
H63 H 0.832100 -0.071500 0.236200
H64 H 0.908400 0.025300 0.211300
C65 C 0.809400 0.179800 0.239730
H66 H 0.869600 0.190300 0.257500
H67 H 0.732300 0.174400 0.249400
C68 C 0.813600 0.328200 0.218050
H69 H 0.746200 0.348600 0.204500
C70 C 0.900100 0.430400 0.216080
H71 H 0.966100 0.412600 0.230300
C72 C 0.906300 0.575000 0.193470
H73 H 0.831500 0.583300 0.180700
H74 H 0.915200 0.674100 0.206700
C75 C 1.007300 0.567900 0.169870
H76 H 1.024500 0.679000 0.162800
H77 H 1.077900 0.526600 0.181700
C78 C 1.082900 0.484600 0.116260
H79 H 1.156000 0.436100 0.125500
H80 H 1.096700 0.600700 0.112400
O81 O 1.046200 0.403300 0.085750
C82 C 1.113800 0.418400 0.060000
O83 O 1.206600 0.491100 0.060530
C84 C 1.058600 0.333900 0.030800
C85 C 0.951900 0.249800 0.031980
H86 H 0.914300 0.242300 0.051900
C87 C 0.900200 0.177200 0.004310
H88 H 0.828100 0.121600 0.005100
C89 C 0.958800 0.189200 -0.024810
C90 C 1.064400 0.272700 -0.027110
H91 H 1.100900 0.281700 -0.047100
C92 C 1.114600 0.342600 0.001130
H93 H 1.187300 0.396700 0.000300
N94 N 0.902100 0.112500 -0.054510
O95 O 0.808000 0.038400 -0.052100
O96 O 0.953900 0.123300 -0.080080
C97 C 0.016500 0.961700 0.360580
H98 H 0.090100 1.001100 0.371800
C99 C 0.032800 0.782500 0.352960
H100 H -0.024600 0.735000 0.338700
C101 C 0.117800 0.686500 0.363970
H102 H 0.173900 0.731100 0.378900
C103 C 0.133100 0.509200 0.354530
H104 H 0.066900 0.475700 0.339900
H105 H 0.132400 0.441100 0.374100
C106 C 0.247000 0.483000 0.337810
H107 H 0.314600 0.462400 0.351200
C108 C 0.260300 0.486600 0.305940
H109 H 0.336900 0.465800 0.299200
C110 C 0.169200 0.519700 0.279230
H111 H 0.167900 0.428500 0.263800
H112 H 0.091600 0.525300 0.288700
C113 C 0.190600 0.679800 0.260270
H114 H 0.130400 0.690300 0.242500
H115 H 0.267700 0.674400 0.250600
C116 C 0.186400 0.828200 0.281950
H117 H 0.253800 0.848600 0.295500
C118 C 0.099900 0.930400 0.283920
H119 H 0.033900 0.912600 0.269700
C120 C 0.093700 1.075000 0.306530
H121 H 0.168500 1.083300 0.319300
H122 H 0.084800 1.174100 0.293300
C123 C -0.007300 1.067900 0.330130
H124 H -0.024500 1.179000 0.337200
H125 H -0.077900 1.026600 0.318300
C126 C -0.082900 0.984600 0.383740
H127 H -0.156000 0.936100 0.374500
H128 H -0.096700 1.100700 0.387600
O129 O -0.046200 0.903300 0.414250
C130 C -0.113800 0.918400 0.440000
O131 O -0.206600 0.991100 0.439470
C132 C -0.058600 0.833900 0.469200
C133 C 0.048100 0.749800 0.468020
H134 H 0.085700 0.742300 0.448100
C135 C 0.099800 0.677200 0.495690
H136 H 0.171900 0.621600 0.494900
C137 C 0.041200 0.689200 0.524810
C138 C -0.064400 0.772700 0.527110
H139 H -0.100900 0.781700 0.547100
C140 C -0.114600 0.842600 0.498870
H141 H -0.187300 0.896700 0.499700
N142 N 0.097900 0.612500 0.554510
O143 O 0.192000 0.538400 0.552100
O144 O 0.046100 0.623300 0.580080
C145 C 0.016500 0.538300 0.860580
H146 H 0.090100 0.498900 0.871800
C147 C 0.032800 0.717500 0.852960
H148 H -0.024600 0.765000 0.838700
C149 C 0.117800 0.813500 0.863970
H150 H 0.173900 0.768900 0.878900
C151 C 0.133100 0.990800 0.854530
H152 H 0.066900 1.024300 0.839900
H153 H 0.132400 1.058900 0.874100
C154 C 0.247000 1.017000 0.837810
H155 H 0.314600 1.037600 0.851200
C156 C 0.260300 1.013400 0.805940
H157 H 0.336900 1.034200 0.799200
C158 C 0.169200 0.980300 0.779230
H159 H 0.167900 1.071500 0.763800
H160 H 0.091600 0.974700 0.788700
C161 C 0.190600 0.820200 0.760270
H162 H 0.130400 0.809700 0.742500
H163 H 0.267700 0.825600 0.750600
C164 C 0.186400 0.671800 0.781950
H165 H 0.253800 0.651400 0.795500
C166 C 0.099900 0.569600 0.783920
H167 H 0.033900 0.587400 0.769700
C168 C 0.093700 0.425000 0.806530
H169 H 0.168500 0.416700 0.819300
H170 H 0.084800 0.325900 0.793300
C171 C -0.007300 0.432100 0.830130
H172 H -0.024500 0.321000 0.837200
H173 H -0.077900 0.473400 0.818300
C174 C -0.082900 0.515400 0.883740
H175 H -0.156000 0.563900 0.874500
H176 H -0.096700 0.399300 0.887600
O177 O -0.046200 0.596700 0.914250
C178 C -0.113800 0.581600 0.940000
O179 O -0.206600 0.508900 0.939470
C180 C -0.058600 0.666100 0.969200
C181 C 0.048100 0.750200 0.968020
H182 H 0.085700 0.757700 0.948100
C183 C 0.099800 0.822800 0.995690
H184 H 0.171900 0.878400 0.994900
C185 C 0.041200 0.810800 1.024810
C186 C -0.064400 0.727300 1.027110
H187 H -0.100900 0.718300 1.047100
C188 C -0.114600 0.657400 0.998870
H189 H -0.187300 0.603300 0.999700
N190 N 0.097900 0.887500 1.054510
O191 O 0.192000 0.961600 1.052100
O192 O 0.046100 0.876700 1.080080
C193 C 0.484500 0.050700 0.626930
H194 H 0.410400 0.007800 0.616600
C195 C 0.464200 0.226600 0.635740
H196 H 0.521600 0.276000 0.649700
C197 C 0.373900 0.317800 0.625790
H198 H 0.317000 0.270500 0.611400
C199 C 0.355200 0.494100 0.635860
H200 H 0.425300 0.532300 0.648400
H201 H 0.345800 0.561800 0.616300
C202 C 0.248900 0.514500 0.655970
H203 H 0.176600 0.532400 0.644500
C204 C 0.246400 0.510100 0.688170
H205 H 0.172400 0.525000 0.697100
C206 C 0.349300 0.483600 0.711970
H207 H 0.354400 0.575800 0.727100
H208 H 0.422000 0.481800 0.700000
C209 C 0.341400 0.322800 0.731990
H210 H 0.409900 0.315200 0.747300
H211 H 0.270400 0.325700 0.744700
C212 C 0.337300 0.174500 0.710380
H213 H 0.265600 0.153000 0.698800
C214 C 0.423200 0.073700 0.706190
H215 H 0.492400 0.091400 0.719100
C216 C 0.425000 -0.069300 0.682870
H217 H 0.346900 -0.079400 0.671900
H218 H 0.439500 -0.169000 0.695600
C219 C 0.517900 -0.057600 0.656710
H220 H 0.534000 -0.167800 0.648900
H221 H 0.591300 -0.015700 0.667100
C222 C 0.580400 0.035800 0.602340
H223 H 0.653400 0.087000 0.610900
H224 H 0.596600 -0.079100 0.597900
O225 O 0.538000 0.117300 0.572600
C226 C 0.602000 0.105900 0.546250
O227 O 0.694600 0.033300 0.545600
C228 C 0.543600 0.193000 0.517820
C229 C 0.436600 0.274900 0.520940
H230 H 0.401300 0.277100 0.541200
C231 C 0.382500 0.353000 0.494280
H232 H 0.310600 0.407900 0.496300
C233 C 0.436400 0.348500 0.464600
C234 C 0.542100 0.267700 0.460870
H235 H 0.576600 0.264900 0.440500
C236 C 0.596200 0.191000 0.487710
H237 H 0.668600 0.137400 0.485600
N238 N 0.376300 0.430400 0.436030
O239 O 0.288400 0.512100 0.440400
O240 O 0.419200 0.411300 0.409510
C241 C 0.484500 0.449300 0.126930
H242 H 0.410400 0.492200 0.116600
C243 C 0.464200 0.273400 0.135740
H244 H 0.521600 0.224000 0.149700
C245 C 0.373900 0.182200 0.125790
H246 H 0.317000 0.229500 0.111400
C247 C 0.355200 0.005900 0.135860
H248 H 0.425300 -0.032300 0.148400
H249 H 0.345800 -0.061800 0.116300
C250 C 0.248900 -0.014500 0.155970
H251 H 0.176600 -0.032400 0.144500
C252 C 0.246400 -0.010100 0.188170
H253 H 0.172400 -0.025000 0.197100
C254 C 0.349300 0.016400 0.211970
H255 H 0.354400 -0.075800 0.227100
H256 H 0.422000 0.018200 0.200000
C257 C 0.341400 0.177200 0.231990
H258 H 0.409900 0.184800 0.247300
H259 H 0.270400 0.174300 0.244700
C260 C 0.337300 0.325500 0.210380
H261 H 0.265600 0.347000 0.198800
C262 C 0.423200 0.426300 0.206190
H263 H 0.492400 0.408600 0.219100
C264 C 0.425000 0.569300 0.182870
H265 H 0.346900 0.579400 0.171900
H266 H 0.439500 0.669000 0.195600
C267 C 0.517900 0.557600 0.156710
H268 H 0.534000 0.667800 0.148900
H269 H 0.591300 0.515700 0.167100
C270 C 0.580400 0.464200 0.102340
H271 H 0.653400 0.413000 0.110900
H272 H 0.596600 0.579100 0.097900
O273 O 0.538000 0.382700 0.072600
C274 C 0.602000 0.394100 0.046250
O275 O 0.694600 0.466700 0.045600
C276 C 0.543600 0.307000 0.017820
C277 C 0.436600 0.225100 0.020940
H278 H 0.401300 0.222900 0.041200
C279 C 0.382500 0.147000 -0.005720
H280 H 0.310600 0.092100 -0.003700
C281 C 0.436400 0.151500 -0.035400
C282 C 0.542100 0.232300 -0.039130
H283 H 0.576600 0.235100 -0.059500
C284 C 0.596200 0.309000 -0.012290
H285 H 0.668600 0.362600 -0.014400
N286 N 0.376300 0.069600 -0.063970
O287 O 0.288400 -0.012100 -0.059600
O288 O 0.419200 0.088700 -0.090490
C289 C 0.515500 0.949300 0.373070
H290 H 0.589600 0.992200 0.383400
C291 C 0.535800 0.773400 0.364260
H292 H 0.478400 0.724000 0.350300
C293 C 0.626100 0.682200 0.374210
H294 H 0.683000 0.729500 0.388600
C295 C 0.644800 0.505900 0.364140
H296 H 0.574700 0.467700 0.351600
H297 H 0.654200 0.438200 0.383700
C298 C 0.751100 0.485500 0.344030
H299 H 0.823400 0.467600 0.355500
C300 C 0.753600 0.489900 0.311830
H301 H 0.827600 0.475000 0.302900
C302 C 0.650700 0.516400 0.288030
H303 H 0.645600 0.424200 0.272900
H304 H 0.578000 0.518200 0.300000
C305 C 0.658600 0.677200 0.268010
H306 H 0.590100 0.684800 0.252700
H307 H 0.729600 0.674300 0.255300
C308 C 0.662700 0.825500 0.289620
H309 H 0.734400 0.847000 0.301200
C310 C 0.576800 0.926300 0.293810
H311 H 0.507600 0.908600 0.280900
C312 C 0.575000 1.069300 0.317130
H313 H 0.653100 1.079400 0.328100
H314 H 0.560500 1.169000 0.304400
C315 C 0.482100 1.057600 0.343290
H316 H 0.466000 1.167800 0.351100
H317 H 0.408700 1.015700 0.332900
C318 C 0.419600 0.964200 0.397660
H319 H 0.346600 0.913000 0.389100
H320 H 0.403400 1.079100 0.402100
O321 O 0.462000 0.882700 0.427400
C322 C 0.398000 0.894100 0.453750
O323 O 0.305400 0.966700 0.454400
C324 C 0.456400 0.807000 0.482180
C325 C 0.563400 0.725100 0.479060
H326 H 0.598700 0.722900 0.458800
C327 C 0.617500 0.647000 0.505720
H328 H 0.689400 0.592100 0.503700
C329 C 0.563600 0.651500 0.535400
C330 C 0.457900 0.732300 0.539130
H331 H 0.423400 0.735100 0.559500
C332 C 0.403800 0.809000 0.512290
H333 H 0.331400 0.862600 0.514400
N334 N 0.623700 0.569600 0.563970
O335 O 0.711600 0.487900 0.559600
O336 O 0.580800 0.588700 0.590490
C337 C 0.515500 0.550700 0.873070
H338 H 0.589600 0.507800 0.883400
C339 C 0.535800 0.726600 0.864260
H340 H 0.478400 0.776000 0.850300
C341 C 0.626100 0.817800 0.874210
H342 H 0.683000 0.770500 0.888600
C343 C 0.644800 0.994100 0.864140
H344 H 0.574700 1.032300 0.851600
H345 H 0.654200 1.061800 0.883700
C346 C 0.751100 1.014500 0.844030
H347 H 0.823400 1.032400 0.855500
C348 C 0.753600 1.010100 0.811830
H349 H 0.827600 1.025000 0.802900
C350 C 0.650700 0.983600 0.788030
H351 H 0.645600 1.075800 0.772900
H352 H 0.578000 0.981800 0.800000
C353 C 0.658600 0.822800 0.768010
H354 H 0.590100 0.815200 0.752700
H355 H 0.729600 0.825700 0.755300
C356 C 0.662700 0.674500 0.789620
H357 H 0.734400 0.653000 0.801200
C358 C 0.576800 0.573700 0.793810
H359 H 0.507600 0.591400 0.780900
C360 C 0.575000 0.430700 0.817130
H361 H 0.653100 0.420600 0.828100
H362 H 0.560500 0.331000 0.804400
C363 C 0.482100 0.442400 0.843290
H364 H 0.466000 0.332200 0.851100
H365 H 0.408700 0.484300 0.832900
C366 C 0.419600 0.535800 0.897660
H367 H 0.346600 0.587000 0.889100
H368 H 0.403400 0.420900 0.902100
O369 O 0.462000 0.617300 0.927400
C370 C 0.398000 0.605900 0.953750
O371 O 0.305400 0.533300 0.954400
C372 C 0.456400 0.693000 0.982180
C373 C 0.563400 0.774900 0.979060
H374 H 0.598700 0.777100 0.958800
C375 C 0.617500 0.853000 1.005720
H376 H 0.689400 0.907900 1.003700
C377 C 0.563600 0.848500 1.035400
C378 C 0.457900 0.767700 1.039130
H379 H 0.423400 0.764900 1.059500
C380 C 0.403800 0.691000 1.012290
H381 H 0.331400 0.637400 1.014400
N382 N 0.623700 0.930400 1.063970
O383 O 0.711600 1.012100 1.059600
O384 O 0.580800 0.911300 1.090490

#END
