./ABUSOF_from_xyz.cif_generated_by_CrystalShift
_symmetry_cell_setting triclinic
_symmetry_space_group_name_H-M 'P 1'
loop_
_symmetry_equiv_pos_site_id
_symmetry_equiv_pos_as_xyz
1 x,y,z
_cell_length_a 10.461500
_cell_length_b 12.655500
_cell_length_c 23.024000
_cell_angle_alpha 90.000000
_cell_angle_beta 104.166000
_cell_angle_gamma 90.000000
_cell_volume 2955.578505
loop_
_atom_site_label
_atom_site_type_symbol
_atom_site_fract_x
_atom_site_fract_y
_atom_site_fract_z
N1 N 0.180200 0.144400 0.019870
C2 C 0.043700 0.163700 0.006050
C3 C -0.039000 0.215700 -0.041930
H4 H -0.006400 0.246900 -0.071900
C5 C -0.171000 0.219000 -0.043160
H6 H -0.229100 0.251700 -0.075200
C7 C -0.219400 0.175200 0.001790
H8 H -0.309200 0.179600 -0.000300
C9 C -0.138200 0.125300 0.049490
H10 H -0.172400 0.095700 0.079500
C11 C -0.004200 0.119400 0.052680
C12 C 0.107100 0.075000 0.096300
C13 C 0.214700 0.092600 0.075630
H14 H 0.300000 0.073300 0.095400
S15 S 0.291200 0.193810 -0.012890
O16 O 0.227100 0.211000 -0.074270
O17 O 0.402500 0.125300 0.003590
C18 C 0.337600 0.317000 0.021070
C19 C 0.283100 0.408200 -0.006100
H20 H 0.218400 0.405900 -0.041900
C21 C 0.326200 0.504100 0.020640
H22 H 0.291900 0.566900 0.002200
C23 C 0.419400 0.507100 0.074280
H24 H 0.447000 0.571900 0.092100
C25 C 0.471500 0.416000 0.101560
H26 H 0.534100 0.418700 0.138000
C27 C 0.431700 0.319700 0.075390
H28 H 0.467500 0.257400 0.093800
C29 C 0.103000 0.022600 0.153500
C30 C 0.005100 -0.040600 0.157810
H31 H -0.063800 -0.053300 0.124400
H32 H 0.005100 -0.072400 0.194200
C33 C 0.214500 0.044300 0.207840
H34 H 0.299900 0.053300 0.189900
H35 H 0.228700 -0.021100 0.239500
C36 C 0.195400 0.142500 0.245210
C37 C 0.184800 0.242100 0.206400
H38 H 0.107300 0.237700 0.173900
H39 H 0.261400 0.247700 0.190600
H40 H 0.179000 0.303200 0.230300
C41 C 0.317300 0.153300 0.297590
H42 H 0.306300 0.212600 0.321900
H43 H 0.393900 0.164000 0.282300
H44 H 0.328100 0.090100 0.321300
C45 C 0.074100 0.130700 0.269240
C46 C -0.033500 0.193000 0.255880
H47 H -0.047700 0.246600 0.227400
N48 N -0.121900 0.165590 0.291020
C49 C -0.068300 0.077200 0.326070
C50 C -0.116200 0.022100 0.368300
H51 H -0.195400 0.040600 0.377200
C52 C -0.042000 -0.060900 0.396440
H53 H -0.071900 -0.099900 0.424700
C54 C 0.077300 -0.088200 0.383710
H55 H 0.125000 -0.145500 0.403100
C56 C 0.124800 -0.031600 0.342910
H57 H 0.204600 -0.050300 0.334800
C58 C 0.053000 0.054500 0.313450
S59 S -0.281760 0.191790 0.268220
O60 O -0.291500 0.286180 0.233520
O61 O -0.333600 0.188170 0.319640
C62 C -0.350900 0.087100 0.220640
C63 C -0.350400 0.092700 0.160740
H64 H -0.313600 0.150600 0.145900
C65 C -0.405200 0.011100 0.123580
H66 H -0.404600 0.013400 0.083300
C67 C -0.460700 -0.073500 0.145200
H68 H -0.498700 -0.127700 0.119400
C69 C -0.460400 -0.078500 0.204600
H70 H -0.497700 -0.136400 0.219100
C71 C -0.404900 0.002200 0.243470
H72 H -0.404300 -0.001000 0.283900
N73 N 0.180200 0.355600 0.519870
C74 C 0.043700 0.336300 0.506050
C75 C -0.039000 0.284300 0.458070
H76 H -0.006400 0.253100 0.428100
C77 C -0.171000 0.281000 0.456840
H78 H -0.229100 0.248300 0.424800
C79 C -0.219400 0.324800 0.501790
H80 H -0.309200 0.320400 0.499700
C81 C -0.138200 0.374700 0.549490
H82 H -0.172400 0.404300 0.579500
C83 C -0.004200 0.380600 0.552680
C84 C 0.107100 0.425000 0.596300
C85 C 0.214700 0.407400 0.575630
H86 H 0.300000 0.426700 0.595400
S87 S 0.291200 0.306190 0.487110
O88 O 0.227100 0.289000 0.425730
O89 O 0.402500 0.374700 0.503590
C90 C 0.337600 0.183000 0.521070
C91 C 0.283100 0.091800 0.493900
H92 H 0.218400 0.094100 0.458100
C93 C 0.326200 -0.004100 0.520640
H94 H 0.291900 -0.066900 0.502200
C95 C 0.419400 -0.007100 0.574280
H96 H 0.447000 -0.071900 0.592100
C97 C 0.471500 0.084000 0.601560
H98 H 0.534100 0.081300 0.638000
C99 C 0.431700 0.180300 0.575390
H100 H 0.467500 0.242600 0.593800
C101 C 0.103000 0.477400 0.653500
C102 C 0.005100 0.540600 0.657810
H103 H -0.063800 0.553300 0.624400
H104 H 0.005100 0.572400 0.694200
C105 C 0.214500 0.455700 0.707840
H106 H 0.299900 0.446700 0.689900
H107 H 0.228700 0.521100 0.739500
C108 C 0.195400 0.357500 0.745210
C109 C 0.184800 0.257900 0.706400
H110 H 0.107300 0.262300 0.673900
H111 H 0.261400 0.252300 0.690600
H112 H 0.179000 0.196800 0.730300
C113 C 0.317300 0.346700 0.797590
H114 H 0.306300 0.287400 0.821900
H115 H 0.393900 0.336000 0.782300
H116 H 0.328100 0.409900 0.821300
C117 C 0.074100 0.369300 0.769240
C118 C -0.033500 0.307000 0.755880
H119 H -0.047700 0.253400 0.727400
N120 N -0.121900 0.334410 0.791020
C121 C -0.068300 0.422800 0.826070
C122 C -0.116200 0.477900 0.868300
H123 H -0.195400 0.459400 0.877200
C124 C -0.042000 0.560900 0.896440
H125 H -0.071900 0.599900 0.924700
C126 C 0.077300 0.588200 0.883710
H127 H 0.125000 0.645500 0.903100
C128 C 0.124800 0.531600 0.842910
H129 H 0.204600 0.550300 0.834800
C130 C 0.053000 0.445500 0.813450
S131 S -0.281760 0.308210 0.768220
O132 O -0.291500 0.213820 0.733520
O133 O -0.333600 0.311830 0.819640
C134 C -0.350900 0.412900 0.720640
C135 C -0.350400 0.407300 0.660740
H136 H -0.313600 0.349400 0.645900
C137 C -0.405200 0.488900 0.623580
H138 H -0.404600 0.486600 0.583300
C139 C -0.460700 0.573500 0.645200
H140 H -0.498700 0.627700 0.619400
C141 C -0.460400 0.578500 0.704600
H142 H -0.497700 0.636400 0.719100
C143 C -0.404900 0.497800 0.743470
H144 H -0.404300 0.501000 0.783900
N145 N 0.819800 0.855600 0.980130
C146 C 0.956300 0.836300 0.993950
C147 C 1.039000 0.784300 1.041930
H148 H 1.006400 0.753100 1.071900
C149 C 1.171000 0.781000 1.043160
H150 H 1.229100 0.748300 1.075200
C151 C 1.219400 0.824800 0.998210
H152 H 1.309200 0.820400 1.000300
C153 C 1.138200 0.874700 0.950510
H154 H 1.172400 0.904300 0.920500
C155 C 1.004200 0.880600 0.947320
C156 C 0.892900 0.925000 0.903700
C157 C 0.785300 0.907400 0.924370
H158 H 0.700000 0.926700 0.904600
S159 S 0.708800 0.806190 1.012890
O160 O 0.772900 0.789000 1.074270
O161 O 0.597500 0.874700 0.996410
C162 C 0.662400 0.683000 0.978930
C163 C 0.716900 0.591800 1.006100
H164 H 0.781600 0.594100 1.041900
C165 C 0.673800 0.495900 0.979360
H166 H 0.708100 0.433100 0.997800
C167 C 0.580600 0.492900 0.925720
H168 H 0.553000 0.428100 0.907900
C169 C 0.528500 0.584000 0.898440
H170 H 0.465900 0.581300 0.862000
C171 C 0.568300 0.680300 0.924610
H172 H 0.532500 0.742600 0.906200
C173 C 0.897000 0.977400 0.846500
C174 C 0.994900 1.040600 0.842190
H175 H 1.063800 1.053300 0.875600
H176 H 0.994900 1.072400 0.805800
C177 C 0.785500 0.955700 0.792160
H178 H 0.700100 0.946700 0.810100
H179 H 0.771300 1.021100 0.760500
C180 C 0.804600 0.857500 0.754790
C181 C 0.815200 0.757900 0.793600
H182 H 0.892700 0.762300 0.826100
H183 H 0.738600 0.752300 0.809400
H184 H 0.821000 0.696800 0.769700
C185 C 0.682700 0.846700 0.702410
H186 H 0.693700 0.787400 0.678100
H187 H 0.606100 0.836000 0.717700
H188 H 0.671900 0.909900 0.678700
C189 C 0.925900 0.869300 0.730760
C190 C 1.033500 0.807000 0.744120
H191 H 1.047700 0.753400 0.772600
N192 N 1.121900 0.834410 0.708980
C193 C 1.068300 0.922800 0.673930
C194 C 1.116200 0.977900 0.631700
H195 H 1.195400 0.959400 0.622800
C196 C 1.042000 1.060900 0.603560
H197 H 1.071900 1.099900 0.575300
C198 C 0.922700 1.088200 0.616290
H199 H 0.875000 1.145500 0.596900
C200 C 0.875200 1.031600 0.657090
H201 H 0.795400 1.050300 0.665200
C202 C 0.947000 0.945500 0.686550
S203 S 1.281760 0.808210 0.731780
O204 O 1.291500 0.713820 0.766480
O205 O 1.333600 0.811830 0.680360
C206 C 1.350900 0.912900 0.779360
C207 C 1.350400 0.907300 0.839260
H208 H 1.313600 0.849400 0.854100
C209 C 1.405200 0.988900 0.876420
H210 H 1.404600 0.986600 0.916700
C211 C 1.460700 1.073500 0.854800
H212 H 1.498700 1.127700 0.880600
C213 C 1.460400 1.078500 0.795400
H214 H 1.497700 1.136400 0.780900
C215 C 1.404900 0.997800 0.756530
H216 H 1.404300 1.001000 0.716100
N217 N 0.819800 0.644400 0.480130
C218 C 0.956300 0.663700 0.493950
C219 C 1.039000 0.715700 0.541930
H220 H 1.006400 0.746900 0.571900
C221 C 1.171000 0.719000 0.543160
H222 H 1.229100 0.751700 0.575200
C223 C 1.219400 0.675200 0.498210
H224 H 1.309200 0.679600 0.500300
C225 C 1.138200 0.625300 0.450510
H226 H 1.172400 0.595700 0.420500
C227 C 1.004200 0.619400 0.447320
C228 C 0.892900 0.575000 0.403700
C229 C 0.785300 0.592600 0.424370
H230 H 0.700000 0.573300 0.404600
S231 S 0.708800 0.693810 0.512890
O232 O 0.772900 0.711000 0.574270
O233 O 0.597500 0.625300 0.496410
C234 C 0.662400 0.817000 0.478930
C235 C 0.716900 0.908200 0.506100
H236 H 0.781600 0.905900 0.541900
C237 C 0.673800 1.004100 0.479360
H238 H 0.708100 1.066900 0.497800
C239 C 0.580600 1.007100 0.425720
H240 H 0.553000 1.071900 0.407900
C241 C 0.528500 0.916000 0.398440
H242 H 0.465900 0.918700 0.362000
C243 C 0.568300 0.819700 0.424610
H244 H 0.532500 0.757400 0.406200
C245 C 0.897000 0.522600 0.346500
C246 C 0.994900 0.459400 0.342190
H247 H 1.063800 0.446700 0.375600
H248 H 0.994900 0.427600 0.305800
C249 C 0.785500 0.544300 0.292160
H250 H 0.700100 0.553300 0.310100
H251 H 0.771300 0.478900 0.260500
C252 C 0.804600 0.642500 0.254790
C253 C 0.815200 0.742100 0.293600
H254 H 0.892700 0.737700 0.326100
H255 H 0.738600 0.747700 0.309400
H256 H 0.821000 0.803200 0.269700
C257 C 0.682700 0.653300 0.202410
H258 H 0.693700 0.712600 0.178100
H259 H 0.606100 0.664000 0.217700
H260 H 0.671900 0.590100 0.178700
C261 C 0.925900 0.630700 0.230760
C262 C 1.033500 0.693000 0.244120
H263 H 1.047700 0.746600 0.272600
N264 N 1.121900 0.665590 0.208980
C265 C 1.068300 0.577200 0.173930
C266 C 1.116200 0.522100 0.131700
H267 H 1.195400 0.540600 0.122800
C268 C 1.042000 0.439100 0.103560
H269 H 1.071900 0.400100 0.075300
C270 C 0.922700 0.411800 0.116290
H271 H 0.875000 0.354500 0.096900
C272 C 0.875200 0.468400 0.157090
H273 H 0.795400 0.449700 0.165200
C274 C 0.947000 0.554500 0.186550
S275 S 1.281760 0.691790 0.231780
O276 O 1.291500 0.786180 0.266480
O277 O 1.333600 0.688170 0.180360
C278 C 1.350900 0.587100 0.279360
C279 C 1.350400 0.592700 0.339260
H280 H 1.313600 0.650600 0.354100
C281 C 1.405200 0.511100 0.376420
H282 H 1.404600 0.513400 0.416700
C283 C 1.460700 0.426500 0.354800
H284 H 1.498700 0.372300 0.380600
C285 C 1.460400 0.421500 0.295400
H286 H 1.497700 0.363600 0.280900
C287 C 1.404900 0.502200 0.256530
H288 H 1.404300 0.499000 0.216100

#END
