./ACARBM01_from_xyz.cif_generated_by_CrystalShift
_symmetry_cell_setting triclinic
_symmetry_space_group_name_H-M 'P 1'
loop_
_symmetry_equiv_pos_site_id
_symmetry_equiv_pos_as_xyz
1 x,y,z
_cell_length_a 6.535600
_cell_length_b 6.754400
_cell_length_c 17.120000
_cell_angle_alpha 90.000000
_cell_angle_beta 90.000000
_cell_angle_gamma 90.000000
_cell_volume 755.746250
loop_
_atom_site_label
_atom_site_type_symbol
_atom_site_fract_x
_atom_site_fract_y
_atom_site_fract_z
O1 O 1.053800 0.515170 0.395390
C2 C 0.924000 0.654900 0.393430
O3 O 0.887300 0.758370 0.333360
N4 N 0.816800 0.692800 0.458430
H5 H 0.845000 0.635000 0.500400
H6 H 0.748000 0.793000 0.458500
O7 O 0.446200 0.484830 0.895390
C8 C 0.576000 0.345100 0.893430
O9 O 0.612700 0.241630 0.833360
N10 N 0.683200 0.307200 0.958430
H11 H 0.655000 0.365000 1.000400
H12 H 0.752000 0.207000 0.958500
O13 O -0.053800 0.015170 0.104610
C14 C 0.076000 0.154900 0.106570
O15 O 0.112700 0.258370 0.166640
N16 N 0.183200 0.192800 0.041570
H17 H 0.155000 0.135000 -0.000400
H18 H 0.252000 0.293000 0.041500
O19 O 0.553800 0.984830 0.604610
C20 C 0.424000 0.845100 0.606570
O21 O 0.387300 0.741630 0.666640
N22 N 0.316800 0.807200 0.541570
H23 H 0.345000 0.865000 0.499600
H24 H 0.248000 0.707000 0.541500
O25 O -0.053800 0.484830 0.604610
C26 C 0.076000 0.345100 0.606570
O27 O 0.112700 0.241630 0.666640
N28 N 0.183200 0.307200 0.541570
H29 H 0.155000 0.365000 0.499600
H30 H 0.252000 0.207000 0.541500
O31 O 0.553800 0.515170 0.104610
C32 C 0.424000 0.654900 0.106570
O33 O 0.387300 0.758370 0.166640
N34 N 0.316800 0.692800 0.041570
H35 H 0.345000 0.635000 -0.000400
H36 H 0.248000 0.793000 0.041500
O37 O 1.053800 0.984830 0.895390
C38 C 0.924000 0.845100 0.893430
O39 O 0.887300 0.741630 0.833360
N40 N 0.816800 0.807200 0.958430
H41 H 0.845000 0.865000 1.000400
H42 H 0.748000 0.707000 0.958500
O43 O 0.446200 0.015170 0.395390
C44 C 0.576000 0.154900 0.393430
O45 O 0.612700 0.258370 0.333360
N46 N 0.683200 0.192800 0.458430
H47 H 0.655000 0.135000 0.500400
H48 H 0.752000 0.293000 0.458500
N49 N 0.078800 0.132800 0.319090
H50 H 0.095000 0.163000 0.265900
H51 H 0.208000 0.107000 0.339900
H52 H 0.031000 0.244000 0.345500
H53 H -0.005000 0.024000 0.329400
N54 N 0.421200 0.867200 0.819090
H55 H 0.405000 0.837000 0.765900
H56 H 0.292000 0.893000 0.839900
H57 H 0.469000 0.756000 0.845500
H58 H 0.505000 0.976000 0.829400
N59 N 0.921200 0.632800 0.180910
H60 H 0.905000 0.663000 0.234100
H61 H 0.792000 0.607000 0.160100
H62 H 0.969000 0.744000 0.154500
H63 H 1.005000 0.524000 0.170600
N64 N 0.578800 0.367200 0.680910
H65 H 0.595000 0.337000 0.734100
H66 H 0.708000 0.393000 0.660100
H67 H 0.531000 0.256000 0.654500
H68 H 0.495000 0.476000 0.670600
N69 N 0.921200 0.867200 0.680910
H70 H 0.905000 0.837000 0.734100
H71 H 0.792000 0.893000 0.660100
H72 H 0.969000 0.756000 0.654500
H73 H 1.005000 0.976000 0.670600
N74 N 0.578800 0.132800 0.180910
H75 H 0.595000 0.163000 0.234100
H76 H 0.708000 0.107000 0.160100
H77 H 0.531000 0.244000 0.154500
H78 H 0.495000 0.024000 0.170600
N79 N 0.078800 0.367200 0.819090
H80 H 0.095000 0.337000 0.765900
H81 H 0.208000 0.393000 0.839900
H82 H 0.031000 0.256000 0.845500
H83 H -0.005000 0.476000 0.829400
N84 N 0.421200 0.632800 0.319090
H85 H 0.405000 0.663000 0.265900
H86 H 0.292000 0.607000 0.339900
H87 H 0.469000 0.744000 0.345500
H88 H 0.505000 0.524000 0.329400

#END
