./ACEMUR_from_xyz.cif_generated_by_CrystalShift
_symmetry_cell_setting triclinic
_symmetry_space_group_name_H-M 'P 1'
loop_
_symmetry_equiv_pos_site_id
_symmetry_equiv_pos_as_xyz
1 x,y,z
_cell_length_a 6.606400
_cell_length_b 14.354000
_cell_length_c 14.549000
_cell_angle_alpha 90.000000
_cell_angle_beta 95.247000
_cell_angle_gamma 90.000000
_cell_volume 1373.875326
loop_
_atom_site_label
_atom_site_type_symbol
_atom_site_fract_x
_atom_site_fract_y
_atom_site_fract_z
O1 O 0.670200 0.446290 0.531730
O2 O 0.967300 0.406410 0.593610
O3 O 1.168900 0.087900 0.626300
O4 O 0.938000 -0.018000 0.603710
O5 O -0.636300 0.232470 0.202410
O6 O -0.404800 0.118020 0.250360
N7 N 0.405900 0.321650 0.464440
H8 H 0.430000 0.377900 0.464200
N9 N 0.229800 0.286330 0.417890
N10 N 0.798000 0.386400 0.556840
N11 N 0.995800 0.063490 0.600750
C12 C 0.553900 0.261450 0.498260
C13 C 0.745200 0.289750 0.542910
C14 C 0.892200 0.224970 0.574870
H15 H 1.018000 0.246500 0.601200
C16 C 0.848900 0.132430 0.564290
C17 C 0.662800 0.102410 0.521250
H18 H 0.636000 0.034000 0.516600
C19 C 0.519300 0.164900 0.489200
H20 H 0.397000 0.144000 0.461300
C21 C -0.087400 0.317700 0.331230
C22 C -0.226700 0.385940 0.300940
H23 H -0.185000 0.447100 0.307800
C24 C -0.418600 0.364900 0.256410
H25 H -0.512000 0.412200 0.235200
C26 C -0.461800 0.272630 0.244620
C27 C -0.323200 0.204140 0.273840
C28 C -0.135800 0.223360 0.317070
H29 H -0.047000 0.175100 0.333800
C30 C 0.106000 0.346700 0.380450
H31 H 0.138000 0.409000 0.384800
C32 C -0.613100 0.134700 0.217600
H33 H -0.640000 0.101000 0.153000
H34 H -0.694000 0.118000 0.266900
O35 O 0.670200 0.053710 1.031730
O36 O 0.967300 0.093590 1.093610
O37 O 1.168900 0.412100 1.126300
O38 O 0.938000 0.518000 1.103710
O39 O -0.636300 0.267530 0.702410
O40 O -0.404800 0.381980 0.750360
N41 N 0.405900 0.178350 0.964440
H42 H 0.430000 0.122100 0.964200
N43 N 0.229800 0.213670 0.917890
N44 N 0.798000 0.113600 1.056840
N45 N 0.995800 0.436510 1.100750
C46 C 0.553900 0.238550 0.998260
C47 C 0.745200 0.210250 1.042910
C48 C 0.892200 0.275030 1.074870
H49 H 1.018000 0.253500 1.101200
C50 C 0.848900 0.367570 1.064290
C51 C 0.662800 0.397590 1.021250
H52 H 0.636000 0.466000 1.016600
C53 C 0.519300 0.335100 0.989200
H54 H 0.397000 0.356000 0.961300
C55 C -0.087400 0.182300 0.831230
C56 C -0.226700 0.114060 0.800940
H57 H -0.185000 0.052900 0.807800
C58 C -0.418600 0.135100 0.756410
H59 H -0.512000 0.087800 0.735200
C60 C -0.461800 0.227370 0.744620
C61 C -0.323200 0.295860 0.773840
C62 C -0.135800 0.276640 0.817070
H63 H -0.047000 0.324900 0.833800
C64 C 0.106000 0.153300 0.880450
H65 H 0.138000 0.091000 0.884800
C66 C -0.613100 0.365300 0.717600
H67 H -0.640000 0.399000 0.653000
H68 H -0.694000 0.382000 0.766900
O69 O 0.329800 0.553710 0.468270
O70 O 0.032700 0.593590 0.406390
O71 O -0.168900 0.912100 0.373700
O72 O 0.062000 1.018000 0.396290
O73 O 1.636300 0.767530 0.797590
O74 O 1.404800 0.881980 0.749640
N75 N 0.594100 0.678350 0.535560
H76 H 0.570000 0.622100 0.535800
N77 N 0.770200 0.713670 0.582110
N78 N 0.202000 0.613600 0.443160
N79 N 0.004200 0.936510 0.399250
C80 C 0.446100 0.738550 0.501740
C81 C 0.254800 0.710250 0.457090
C82 C 0.107800 0.775030 0.425130
H83 H -0.018000 0.753500 0.398800
C84 C 0.151100 0.867570 0.435710
C85 C 0.337200 0.897590 0.478750
H86 H 0.364000 0.966000 0.483400
C87 C 0.480700 0.835100 0.510800
H88 H 0.603000 0.856000 0.538700
C89 C 1.087400 0.682300 0.668770
C90 C 1.226700 0.614060 0.699060
H91 H 1.185000 0.552900 0.692200
C92 C 1.418600 0.635100 0.743590
H93 H 1.512000 0.587800 0.764800
C94 C 1.461800 0.727370 0.755380
C95 C 1.323200 0.795860 0.726160
C96 C 1.135800 0.776640 0.682930
H97 H 1.047000 0.824900 0.666200
C98 C 0.894000 0.653300 0.619550
H99 H 0.862000 0.591000 0.615200
C100 C 1.613100 0.865300 0.782400
H101 H 1.640000 0.899000 0.847000
H102 H 1.694000 0.882000 0.733100
O103 O 0.329800 0.946290 -0.031730
O104 O 0.032700 0.906410 -0.093610
O105 O -0.168900 0.587900 -0.126300
O106 O 0.062000 0.482000 -0.103710
O107 O 1.636300 0.732470 0.297590
O108 O 1.404800 0.618020 0.249640
N109 N 0.594100 0.821650 0.035560
H110 H 0.570000 0.877900 0.035800
N111 N 0.770200 0.786330 0.082110
N112 N 0.202000 0.886400 -0.056840
N113 N 0.004200 0.563490 -0.100750
C114 C 0.446100 0.761450 0.001740
C115 C 0.254800 0.789750 -0.042910
C116 C 0.107800 0.724970 -0.074870
H117 H -0.018000 0.746500 -0.101200
C118 C 0.151100 0.632430 -0.064290
C119 C 0.337200 0.602410 -0.021250
H120 H 0.364000 0.534000 -0.016600
C121 C 0.480700 0.664900 0.010800
H122 H 0.603000 0.644000 0.038700
C123 C 1.087400 0.817700 0.168770
C124 C 1.226700 0.885940 0.199060
H125 H 1.185000 0.947100 0.192200
C126 C 1.418600 0.864900 0.243590
H127 H 1.512000 0.912200 0.264800
C128 C 1.461800 0.772630 0.255380
C129 C 1.323200 0.704140 0.226160
C130 C 1.135800 0.723360 0.182930
H131 H 1.047000 0.675100 0.166200
C132 C 0.894000 0.846700 0.119550
H133 H 0.862000 0.909000 0.115200
C134 C 1.613100 0.634700 0.282400
H135 H 1.640000 0.601000 0.347000
H136 H 1.694000 0.618000 0.233100

#END
