
#######################################################################
#
#                 Cambridge Crystallographic Data Centre
#                                CCDC 
#
#######################################################################
#
# If this CIF has been generated from an entry in the Cambridge 
# Structural Database, then it will include bibliographic, chemical, 
# crystal, experimental, refinement or atomic coordinate data resulting 
# from the CCDC's data processing and validation procedures.
#
#######################################################################

data_ACEQAB
_symmetry_cell_setting           monoclinic
_symmetry_space_group_name_H-M   'P 21/c'
_symmetry_Int_Tables_number      14
_space_group_name_Hall           '-P 2ybc'
loop_
_symmetry_equiv_pos_site_id
_symmetry_equiv_pos_as_xyz
1 x,y,z
2 x,1/2-y,1/2+z
3 -x,-y,-z
4 -x,1/2+y,1/2-z
_cell_length_a                   7.5924(7)
_cell_length_b                   8.6639(8)
_cell_length_c                   21.7191(19)
_cell_angle_alpha                90
_cell_angle_beta                 107.396(2)
_cell_angle_gamma                90
_cell_volume                     1363.33
loop_
_atom_site_label
_atom_site_type_symbol
_atom_site_fract_x
_atom_site_fract_y
_atom_site_fract_z
C1 C 0.41852(14) 0.32076(13) 0.25063(5)
C2 C 0.39507(14) 0.32069(12) 0.31368(5)
C3 C 0.39048(15) 0.18219(13) 0.34590(5)
C4 C 0.36668(14) 0.18284(12) 0.40658(5)
C5 C 0.34752(14) 0.32307(12) 0.43541(5)
C6 C 0.35151(14) 0.46203(12) 0.40322(5)
C7 C 0.37630(14) 0.46113(13) 0.34312(5)
C8 C 0.34057(17) 0.20016(15) 0.53290(6)
H1 H 0.2429 0.1272 0.5114
H2 H 0.3290 0.2269 0.5754
H3 H 0.4614 0.1527 0.5382
H7 H 0.4031(18) 0.0822(18) 0.3242(7)
H8 H 0.3606(18) 0.0842(17) 0.4286(7)
H9 H 0.3383(18) 0.5572(17) 0.4243(7)
H10 H 0.3848(17) 0.5596(16) 0.3211(6)
N1 N 0.43502(14) 0.32228(12) 0.19962(5)
O1 O 0.32373(11) 0.33654(9) 0.49469(4)
C1 C 0.41852(14) 0.17924(13) 0.75063(5)
C2 C 0.39507(14) 0.17931(12) 0.81368(5)
C3 C 0.39048(15) 0.31781(13) 0.84590(5)
C4 C 0.36668(14) 0.31716(12) 0.90658(5)
C5 C 0.34752(14) 0.17693(12) 0.93541(5)
C6 C 0.35151(14) 0.03797(12) 0.90322(5)
C7 C 0.37630(14) 0.03887(13) 0.84312(5)
C8 C 0.34057(17) 0.29984(15) 1.03290(6)
H1 H 0.2429 0.3728 1.0114
H2 H 0.3290 0.2731 1.0754
H3 H 0.4614 0.3473 1.0382
H7 H 0.4031(18) 0.4178(18) 0.8242(7)
H8 H 0.3606(18) 0.4158(17) 0.9286(7)
H9 H 0.3383(18) -0.0572(17) 0.9243(7)
H10 H 0.3848(17) -0.0596(16) 0.8211(6)
N1 N 0.43502(14) 0.17772(12) 0.69962(5)
O1 O 0.32373(11) 0.16346(9) 0.99469(4)
C1 C 0.58148(14) 0.67924(13) 0.74937(5)
C2 C 0.60493(14) 0.67931(12) 0.68632(5)
C3 C 0.60952(15) 0.81781(13) 0.65410(5)
C4 C 0.63332(14) 0.81716(12) 0.59342(5)
C5 C 0.65248(14) 0.67693(12) 0.56459(5)
C6 C 0.64849(14) 0.53797(12) 0.59678(5)
C7 C 0.62370(14) 0.53887(13) 0.65688(5)
C8 C 0.65943(17) 0.79984(15) 0.46710(6)
H1 H 0.7571 0.8728 0.4886
H2 H 0.6710 0.7731 0.4246
H3 H 0.5386 0.8473 0.4618
H7 H 0.5969(18) 0.9178(18) 0.6758(7)
H8 H 0.6394(18) 0.9158(17) 0.5714(7)
H9 H 0.6617(18) 0.4428(17) 0.5757(7)
H10 H 0.6152(17) 0.4404(16) 0.6789(6)
N1 N 0.56498(14) 0.67772(12) 0.80038(5)
O1 O 0.67627(11) 0.66346(9) 0.50531(4)
C1 C 0.58148(14) 0.82076(13) 0.24937(5)
C2 C 0.60493(14) 0.82069(12) 0.18632(5)
C3 C 0.60952(15) 0.68219(13) 0.15410(5)
C4 C 0.63332(14) 0.68284(12) 0.09342(5)
C5 C 0.65248(14) 0.82307(12) 0.06459(5)
C6 C 0.64849(14) 0.96203(12) 0.09678(5)
C7 C 0.62370(14) 0.96113(13) 0.15688(5)
C8 C 0.65943(17) 0.70016(15) -0.03290(6)
H1 H 0.7571 0.6272 -0.0114
H2 H 0.6710 0.7269 -0.0754
H3 H 0.5386 0.6527 -0.0382
H7 H 0.5969(18) 0.5822(18) 0.1758(7)
H8 H 0.6394(18) 0.5842(17) 0.0714(7)
H9 H 0.6617(18) 1.0572(17) 0.0757(7)
H10 H 0.6152(17) 1.0596(16) 0.1789(6)
N1 N 0.56498(14) 0.82228(12) 0.30038(5)
O1 O 0.67627(11) 0.83654(9) 0.00531(4)
C9 C 0.15365(15) 0.71638(13) 0.01046(5)
C10 C 0.14131(14) 0.77237(12) 0.07127(5)
C11 C 0.12877(15) 0.66969(12) 0.11939(5)
C12 C 0.11522(14) 0.72441(12) 0.17781(5)
C13 C 0.11236(13) 0.88292(12) 0.18798(5)
C14 C 0.12606(15) 0.98575(12) 0.13996(5)
C15 C 0.14057(14) 0.93144(12) 0.08229(5)
C16 C 0.09368(16) 0.84855(13) 0.29489(5)
H4 H -0.0100 0.7765 0.2804
H5 H 0.0795 0.9100 0.3310
H6 H 0.2096 0.7904 0.3089
H11 H 0.1281(18) 0.5583(18) 0.1126(7)
H12 H 0.1059(17) 0.6526(15) 0.2110(7)
H13 H 0.1253(17) 1.0930(18) 0.1476(6)
H14 H 0.1532(17) 1.0014(16) 0.0494(6)
N2 N 0.16209(16) 0.67242(12) -0.03857(5)
O2 O 0.09666(10) 0.94893(9) 0.24283(3)
C9 C 0.15365(15) 0.78362(13) 0.51046(5)
C10 C 0.14131(14) 0.72763(12) 0.57127(5)
C11 C 0.12877(15) 0.83031(12) 0.61939(5)
C12 C 0.11522(14) 0.77559(12) 0.67781(5)
C13 C 0.11236(13) 0.61708(12) 0.68798(5)
C14 C 0.12606(15) 0.51425(12) 0.63996(5)
C15 C 0.14057(14) 0.56856(12) 0.58229(5)
C16 C 0.09368(16) 0.65145(13) 0.79489(5)
H4 H -0.0100 0.7235 0.7804
H5 H 0.0795 0.5900 0.8310
H6 H 0.2096 0.7096 0.8089
H11 H 0.1281(18) 0.9417(18) 0.6126(7)
H12 H 0.1059(17) 0.8474(15) 0.7110(7)
H13 H 0.1253(17) 0.4070(18) 0.6476(6)
H14 H 0.1532(17) 0.4986(16) 0.5494(6)
N2 N 0.16209(16) 0.82758(12) 0.46143(5)
O2 O 0.09666(10) 0.55107(9) 0.74283(3)
C9 C 0.84635(15) 0.28362(13) 0.98954(5)
C10 C 0.85869(14) 0.22763(12) 0.92873(5)
C11 C 0.87123(15) 0.33031(12) 0.88061(5)
C12 C 0.88478(14) 0.27559(12) 0.82219(5)
C13 C 0.88764(13) 0.11708(12) 0.81202(5)
C14 C 0.87394(15) 0.01425(12) 0.86004(5)
C15 C 0.85943(14) 0.06856(12) 0.91771(5)
C16 C 0.90632(16) 0.15145(13) 0.70511(5)
H4 H 1.0100 0.2235 0.7196
H5 H 0.9205 0.0900 0.6690
H6 H 0.7904 0.2096 0.6911
H11 H 0.8719(18) 0.4417(18) 0.8874(7)
H12 H 0.8941(17) 0.3474(15) 0.7890(7)
H13 H 0.8747(17) -0.0930(18) 0.8524(6)
H14 H 0.8468(17) -0.0014(16) 0.9506(6)
N2 N 0.83791(16) 0.32758(12) 1.03857(5)
O2 O 0.90334(10) 0.05107(9) 0.75717(3)
C9 C 0.84635(15) 0.21638(13) 0.48954(5)
C10 C 0.85869(14) 0.27237(12) 0.42873(5)
C11 C 0.87123(15) 0.16969(12) 0.38061(5)
C12 C 0.88478(14) 0.22441(12) 0.32219(5)
C13 C 0.88764(13) 0.38292(12) 0.31202(5)
C14 C 0.87394(15) 0.48575(12) 0.36004(5)
C15 C 0.85943(14) 0.43144(12) 0.41771(5)
C16 C 0.90632(16) 0.34855(13) 0.20511(5)
H4 H 1.0100 0.2765 0.2196
H5 H 0.9205 0.4100 0.1690
H6 H 0.7904 0.2904 0.1911
H11 H 0.8719(18) 0.0583(18) 0.3874(7)
H12 H 0.8941(17) 0.1526(15) 0.2890(7)
H13 H 0.8747(17) 0.5930(18) 0.3524(6)
H14 H 0.8468(17) 0.5014(16) 0.4506(6)
N2 N 0.83791(16) 0.17242(12) 0.53857(5)
O2 O 0.90334(10) 0.44893(9) 0.25717(3)

#END
