./ACERAD_from_xyz.cif_generated_by_CrystalShift
_symmetry_cell_setting triclinic
_symmetry_space_group_name_H-M 'P 1'
loop_
_symmetry_equiv_pos_site_id
_symmetry_equiv_pos_as_xyz
1 x,y,z
_cell_length_a 7.753500
_cell_length_b 7.525400
_cell_length_c 27.035000
_cell_angle_alpha 90.000000
_cell_angle_beta 97.037000
_cell_angle_gamma 90.000000
_cell_volume 1565.560795
loop_
_atom_site_label
_atom_site_type_symbol
_atom_site_fract_x
_atom_site_fract_y
_atom_site_fract_z
O1 O 0.605900 0.778400 0.264710
O2 O 0.647200 0.314100 0.469330
N3 N 0.483400 0.775400 0.389820
C4 C 0.669500 0.358400 0.427450
C5 C 0.546600 0.834100 0.302200
N6 N 0.610700 0.517000 0.405670
N7 N 0.754500 0.258000 0.395800
N8 N 0.730500 0.452400 0.329700
C9 C 0.557800 0.724000 0.348280
C10 C 0.637900 0.562700 0.357310
N11 N 0.471300 0.991000 0.305230
N12 N 0.786500 0.305800 0.348300
C13 C 0.517500 0.650200 0.423430
H14 H 0.481800 0.652500 0.455800
C15 C 0.823200 0.083900 0.412890
H16 H 0.898600 0.098000 0.444500
H17 H 0.890300 0.033200 0.387900
H18 H 0.726600 0.004400 0.417700
H19 H 0.453000 1.057000 0.277800
H20 H 0.430000 1.021000 0.331900
O21 O 0.394100 0.278400 0.235290
O22 O 0.352800 -0.185900 0.030670
N23 N 0.516600 0.275400 0.110180
C24 C 0.330500 -0.141600 0.072550
C25 C 0.453400 0.334100 0.197800
N26 N 0.389300 0.017000 0.094330
N27 N 0.245500 -0.242000 0.104200
N28 N 0.269500 -0.047600 0.170300
C29 C 0.442200 0.224000 0.151720
C30 C 0.362100 0.062700 0.142690
N31 N 0.528700 0.491000 0.194770
N32 N 0.213500 -0.194200 0.151700
C33 C 0.482500 0.150200 0.076570
H34 H 0.518200 0.152500 0.044200
C35 C 0.176800 -0.416100 0.087110
H36 H 0.101400 -0.402000 0.055500
H37 H 0.109700 -0.466800 0.112100
H38 H 0.273400 -0.495600 0.082300
H39 H 0.547000 0.557000 0.222200
H40 H 0.570000 0.521000 0.168100
O41 O 0.394100 0.221600 0.735290
O42 O 0.352800 0.685900 0.530670
N43 N 0.516600 0.224600 0.610180
C44 C 0.330500 0.641600 0.572550
C45 C 0.453400 0.165900 0.697800
N46 N 0.389300 0.483000 0.594330
N47 N 0.245500 0.742000 0.604200
N48 N 0.269500 0.547600 0.670300
C49 C 0.442200 0.276000 0.651720
C50 C 0.362100 0.437300 0.642690
N51 N 0.528700 0.009000 0.694770
N52 N 0.213500 0.694200 0.651700
C53 C 0.482500 0.349800 0.576570
H54 H 0.518200 0.347500 0.544200
C55 C 0.176800 0.916100 0.587110
H56 H 0.101400 0.902000 0.555500
H57 H 0.109700 0.966800 0.612100
H58 H 0.273400 0.995600 0.582300
H59 H 0.547000 -0.057000 0.722200
H60 H 0.570000 -0.021000 0.668100
O61 O 0.605900 0.721600 0.764710
O62 O 0.647200 1.185900 0.969330
N63 N 0.483400 0.724600 0.889820
C64 C 0.669500 1.141600 0.927450
C65 C 0.546600 0.665900 0.802200
N66 N 0.610700 0.983000 0.905670
N67 N 0.754500 1.242000 0.895800
N68 N 0.730500 1.047600 0.829700
C69 C 0.557800 0.776000 0.848280
C70 C 0.637900 0.937300 0.857310
N71 N 0.471300 0.509000 0.805230
N72 N 0.786500 1.194200 0.848300
C73 C 0.517500 0.849800 0.923430
H74 H 0.481800 0.847500 0.955800
C75 C 0.823200 1.416100 0.912890
H76 H 0.898600 1.402000 0.944500
H77 H 0.890300 1.466800 0.887900
H78 H 0.726600 1.495600 0.917700
H79 H 0.453000 0.443000 0.777800
H80 H 0.430000 0.479000 0.831900
N81 N 0.294600 0.231600 0.373760
O82 O 0.186200 0.233000 0.501060
O83 O 0.128300 0.658300 0.294140
O84 O 0.020700 0.761100 0.362490
N85 N 0.163200 0.494300 0.363380
C86 C 0.148700 0.442400 0.411940
N87 N 0.307800 0.010800 0.460490
C88 C 0.229200 0.281000 0.417810
N89 N 0.061800 0.536600 0.444180
C90 C 0.096600 0.652700 0.340990
C91 C 0.240400 0.173300 0.462950
C92 C 0.254000 0.358900 0.342360
H93 H 0.282400 0.360300 0.309200
C94 C 0.054700 0.813900 0.266760
H95 H -0.071400 0.816400 0.267500
H96 H 0.079600 0.807500 0.232100
H97 H 0.106500 0.922100 0.282400
H98 H 0.341000 -0.023000 0.434100
H99 H 0.312000 -0.062000 0.486300
H100 H 0.032000 0.646000 0.435400
H101 H 0.097000 0.507000 0.477700
N102 N 0.705400 0.731600 0.126240
O103 O 0.813800 0.733000 -0.001060
O104 O 0.871700 1.158300 0.205860
O105 O 0.979300 1.261100 0.137510
N106 N 0.836800 0.994300 0.136620
C107 C 0.851300 0.942400 0.088060
N108 N 0.692200 0.510800 0.039510
C109 C 0.770800 0.781000 0.082190
N110 N 0.938200 1.036600 0.055820
C111 C 0.903400 1.152700 0.159010
C112 C 0.759600 0.673300 0.037050
C113 C 0.746000 0.858900 0.157640
H114 H 0.717600 0.860300 0.190800
C115 C 0.945300 1.313900 0.233240
H116 H 1.071400 1.316400 0.232500
H117 H 0.920400 1.307500 0.267900
H118 H 0.893500 1.422100 0.217600
H119 H 0.659000 0.477000 0.065900
H120 H 0.688000 0.438000 0.013700
H121 H 0.968000 1.146000 0.064600
H122 H 0.903000 1.007000 0.022300
N123 N 0.705400 0.768400 0.626240
O124 O 0.813800 0.767000 0.498940
O125 O 0.871700 0.341700 0.705860
O126 O 0.979300 0.238900 0.637510
N127 N 0.836800 0.505700 0.636620
C128 C 0.851300 0.557600 0.588060
N129 N 0.692200 0.989200 0.539510
C130 C 0.770800 0.719000 0.582190
N131 N 0.938200 0.463400 0.555820
C132 C 0.903400 0.347300 0.659010
C133 C 0.759600 0.826700 0.537050
C134 C 0.746000 0.641100 0.657640
H135 H 0.717600 0.639700 0.690800
C136 C 0.945300 0.186100 0.733240
H137 H 1.071400 0.183600 0.732500
H138 H 0.920400 0.192500 0.767900
H139 H 0.893500 0.077900 0.717600
H140 H 0.659000 1.023000 0.565900
H141 H 0.688000 1.062000 0.513700
H142 H 0.968000 0.354000 0.564600
H143 H 0.903000 0.493000 0.522300
N144 N 0.294600 0.268400 0.873760
O145 O 0.186200 0.267000 1.001060
O146 O 0.128300 -0.158300 0.794140
O147 O 0.020700 -0.261100 0.862490
N148 N 0.163200 0.005700 0.863380
C149 C 0.148700 0.057600 0.911940
N150 N 0.307800 0.489200 0.960490
C151 C 0.229200 0.219000 0.917810
N152 N 0.061800 -0.036600 0.944180
C153 C 0.096600 -0.152700 0.840990
C154 C 0.240400 0.326700 0.962950
C155 C 0.254000 0.141100 0.842360
H156 H 0.282400 0.139700 0.809200
C157 C 0.054700 -0.313900 0.766760
H158 H -0.071400 -0.316400 0.767500
H159 H 0.079600 -0.307500 0.732100
H160 H 0.106500 -0.422100 0.782400
H161 H 0.341000 0.523000 0.934100
H162 H 0.312000 0.562000 0.986300
H163 H 0.032000 -0.146000 0.935400
H164 H 0.097000 -0.007000 0.977700

#END
