./ACETYL09_from_xyz.cif_generated_by_CrystalShift
_symmetry_cell_setting triclinic
_symmetry_space_group_name_H-M 'P 1'
loop_
_symmetry_equiv_pos_site_id
_symmetry_equiv_pos_as_xyz
1 x,y,z
_cell_length_a 6.235000
_cell_length_b 6.047000
_cell_length_c 5.676000
_cell_angle_alpha 90.000000
_cell_angle_beta 90.000000
_cell_angle_gamma 90.000000
_cell_volume 214.002483
loop_
_atom_site_label
_atom_site_type_symbol
_atom_site_fract_x
_atom_site_fract_y
_atom_site_fract_z
C1 C 0.059400 0.077500 0.000000
D2 D 0.170600 0.205200 0.000000
C3 C -0.059400 -0.077500 0.000000
D4 D -0.170600 -0.205200 0.000000
C5 C 0.059400 0.077500 1.000000
D6 D 0.170600 0.205200 1.000000
C7 C -0.059400 -0.077500 1.000000
D8 D -0.170600 -0.205200 1.000000
C9 C 0.059400 1.077500 0.000000
D10 D 0.170600 1.205200 0.000000
C11 C -0.059400 0.922500 0.000000
D12 D -0.170600 0.794800 0.000000
C13 C 0.059400 1.077500 1.000000
D14 D 0.170600 1.205200 1.000000
C15 C -0.059400 0.922500 1.000000
D16 D -0.170600 0.794800 1.000000
C17 C 1.059400 0.077500 0.000000
D18 D 1.170600 0.205200 0.000000
C19 C 0.940600 -0.077500 0.000000
D20 D 0.829400 -0.205200 0.000000
C21 C 1.059400 0.077500 1.000000
D22 D 1.170600 0.205200 1.000000
C23 C 0.940600 -0.077500 1.000000
D24 D 0.829400 -0.205200 1.000000
C25 C 1.059400 1.077500 0.000000
D26 D 1.170600 1.205200 0.000000
C27 C 0.940600 0.922500 0.000000
D28 D 0.829400 0.794800 0.000000
C29 C 1.059400 1.077500 1.000000
D30 D 1.170600 1.205200 1.000000
C31 C 0.940600 0.922500 1.000000
D32 D 0.829400 0.794800 1.000000
C33 C -0.059400 0.422500 0.500000
D34 D -0.170600 0.294800 0.500000
C35 C 0.059400 0.577500 0.500000
D36 D 0.170600 0.705200 0.500000
C37 C 0.940600 0.422500 0.500000
D38 D 0.829400 0.294800 0.500000
C39 C 1.059400 0.577500 0.500000
D40 D 1.170600 0.705200 0.500000
C41 C 0.559400 0.422500 0.000000
D42 D 0.670600 0.294800 0.000000
C43 C 0.440600 0.577500 0.000000
D44 D 0.329400 0.705200 0.000000
C45 C 0.559400 0.422500 1.000000
D46 D 0.670600 0.294800 1.000000
C47 C 0.440600 0.577500 1.000000
D48 D 0.329400 0.705200 1.000000
C49 C 0.559400 -0.077500 0.500000
D50 D 0.670600 -0.205200 0.500000
C51 C 0.440600 0.077500 0.500000
D52 D 0.329400 0.205200 0.500000
C53 C 0.559400 0.922500 0.500000
D54 D 0.670600 0.794800 0.500000
C55 C 0.440600 1.077500 0.500000
D56 D 0.329400 1.205200 0.500000

#END
