./LIBHEK_from_xyz.cif_generated_by_CrystalShift
_symmetry_cell_setting triclinic
_symmetry_space_group_name_H-M 'P 1'
loop_
_symmetry_equiv_pos_site_id
_symmetry_equiv_pos_as_xyz
1 x,y,z
_cell_length_a 5.563000
_cell_length_b 16.162000
_cell_length_c 25.289000
_cell_angle_alpha 90.000000
_cell_angle_beta 90.000000
_cell_angle_gamma 90.000000
_cell_volume 2273.713911
loop_
_atom_site_label
_atom_site_type_symbol
_atom_site_fract_x
_atom_site_fract_y
_atom_site_fract_z
Cl1 Cl 0.431550 0.981380 1.132210
Cl2 Cl 0.430940 0.804050 1.124470
Cl3 Cl 0.849800 0.897540 1.094490
C4 C 0.533400 0.896860 1.094970
C5 C 0.258200 0.968120 0.965770
H6 H 0.089300 0.952000 0.961800
C7 C 0.412700 0.909420 0.932500
H8 H 0.576600 0.931500 0.930800
C9 C 0.420100 0.825520 0.959270
H10 H 0.258700 0.803100 0.961800
H11 H 0.516700 0.787600 0.938500
O12 O 0.522600 0.834080 1.011780
C13 C 0.444200 0.900790 1.037960
N14 N 0.324000 0.961300 1.022240
C15 C 0.283300 1.058200 0.949690
C16 C 0.129800 1.093960 0.912100
C17 C 0.151400 1.176770 0.898690
H18 H 0.048200 1.199900 0.873800
C19 C 0.327400 1.225170 0.922490
C20 C 0.483100 1.191320 0.959140
H21 H 0.602300 1.223300 0.974800
C22 C 0.457000 1.108090 0.971930
H23 H 0.561400 1.085100 0.996600
O24 O -0.040000 1.042180 0.890970
C25 C -0.204800 1.073900 0.852820
H26 H -0.260200 1.127700 0.864600
H27 H -0.343400 1.037600 0.851400
C28 C -0.104600 1.082490 0.798420
H29 H -0.209000 1.103000 0.772900
C30 C 0.105600 1.065160 0.782930
H31 H 0.217800 1.044400 0.806700
H32 H 0.147900 1.073200 0.747700
O33 O 0.331200 1.306170 0.906750
C34 C 0.501100 1.359820 0.931420
H35 H 0.661000 1.341300 0.923500
H36 H 0.476800 1.359200 0.969000
H37 H 0.479700 1.415100 0.918400
N38 N 0.321400 0.900660 0.879230
H39 H 0.174000 0.905300 0.872700
C40 C 0.467400 0.872860 0.840110
O41 O 0.682100 0.862500 0.845230
O42 O 0.337600 0.859960 0.796200
C43 C 0.456400 0.835330 0.746270
C44 C 0.615500 0.904250 0.727210
H45 H 0.672500 0.891700 0.692300
H46 H 0.749900 0.910100 0.750700
H47 H 0.525700 0.955000 0.726400
C48 C 0.243900 0.823650 0.709290
H49 H 0.301100 0.809600 0.674600
H50 H 0.152900 0.874000 0.707500
H51 H 0.143300 0.779900 0.722300
C52 C 0.590000 0.754650 0.753480
H53 H 0.488700 0.715700 0.771500
H54 H 0.732600 0.764200 0.774000
H55 H 0.633700 0.732800 0.719500
Cl56 Cl 0.068450 0.018620 0.632210
Cl57 Cl 0.069060 0.195950 0.624470
Cl58 Cl -0.349800 0.102460 0.594490
C59 C -0.033400 0.103140 0.594970
C60 C 0.241800 0.031880 0.465770
H61 H 0.410700 0.048000 0.461800
C62 C 0.087300 0.090580 0.432500
H63 H -0.076600 0.068500 0.430800
C64 C 0.079900 0.174480 0.459270
H65 H 0.241300 0.196900 0.461800
H66 H -0.016700 0.212400 0.438500
O67 O -0.022600 0.165920 0.511780
C68 C 0.055800 0.099210 0.537960
N69 N 0.176000 0.038700 0.522240
C70 C 0.216700 -0.058200 0.449690
C71 C 0.370200 -0.093960 0.412100
C72 C 0.348600 -0.176770 0.398690
H73 H 0.451800 -0.199900 0.373800
C74 C 0.172600 -0.225170 0.422490
C75 C 0.016900 -0.191320 0.459140
H76 H -0.102300 -0.223300 0.474800
C77 C 0.043000 -0.108090 0.471930
H78 H -0.061400 -0.085100 0.496600
O79 O 0.540000 -0.042180 0.390970
C80 C 0.704800 -0.073900 0.352820
H81 H 0.760200 -0.127700 0.364600
H82 H 0.843400 -0.037600 0.351400
C83 C 0.604600 -0.082490 0.298420
H84 H 0.709000 -0.103000 0.272900
C85 C 0.394400 -0.065160 0.282930
H86 H 0.282200 -0.044400 0.306700
H87 H 0.352100 -0.073200 0.247700
O88 O 0.168800 -0.306170 0.406750
C89 C -0.001100 -0.359820 0.431420
H90 H -0.161000 -0.341300 0.423500
H91 H 0.023200 -0.359200 0.469000
H92 H 0.020300 -0.415100 0.418400
N93 N 0.178600 0.099340 0.379230
H94 H 0.326000 0.094700 0.372700
C95 C 0.032600 0.127140 0.340110
O96 O -0.182100 0.137500 0.345230
O97 O 0.162400 0.140040 0.296200
C98 C 0.043600 0.164670 0.246270
C99 C -0.115500 0.095750 0.227210
H100 H -0.172500 0.108300 0.192300
H101 H -0.249900 0.089900 0.250700
H102 H -0.025700 0.045000 0.226400
C103 C 0.256100 0.176350 0.209290
H104 H 0.198900 0.190400 0.174600
H105 H 0.347100 0.126000 0.207500
H106 H 0.356700 0.220100 0.222300
C107 C -0.090000 0.245350 0.253480
H108 H 0.011300 0.284300 0.271500
H109 H -0.232600 0.235800 0.274000
H110 H -0.133700 0.267200 0.219500
Cl111 Cl 0.931550 0.518620 -0.132210
Cl112 Cl 0.930940 0.695950 -0.124470
Cl113 Cl 1.349800 0.602460 -0.094490
C114 C 1.033400 0.603140 -0.094970
C115 C 0.758200 0.531880 0.034230
H116 H 0.589300 0.548000 0.038200
C117 C 0.912700 0.590580 0.067500
H118 H 1.076600 0.568500 0.069200
C119 C 0.920100 0.674480 0.040730
H120 H 0.758700 0.696900 0.038200
H121 H 1.016700 0.712400 0.061500
O122 O 1.022600 0.665920 -0.011780
C123 C 0.944200 0.599210 -0.037960
N124 N 0.824000 0.538700 -0.022240
C125 C 0.783300 0.441800 0.050310
C126 C 0.629800 0.406040 0.087900
C127 C 0.651400 0.323230 0.101310
H128 H 0.548200 0.300100 0.126200
C129 C 0.827400 0.274830 0.077510
C130 C 0.983100 0.308680 0.040860
H131 H 1.102300 0.276700 0.025200
C132 C 0.957000 0.391910 0.028070
H133 H 1.061400 0.414900 0.003400
O134 O 0.460000 0.457820 0.109030
C135 C 0.295200 0.426100 0.147180
H136 H 0.239800 0.372300 0.135400
H137 H 0.156600 0.462400 0.148600
C138 C 0.395400 0.417510 0.201580
H139 H 0.291000 0.397000 0.227100
C140 C 0.605600 0.434840 0.217070
H141 H 0.717800 0.455600 0.193300
H142 H 0.647900 0.426800 0.252300
O143 O 0.831200 0.193830 0.093250
C144 C 1.001100 0.140180 0.068580
H145 H 1.161000 0.158700 0.076500
H146 H 0.976800 0.140800 0.031000
H147 H 0.979700 0.084900 0.081600
N148 N 0.821400 0.599340 0.120770
H149 H 0.674000 0.594700 0.127300
C150 C 0.967400 0.627140 0.159890
O151 O 1.182100 0.637500 0.154770
O152 O 0.837600 0.640040 0.203800
C153 C 0.956400 0.664670 0.253730
C154 C 1.115500 0.595750 0.272790
H155 H 1.172500 0.608300 0.307700
H156 H 1.249900 0.589900 0.249300
H157 H 1.025700 0.545000 0.273600
C158 C 0.743900 0.676350 0.290710
H159 H 0.801100 0.690400 0.325400
H160 H 0.652900 0.626000 0.292500
H161 H 0.643300 0.720100 0.277700
C162 C 1.090000 0.745350 0.246520
H163 H 0.988700 0.784300 0.228500
H164 H 1.232600 0.735800 0.226000
H165 H 1.133700 0.767200 0.280500
Cl166 Cl 0.568450 0.481380 0.367790
Cl167 Cl 0.569060 0.304050 0.375530
Cl168 Cl 0.150200 0.397540 0.405510
C169 C 0.466600 0.396860 0.405030
C170 C 0.741800 0.468120 0.534230
H171 H 0.910700 0.452000 0.538200
C172 C 0.587300 0.409420 0.567500
H173 H 0.423400 0.431500 0.569200
C174 C 0.579900 0.325520 0.540730
H175 H 0.741300 0.303100 0.538200
H176 H 0.483300 0.287600 0.561500
O177 O 0.477400 0.334080 0.488220
C178 C 0.555800 0.400790 0.462040
N179 N 0.676000 0.461300 0.477760
C180 C 0.716700 0.558200 0.550310
C181 C 0.870200 0.593960 0.587900
C182 C 0.848600 0.676770 0.601310
H183 H 0.951800 0.699900 0.626200
C184 C 0.672600 0.725170 0.577510
C185 C 0.516900 0.691320 0.540860
H186 H 0.397700 0.723300 0.525200
C187 C 0.543000 0.608090 0.528070
H188 H 0.438600 0.585100 0.503400
O189 O 1.040000 0.542180 0.609030
C190 C 1.204800 0.573900 0.647180
H191 H 1.260200 0.627700 0.635400
H192 H 1.343400 0.537600 0.648600
C193 C 1.104600 0.582490 0.701580
H194 H 1.209000 0.603000 0.727100
C195 C 0.894400 0.565160 0.717070
H196 H 0.782200 0.544400 0.693300
H197 H 0.852100 0.573200 0.752300
O198 O 0.668800 0.806170 0.593250
C199 C 0.498900 0.859820 0.568580
H200 H 0.339000 0.841300 0.576500
H201 H 0.523200 0.859200 0.531000
H202 H 0.520300 0.915100 0.581600
N203 N 0.678600 0.400660 0.620770
H204 H 0.826000 0.405300 0.627300
C205 C 0.532600 0.372860 0.659890
O206 O 0.317900 0.362500 0.654770
O207 O 0.662400 0.359960 0.703800
C208 C 0.543600 0.335330 0.753730
C209 C 0.384500 0.404250 0.772790
H210 H 0.327500 0.391700 0.807700
H211 H 0.250100 0.410100 0.749300
H212 H 0.474300 0.455000 0.773600
C213 C 0.756100 0.323650 0.790710
H214 H 0.698900 0.309600 0.825400
H215 H 0.847100 0.374000 0.792500
H216 H 0.856700 0.279900 0.777700
C217 C 0.410000 0.254650 0.746520
H218 H 0.511300 0.215700 0.728500
H219 H 0.267400 0.264200 0.726000
H220 H 0.366300 0.232800 0.780500

#END
