./LIBJOV01_from_xyz.cif_generated_by_CrystalShift
_symmetry_cell_setting triclinic
_symmetry_space_group_name_H-M 'P 1'
loop_
_symmetry_equiv_pos_site_id
_symmetry_equiv_pos_as_xyz
1 x,y,z
_cell_length_a 11.349500
_cell_length_b 11.621100
_cell_length_c 17.311300
_cell_angle_alpha 90.000000
_cell_angle_beta 90.000000
_cell_angle_gamma 90.000000
_cell_volume 2283.250967
loop_
_atom_site_label
_atom_site_type_symbol
_atom_site_fract_x
_atom_site_fract_y
_atom_site_fract_z
N1 N 0.237530 0.197980 0.427790
C2 C 0.180610 0.104840 0.397300
N3 N 0.118020 0.152990 0.338160
C4 C 0.210980 0.298910 0.389490
H5 H 0.239800 0.373700 0.401100
C6 C 0.136210 0.270190 0.332630
H7 H 0.102300 0.320800 0.295700
C8 C 0.312620 0.192860 0.498250
C9 C 0.354000 0.070750 0.509990
H10 H 0.285700 0.020400 0.517600
H11 H 0.405000 0.067100 0.555600
H12 H 0.398200 0.045400 0.464400
C13 C 0.239520 0.230890 0.567090
H14 H 0.172000 0.179100 0.573200
H15 H 0.211200 0.309600 0.558600
H16 H 0.288100 0.228600 0.613900
C17 C 0.417220 0.273400 0.487540
H18 H 0.460200 0.252100 0.440600
H19 H 0.469800 0.267200 0.532200
H20 H 0.389000 0.352800 0.482900
C21 C 0.042840 0.082570 0.285480
C22 C 0.123890 0.008810 0.235920
H23 H 0.169500 -0.042900 0.269200
H24 H 0.177700 0.058600 0.206900
H25 H 0.076600 -0.036800 0.199800
C26 C -0.031750 0.160660 0.234710
H27 H 0.019900 0.208100 0.202400
H28 H -0.080400 0.210500 0.267300
H29 H -0.082700 0.113600 0.201700
C30 C -0.037060 0.007170 0.334430
H31 H 0.011000 -0.045400 0.365500
H32 H -0.089200 -0.037500 0.300700
H33 H -0.084600 0.055800 0.368700
N34 N 0.737530 0.197980 0.072210
C35 C 0.680610 0.104840 0.102700
N36 N 0.618020 0.152990 0.161840
C37 C 0.710980 0.298910 0.110510
H38 H 0.739800 0.373700 0.098900
C39 C 0.636210 0.270190 0.167370
H40 H 0.602300 0.320800 0.204300
C41 C 0.812620 0.192860 0.001750
C42 C 0.854000 0.070750 -0.009990
H43 H 0.785700 0.020400 -0.017600
H44 H 0.905000 0.067100 -0.055600
H45 H 0.898200 0.045400 0.035600
C46 C 0.739520 0.230890 -0.067090
H47 H 0.672000 0.179100 -0.073200
H48 H 0.711200 0.309600 -0.058600
H49 H 0.788100 0.228600 -0.113900
C50 C 0.917220 0.273400 0.012460
H51 H 0.960200 0.252100 0.059400
H52 H 0.969800 0.267200 -0.032200
H53 H 0.889000 0.352800 0.017100
C54 C 0.542840 0.082570 0.214520
C55 C 0.623890 0.008810 0.264080
H56 H 0.669500 -0.042900 0.230800
H57 H 0.677700 0.058600 0.293100
H58 H 0.576600 -0.036800 0.300200
C59 C 0.468250 0.160660 0.265290
H60 H 0.519900 0.208100 0.297600
H61 H 0.419600 0.210500 0.232700
H62 H 0.417300 0.113600 0.298300
C63 C 0.462940 0.007170 0.165570
H64 H 0.511000 -0.045400 0.134500
H65 H 0.410800 -0.037500 0.199300
H66 H 0.415400 0.055800 0.131300
N67 N 0.237530 0.302020 0.927790
C68 C 0.180610 0.395160 0.897300
N69 N 0.118020 0.347010 0.838160
C70 C 0.210980 0.201090 0.889490
H71 H 0.239800 0.126300 0.901100
C72 C 0.136210 0.229810 0.832630
H73 H 0.102300 0.179200 0.795700
C74 C 0.312620 0.307140 0.998250
C75 C 0.354000 0.429250 1.009990
H76 H 0.285700 0.479600 1.017600
H77 H 0.405000 0.432900 1.055600
H78 H 0.398200 0.454600 0.964400
C79 C 0.239520 0.269110 1.067090
H80 H 0.172000 0.320900 1.073200
H81 H 0.211200 0.190400 1.058600
H82 H 0.288100 0.271400 1.113900
C83 C 0.417220 0.226600 0.987540
H84 H 0.460200 0.247900 0.940600
H85 H 0.469800 0.232800 1.032200
H86 H 0.389000 0.147200 0.982900
C87 C 0.042840 0.417430 0.785480
C88 C 0.123890 0.491190 0.735920
H89 H 0.169500 0.542900 0.769200
H90 H 0.177700 0.441400 0.706900
H91 H 0.076600 0.536800 0.699800
C92 C -0.031750 0.339340 0.734710
H93 H 0.019900 0.291900 0.702400
H94 H -0.080400 0.289500 0.767300
H95 H -0.082700 0.386400 0.701700
C96 C -0.037060 0.492830 0.834430
H97 H 0.011000 0.545400 0.865500
H98 H -0.089200 0.537500 0.800700
H99 H -0.084600 0.444200 0.868700
N100 N 0.262470 0.697980 0.427790
C101 C 0.319390 0.604840 0.397300
N102 N 0.381980 0.652990 0.338160
C103 C 0.289020 0.798910 0.389490
H104 H 0.260200 0.873700 0.401100
C105 C 0.363790 0.770190 0.332630
H106 H 0.397700 0.820800 0.295700
C107 C 0.187380 0.692860 0.498250
C108 C 0.146000 0.570750 0.509990
H109 H 0.214300 0.520400 0.517600
H110 H 0.095000 0.567100 0.555600
H111 H 0.101800 0.545400 0.464400
C112 C 0.260480 0.730890 0.567090
H113 H 0.328000 0.679100 0.573200
H114 H 0.288800 0.809600 0.558600
H115 H 0.211900 0.728600 0.613900
C116 C 0.082780 0.773400 0.487540
H117 H 0.039800 0.752100 0.440600
H118 H 0.030200 0.767200 0.532200
H119 H 0.111000 0.852800 0.482900
C120 C 0.457160 0.582570 0.285480
C121 C 0.376110 0.508810 0.235920
H122 H 0.330500 0.457100 0.269200
H123 H 0.322300 0.558600 0.206900
H124 H 0.423400 0.463200 0.199800
C125 C 0.531750 0.660660 0.234710
H126 H 0.480100 0.708100 0.202400
H127 H 0.580400 0.710500 0.267300
H128 H 0.582700 0.613600 0.201700
C129 C 0.537060 0.507170 0.334430
H130 H 0.489000 0.454600 0.365500
H131 H 0.589200 0.462500 0.300700
H132 H 0.584600 0.555800 0.368700
N133 N 0.762470 0.802020 0.572210
C134 C 0.819390 0.895160 0.602700
N135 N 0.881980 0.847010 0.661840
C136 C 0.789020 0.701090 0.610510
H137 H 0.760200 0.626300 0.598900
C138 C 0.863790 0.729810 0.667370
H139 H 0.897700 0.679200 0.704300
C140 C 0.687380 0.807140 0.501750
C141 C 0.646000 0.929250 0.490010
H142 H 0.714300 0.979600 0.482400
H143 H 0.595000 0.932900 0.444400
H144 H 0.601800 0.954600 0.535600
C145 C 0.760480 0.769110 0.432910
H146 H 0.828000 0.820900 0.426800
H147 H 0.788800 0.690400 0.441400
H148 H 0.711900 0.771400 0.386100
C149 C 0.582780 0.726600 0.512460
H150 H 0.539800 0.747900 0.559400
H151 H 0.530200 0.732800 0.467800
H152 H 0.611000 0.647200 0.517100
C153 C 0.957160 0.917430 0.714520
C154 C 0.876110 0.991190 0.764080
H155 H 0.830500 1.042900 0.730800
H156 H 0.822300 0.941400 0.793100
H157 H 0.923400 1.036800 0.800200
C158 C 1.031750 0.839340 0.765290
H159 H 0.980100 0.791900 0.797600
H160 H 1.080400 0.789500 0.732700
H161 H 1.082700 0.886400 0.798300
C162 C 1.037060 0.992830 0.665570
H163 H 0.989000 1.045400 0.634500
H164 H 1.089200 1.037500 0.699300
H165 H 1.084600 0.944200 0.631300
N166 N 0.262470 0.802020 0.927790
C167 C 0.319390 0.895160 0.897300
N168 N 0.381980 0.847010 0.838160
C169 C 0.289020 0.701090 0.889490
H170 H 0.260200 0.626300 0.901100
C171 C 0.363790 0.729810 0.832630
H172 H 0.397700 0.679200 0.795700
C173 C 0.187380 0.807140 0.998250
C174 C 0.146000 0.929250 1.009990
H175 H 0.214300 0.979600 1.017600
H176 H 0.095000 0.932900 1.055600
H177 H 0.101800 0.954600 0.964400
C178 C 0.260480 0.769110 1.067090
H179 H 0.328000 0.820900 1.073200
H180 H 0.288800 0.690400 1.058600
H181 H 0.211900 0.771400 1.113900
C182 C 0.082780 0.726600 0.987540
H183 H 0.039800 0.747900 0.940600
H184 H 0.030200 0.732800 1.032200
H185 H 0.111000 0.647200 0.982900
C186 C 0.457160 0.917430 0.785480
C187 C 0.376110 0.991190 0.735920
H188 H 0.330500 1.042900 0.769200
H189 H 0.322300 0.941400 0.706900
H190 H 0.423400 1.036800 0.699800
C191 C 0.531750 0.839340 0.734710
H192 H 0.480100 0.791900 0.702400
H193 H 0.580400 0.789500 0.767300
H194 H 0.582700 0.886400 0.701700
C195 C 0.537060 0.992830 0.834430
H196 H 0.489000 1.045400 0.865500
H197 H 0.589200 1.037500 0.800700
H198 H 0.584600 0.944200 0.868700
N199 N 0.762470 0.697980 0.072210
C200 C 0.819390 0.604840 0.102700
N201 N 0.881980 0.652990 0.161840
C202 C 0.789020 0.798910 0.110510
H203 H 0.760200 0.873700 0.098900
C204 C 0.863790 0.770190 0.167370
H205 H 0.897700 0.820800 0.204300
C206 C 0.687380 0.692860 0.001750
C207 C 0.646000 0.570750 -0.009990
H208 H 0.714300 0.520400 -0.017600
H209 H 0.595000 0.567100 -0.055600
H210 H 0.601800 0.545400 0.035600
C211 C 0.760480 0.730890 -0.067090
H212 H 0.828000 0.679100 -0.073200
H213 H 0.788800 0.809600 -0.058600
H214 H 0.711900 0.728600 -0.113900
C215 C 0.582780 0.773400 0.012460
H216 H 0.539800 0.752100 0.059400
H217 H 0.530200 0.767200 -0.032200
H218 H 0.611000 0.852800 0.017100
C219 C 0.957160 0.582570 0.214520
C220 C 0.876110 0.508810 0.264080
H221 H 0.830500 0.457100 0.230800
H222 H 0.822300 0.558600 0.293100
H223 H 0.923400 0.463200 0.300200
C224 C 1.031750 0.660660 0.265290
H225 H 0.980100 0.708100 0.297600
H226 H 1.080400 0.710500 0.232700
H227 H 1.082700 0.613600 0.298300
C228 C 1.037060 0.507170 0.165570
H229 H 0.989000 0.454600 0.134500
H230 H 1.089200 0.462500 0.199300
H231 H 1.084600 0.555800 0.131300
N232 N 0.737530 0.302020 0.572210
C233 C 0.680610 0.395160 0.602700
N234 N 0.618020 0.347010 0.661840
C235 C 0.710980 0.201090 0.610510
H236 H 0.739800 0.126300 0.598900
C237 C 0.636210 0.229810 0.667370
H238 H 0.602300 0.179200 0.704300
C239 C 0.812620 0.307140 0.501750
C240 C 0.854000 0.429250 0.490010
H241 H 0.785700 0.479600 0.482400
H242 H 0.905000 0.432900 0.444400
H243 H 0.898200 0.454600 0.535600
C244 C 0.739520 0.269110 0.432910
H245 H 0.672000 0.320900 0.426800
H246 H 0.711200 0.190400 0.441400
H247 H 0.788100 0.271400 0.386100
C248 C 0.917220 0.226600 0.512460
H249 H 0.960200 0.247900 0.559400
H250 H 0.969800 0.232800 0.467800
H251 H 0.889000 0.147200 0.517100
C252 C 0.542840 0.417430 0.714520
C253 C 0.623890 0.491190 0.764080
H254 H 0.669500 0.542900 0.730800
H255 H 0.677700 0.441400 0.793100
H256 H 0.576600 0.536800 0.800200
C257 C 0.468250 0.339340 0.765290
H258 H 0.519900 0.291900 0.797600
H259 H 0.419600 0.289500 0.732700
H260 H 0.417300 0.386400 0.798300
C261 C 0.462940 0.492830 0.665570
H262 H 0.511000 0.545400 0.634500
H263 H 0.410800 0.537500 0.699300
H264 H 0.415400 0.444200 0.631300

#END
