./LIBJOV_from_xyz.cif_generated_by_CrystalShift
_symmetry_cell_setting triclinic
_symmetry_space_group_name_H-M 'P 1'
loop_
_symmetry_equiv_pos_site_id
_symmetry_equiv_pos_as_xyz
1 x,y,z
_cell_length_a 11.628000
_cell_length_b 17.314000
_cell_length_c 11.354000
_cell_angle_alpha 90.000000
_cell_angle_beta 90.000000
_cell_angle_gamma 90.000000
_cell_volume 2285.868938
loop_
_atom_site_label
_atom_site_type_symbol
_atom_site_fract_x
_atom_site_fract_y
_atom_site_fract_z
N1 N 0.153200 0.338400 0.117300
N2 N 0.197300 0.427500 0.237100
C3 C 0.104800 0.397200 0.180700
C4 C 0.298900 0.389800 0.211000
C5 C 0.270900 0.332500 0.136700
C6 C 0.082500 0.285700 0.043700
C7 C 0.160400 0.234700 -0.031100
C8 C 0.009900 0.236100 0.123600
C9 C 0.006700 0.333700 -0.036500
C10 C 0.192300 0.498500 0.312300
C11 C 0.232100 0.567500 0.239700
C12 C 0.274300 0.487900 0.416200
C13 C 0.070600 0.510700 0.354000
H14 H 0.373500 0.400400 0.242000
H15 H 0.320000 0.294600 0.102700
H16 H 0.121400 0.200900 -0.083500
H17 H 0.213500 0.205500 0.014600
H18 H 0.207000 0.265800 -0.080800
H19 H -0.037600 0.202500 0.078400
H20 H -0.041500 0.266700 0.168800
H21 H 0.055600 0.204900 0.173800
H22 H -0.036300 0.301800 -0.088100
H23 H 0.054300 0.365300 -0.084800
H24 H -0.044100 0.365600 0.007200
H25 H 0.176700 0.576500 0.179600
H26 H 0.305700 0.557000 0.207000
H27 H 0.236500 0.611700 0.288700
H28 H 0.275400 0.530100 0.469700
H29 H 0.351400 0.478800 0.392000
H30 H 0.253800 0.444100 0.462100
H31 H 0.063100 0.553400 0.405900
H32 H 0.045800 0.468500 0.401400
H33 H 0.016000 0.516300 0.292300
N34 N 0.346800 0.661600 0.617300
N35 N 0.302700 0.572500 0.737100
C36 C 0.395200 0.602800 0.680700
C37 C 0.201100 0.610200 0.711000
C38 C 0.229100 0.667500 0.636700
C39 C 0.417500 0.714300 0.543700
C40 C 0.339600 0.765300 0.468900
C41 C 0.490100 0.763900 0.623600
C42 C 0.493300 0.666300 0.463500
C43 C 0.307700 0.501500 0.812300
C44 C 0.267900 0.432500 0.739700
C45 C 0.225700 0.512100 0.916200
C46 C 0.429400 0.489300 0.854000
H47 H 0.126500 0.599600 0.742000
H48 H 0.180000 0.705400 0.602700
H49 H 0.378600 0.799100 0.416500
H50 H 0.286500 0.794500 0.514600
H51 H 0.293000 0.734200 0.419200
H52 H 0.537600 0.797500 0.578400
H53 H 0.541500 0.733300 0.668800
H54 H 0.444400 0.795100 0.673800
H55 H 0.536300 0.698200 0.411900
H56 H 0.445700 0.634700 0.415200
H57 H 0.544100 0.634400 0.507200
H58 H 0.323300 0.423500 0.679600
H59 H 0.194300 0.443000 0.707000
H60 H 0.263500 0.388300 0.788700
H61 H 0.224600 0.469900 0.969700
H62 H 0.148600 0.521200 0.892000
H63 H 0.246200 0.555900 0.962100
H64 H 0.436900 0.446600 0.905900
H65 H 0.454200 0.531500 0.901400
H66 H 0.484000 0.483700 0.792300
N67 N 0.653200 0.161600 0.882700
N68 N 0.697300 0.072500 0.762900
C69 C 0.604800 0.102800 0.819300
C70 C 0.798900 0.110200 0.789000
C71 C 0.770900 0.167500 0.863300
C72 C 0.582500 0.214300 0.956300
C73 C 0.660400 0.265300 1.031100
C74 C 0.509900 0.263900 0.876400
C75 C 0.506700 0.166300 1.036500
C76 C 0.692300 0.001500 0.687700
C77 C 0.732100 -0.067500 0.760300
C78 C 0.774300 0.012100 0.583800
C79 C 0.570600 -0.010700 0.646000
H80 H 0.873500 0.099600 0.758000
H81 H 0.820000 0.205400 0.897300
H82 H 0.621400 0.299100 1.083500
H83 H 0.713500 0.294500 0.985400
H84 H 0.707000 0.234200 1.080800
H85 H 0.462400 0.297500 0.921600
H86 H 0.458500 0.233300 0.831200
H87 H 0.555600 0.295100 0.826200
H88 H 0.463700 0.198200 1.088100
H89 H 0.554300 0.134700 1.084800
H90 H 0.455900 0.134400 0.992800
H91 H 0.676700 -0.076500 0.820400
H92 H 0.805700 -0.057000 0.793000
H93 H 0.736500 -0.111700 0.711300
H94 H 0.775400 -0.030100 0.530300
H95 H 0.851400 0.021200 0.608000
H96 H 0.753800 0.055900 0.537900
H97 H 0.563100 -0.053400 0.594100
H98 H 0.545800 0.031500 0.598600
H99 H 0.516000 -0.016300 0.707700
N100 N 0.846800 0.838400 0.382700
N101 N 0.802700 0.927500 0.262900
C102 C 0.895200 0.897200 0.319300
C103 C 0.701100 0.889800 0.289000
C104 C 0.729100 0.832500 0.363300
C105 C 0.917500 0.785700 0.456300
C106 C 0.839600 0.734700 0.531100
C107 C 0.990100 0.736100 0.376400
C108 C 0.993300 0.833700 0.536500
C109 C 0.807700 0.998500 0.187700
C110 C 0.767900 1.067500 0.260300
C111 C 0.725700 0.987900 0.083800
C112 C 0.929400 1.010700 0.146000
H113 H 0.626500 0.900400 0.258000
H114 H 0.680000 0.794600 0.397300
H115 H 0.878600 0.700900 0.583500
H116 H 0.786500 0.705500 0.485400
H117 H 0.793000 0.765800 0.580800
H118 H 1.037600 0.702500 0.421600
H119 H 1.041500 0.766700 0.331200
H120 H 0.944400 0.704900 0.326200
H121 H 1.036300 0.801800 0.588100
H122 H 0.945700 0.865300 0.584800
H123 H 1.044100 0.865600 0.492800
H124 H 0.823300 1.076500 0.320400
H125 H 0.694300 1.057000 0.293000
H126 H 0.763500 1.111700 0.211300
H127 H 0.724600 1.030100 0.030300
H128 H 0.648600 0.978800 0.108000
H129 H 0.746200 0.944100 0.037900
H130 H 0.936900 1.053400 0.094100
H131 H 0.954200 0.968500 0.098600
H132 H 0.984000 1.016300 0.207700
N133 N 0.846800 0.661600 0.882700
N134 N 0.802700 0.572500 0.762900
C135 C 0.895200 0.602800 0.819300
C136 C 0.701100 0.610200 0.789000
C137 C 0.729100 0.667500 0.863300
C138 C 0.917500 0.714300 0.956300
C139 C 0.839600 0.765300 1.031100
C140 C 0.990100 0.763900 0.876400
C141 C 0.993300 0.666300 1.036500
C142 C 0.807700 0.501500 0.687700
C143 C 0.767900 0.432500 0.760300
C144 C 0.725700 0.512100 0.583800
C145 C 0.929400 0.489300 0.646000
H146 H 0.626500 0.599600 0.758000
H147 H 0.680000 0.705400 0.897300
H148 H 0.878600 0.799100 1.083500
H149 H 0.786500 0.794500 0.985400
H150 H 0.793000 0.734200 1.080800
H151 H 1.037600 0.797500 0.921600
H152 H 1.041500 0.733300 0.831200
H153 H 0.944400 0.795100 0.826200
H154 H 1.036300 0.698200 1.088100
H155 H 0.945700 0.634700 1.084800
H156 H 1.044100 0.634400 0.992800
H157 H 0.823300 0.423500 0.820400
H158 H 0.694300 0.443000 0.793000
H159 H 0.763500 0.388300 0.711300
H160 H 0.724600 0.469900 0.530300
H161 H 0.648600 0.521200 0.608000
H162 H 0.746200 0.555900 0.537900
H163 H 0.936900 0.446600 0.594100
H164 H 0.954200 0.531500 0.598600
H165 H 0.984000 0.483700 0.707700
N166 N 0.653200 0.338400 0.382700
N167 N 0.697300 0.427500 0.262900
C168 C 0.604800 0.397200 0.319300
C169 C 0.798900 0.389800 0.289000
C170 C 0.770900 0.332500 0.363300
C171 C 0.582500 0.285700 0.456300
C172 C 0.660400 0.234700 0.531100
C173 C 0.509900 0.236100 0.376400
C174 C 0.506700 0.333700 0.536500
C175 C 0.692300 0.498500 0.187700
C176 C 0.732100 0.567500 0.260300
C177 C 0.774300 0.487900 0.083800
C178 C 0.570600 0.510700 0.146000
H179 H 0.873500 0.400400 0.258000
H180 H 0.820000 0.294600 0.397300
H181 H 0.621400 0.200900 0.583500
H182 H 0.713500 0.205500 0.485400
H183 H 0.707000 0.265800 0.580800
H184 H 0.462400 0.202500 0.421600
H185 H 0.458500 0.266700 0.331200
H186 H 0.555600 0.204900 0.326200
H187 H 0.463700 0.301800 0.588100
H188 H 0.554300 0.365300 0.584800
H189 H 0.455900 0.365600 0.492800
H190 H 0.676700 0.576500 0.320400
H191 H 0.805700 0.557000 0.293000
H192 H 0.736500 0.611700 0.211300
H193 H 0.775400 0.530100 0.030300
H194 H 0.851400 0.478800 0.108000
H195 H 0.753800 0.444100 0.037900
H196 H 0.563100 0.553400 0.094100
H197 H 0.545800 0.468500 0.098600
H198 H 0.516000 0.516300 0.207700
N199 N 0.346800 0.838400 0.117300
N200 N 0.302700 0.927500 0.237100
C201 C 0.395200 0.897200 0.180700
C202 C 0.201100 0.889800 0.211000
C203 C 0.229100 0.832500 0.136700
C204 C 0.417500 0.785700 0.043700
C205 C 0.339600 0.734700 -0.031100
C206 C 0.490100 0.736100 0.123600
C207 C 0.493300 0.833700 -0.036500
C208 C 0.307700 0.998500 0.312300
C209 C 0.267900 1.067500 0.239700
C210 C 0.225700 0.987900 0.416200
C211 C 0.429400 1.010700 0.354000
H212 H 0.126500 0.900400 0.242000
H213 H 0.180000 0.794600 0.102700
H214 H 0.378600 0.700900 -0.083500
H215 H 0.286500 0.705500 0.014600
H216 H 0.293000 0.765800 -0.080800
H217 H 0.537600 0.702500 0.078400
H218 H 0.541500 0.766700 0.168800
H219 H 0.444400 0.704900 0.173800
H220 H 0.536300 0.801800 -0.088100
H221 H 0.445700 0.865300 -0.084800
H222 H 0.544100 0.865600 0.007200
H223 H 0.323300 1.076500 0.179600
H224 H 0.194300 1.057000 0.207000
H225 H 0.263500 1.111700 0.288700
H226 H 0.224600 1.030100 0.469700
H227 H 0.148600 0.978800 0.392000
H228 H 0.246200 0.944100 0.462100
H229 H 0.436900 1.053400 0.405900
H230 H 0.454200 0.968500 0.401400
H231 H 0.484000 1.016300 0.292300
N232 N 0.153200 0.161600 0.617300
N233 N 0.197300 0.072500 0.737100
C234 C 0.104800 0.102800 0.680700
C235 C 0.298900 0.110200 0.711000
C236 C 0.270900 0.167500 0.636700
C237 C 0.082500 0.214300 0.543700
C238 C 0.160400 0.265300 0.468900
C239 C 0.009900 0.263900 0.623600
C240 C 0.006700 0.166300 0.463500
C241 C 0.192300 0.001500 0.812300
C242 C 0.232100 -0.067500 0.739700
C243 C 0.274300 0.012100 0.916200
C244 C 0.070600 -0.010700 0.854000
H245 H 0.373500 0.099600 0.742000
H246 H 0.320000 0.205400 0.602700
H247 H 0.121400 0.299100 0.416500
H248 H 0.213500 0.294500 0.514600
H249 H 0.207000 0.234200 0.419200
H250 H -0.037600 0.297500 0.578400
H251 H -0.041500 0.233300 0.668800
H252 H 0.055600 0.295100 0.673800
H253 H -0.036300 0.198200 0.411900
H254 H 0.054300 0.134700 0.415200
H255 H -0.044100 0.134400 0.507200
H256 H 0.176700 -0.076500 0.679600
H257 H 0.305700 -0.057000 0.707000
H258 H 0.236500 -0.111700 0.788700
H259 H 0.275400 -0.030100 0.969700
H260 H 0.351400 0.021200 0.892000
H261 H 0.253800 0.055900 0.962100
H262 H 0.063100 -0.053400 0.905900
H263 H 0.045800 0.031500 0.901400
H264 H 0.016000 -0.016300 0.792300

#END
