./LIBNUH_from_xyz.cif_generated_by_CrystalShift
_symmetry_cell_setting triclinic
_symmetry_space_group_name_H-M 'P 1'
loop_
_symmetry_equiv_pos_site_id
_symmetry_equiv_pos_as_xyz
1 x,y,z
_cell_length_a 11.484200
_cell_length_b 9.777100
_cell_length_c 13.149800
_cell_angle_alpha 90.000000
_cell_angle_beta 99.988000
_cell_angle_gamma 90.000000
_cell_volume 1454.110603
loop_
_atom_site_label
_atom_site_type_symbol
_atom_site_fract_x
_atom_site_fract_y
_atom_site_fract_z
N1 N 1.138400 0.732300 0.352100
O2 O 0.648200 0.438100 0.335400
O3 O 0.538600 0.076000 0.262500
O4 O 0.920600 0.791100 0.323100
N5 N 0.720600 0.198300 0.384300
C6 C 0.584300 0.008500 0.350500
C7 C 0.967700 0.427800 0.371300
C8 C 0.538200 -0.113800 0.380300
C9 C 1.216700 0.508800 0.377400
C10 C 0.727700 0.006300 0.507100
C11 C 0.831100 0.238200 0.385800
C12 C 0.931600 0.136200 0.407700
C13 C 0.681400 0.067900 0.414300
C14 C 0.585100 -0.176800 0.471300
C15 C 0.852300 0.380100 0.366600
C16 C 0.755700 0.477600 0.343200
C17 C 0.533200 -0.307600 0.503800
C18 C 0.995100 0.563400 0.357400
C19 C 1.116900 0.612100 0.361800
C20 C 0.898000 0.658400 0.335900
C21 C 0.681500 -0.115200 0.536100
C22 C 0.784900 0.616600 0.331200
H23 H 1.032539 0.364777 0.385948
H24 H 0.472639 -0.156329 0.336502
H25 H 1.184941 0.418918 0.383720
H26 H 1.272000 0.530233 0.438815
H27 H 1.256166 0.511411 0.318811
H28 H 0.792928 0.048170 0.551832
H29 H 1.005118 0.181977 0.405917
H30 H 0.920296 0.065036 0.356588
H31 H 0.933009 0.096989 0.474826
H32 H 0.716025 -0.158251 0.599871
H33 H 0.723157 0.683792 0.318487
H34 H 1.155616 0.827496 0.344598
H35 H 0.936140 0.886359 0.313850
H36 H 0.506161 0.123722 0.200277
H37 H 0.576820 -0.336659 0.569252
H38 H 0.537303 -0.377191 0.453042
H39 H 0.452151 -0.292398 0.509958
H40 H 0.567520 0.408668 0.329516
N41 N -0.138400 1.232300 0.147900
O42 O 0.351800 0.938100 0.164600
O43 O 0.461400 0.576000 0.237500
O44 O 0.079400 1.291100 0.176900
N45 N 0.279400 0.698300 0.115700
C46 C 0.415700 0.508500 0.149500
C47 C 0.032300 0.927800 0.128700
C48 C 0.461800 0.386200 0.119700
C49 C -0.216700 1.008800 0.122600
C50 C 0.272300 0.506300 -0.007100
C51 C 0.168900 0.738200 0.114200
C52 C 0.068400 0.636200 0.092300
C53 C 0.318600 0.567900 0.085700
C54 C 0.414900 0.323200 0.028700
C55 C 0.147700 0.880100 0.133400
C56 C 0.244300 0.977600 0.156800
C57 C 0.466800 0.192400 -0.003800
C58 C 0.004900 1.063400 0.142600
C59 C -0.116900 1.112100 0.138200
C60 C 0.102000 1.158400 0.164100
C61 C 0.318500 0.384800 -0.036100
C62 C 0.215100 1.116600 0.168800
H63 H -0.032539 0.864777 0.114052
H64 H 0.527361 0.343671 0.163498
H65 H -0.184941 0.918918 0.116280
H66 H -0.272000 1.030233 0.061185
H67 H -0.256166 1.011411 0.181189
H68 H 0.207072 0.548170 -0.051832
H69 H -0.005118 0.681977 0.094083
H70 H 0.079704 0.565036 0.143412
H71 H 0.066991 0.596989 0.025174
H72 H 0.283975 0.341749 -0.099871
H73 H 0.276843 1.183792 0.181513
H74 H -0.155616 1.327496 0.155402
H75 H 0.063860 1.386359 0.186150
H76 H 0.493839 0.623722 0.299723
H77 H 0.423180 0.163341 -0.069252
H78 H 0.462697 0.122809 0.046958
H79 H 0.547849 0.207602 -0.009958
H80 H 0.432480 0.908668 0.170484
N81 N -0.138400 0.267700 0.647900
O82 O 0.351800 0.561900 0.664600
O83 O 0.461400 0.924000 0.737500
O84 O 0.079400 0.208900 0.676900
N85 N 0.279400 0.801700 0.615700
C86 C 0.415700 0.991500 0.649500
C87 C 0.032300 0.572200 0.628700
C88 C 0.461800 1.113800 0.619700
C89 C -0.216700 0.491200 0.622600
C90 C 0.272300 0.993700 0.492900
C91 C 0.168900 0.761800 0.614200
C92 C 0.068400 0.863800 0.592300
C93 C 0.318600 0.932100 0.585700
C94 C 0.414900 1.176800 0.528700
C95 C 0.147700 0.619900 0.633400
C96 C 0.244300 0.522400 0.656800
C97 C 0.466800 1.307600 0.496200
C98 C 0.004900 0.436600 0.642600
C99 C -0.116900 0.387900 0.638200
C100 C 0.102000 0.341600 0.664100
C101 C 0.318500 1.115200 0.463900
C102 C 0.215100 0.383400 0.668800
H103 H -0.032539 0.635223 0.614052
H104 H 0.527361 1.156329 0.663498
H105 H -0.184941 0.581082 0.616280
H106 H -0.272000 0.469767 0.561185
H107 H -0.256166 0.488589 0.681189
H108 H 0.207072 0.951830 0.448168
H109 H -0.005118 0.818023 0.594083
H110 H 0.079704 0.934964 0.643412
H111 H 0.066991 0.903011 0.525174
H112 H 0.283975 1.158251 0.400129
H113 H 0.276843 0.316208 0.681513
H114 H -0.155616 0.172504 0.655402
H115 H 0.063860 0.113641 0.686150
H116 H 0.493839 0.876278 0.799723
H117 H 0.423180 1.336659 0.430748
H118 H 0.462697 1.377191 0.546958
H119 H 0.547849 1.292398 0.490042
H120 H 0.432480 0.591332 0.670484
N121 N 1.138400 -0.232300 0.852100
O122 O 0.648200 0.061900 0.835400
O123 O 0.538600 0.424000 0.762500
O124 O 0.920600 -0.291100 0.823100
N125 N 0.720600 0.301700 0.884300
C126 C 0.584300 0.491500 0.850500
C127 C 0.967700 0.072200 0.871300
C128 C 0.538200 0.613800 0.880300
C129 C 1.216700 -0.008800 0.877400
C130 C 0.727700 0.493700 1.007100
C131 C 0.831100 0.261800 0.885800
C132 C 0.931600 0.363800 0.907700
C133 C 0.681400 0.432100 0.914300
C134 C 0.585100 0.676800 0.971300
C135 C 0.852300 0.119900 0.866600
C136 C 0.755700 0.022400 0.843200
C137 C 0.533200 0.807600 1.003800
C138 C 0.995100 -0.063400 0.857400
C139 C 1.116900 -0.112100 0.861800
C140 C 0.898000 -0.158400 0.835900
C141 C 0.681500 0.615200 1.036100
C142 C 0.784900 -0.116600 0.831200
H143 H 1.032539 0.135223 0.885948
H144 H 0.472639 0.656329 0.836502
H145 H 1.184941 0.081082 0.883720
H146 H 1.272000 -0.030233 0.938815
H147 H 1.256166 -0.011411 0.818811
H148 H 0.792928 0.451830 1.051832
H149 H 1.005118 0.318023 0.905917
H150 H 0.920296 0.434964 0.856588
H151 H 0.933009 0.403011 0.974826
H152 H 0.716025 0.658251 1.099871
H153 H 0.723157 -0.183792 0.818487
H154 H 1.155616 -0.327496 0.844598
H155 H 0.936140 -0.386359 0.813850
H156 H 0.506161 0.376278 0.700277
H157 H 0.576820 0.836659 1.069252
H158 H 0.537303 0.877191 0.953042
H159 H 0.452151 0.792398 1.009958
H160 H 0.567520 0.091332 0.829516

#END
