./LIBNUF_from_xyz.cif_generated_by_CrystalShift
_symmetry_cell_setting triclinic
_symmetry_space_group_name_H-M 'P 1'
loop_
_symmetry_equiv_pos_site_id
_symmetry_equiv_pos_as_xyz
1 x,y,z
_cell_length_a 10.315000
_cell_length_b 10.561000
_cell_length_c 9.549000
_cell_angle_alpha 105.260000
_cell_angle_beta 103.870000
_cell_angle_gamma 63.120000
_cell_volume 886.277700
loop_
_atom_site_label
_atom_site_type_symbol
_atom_site_fract_x
_atom_site_fract_y
_atom_site_fract_z
V1 V 0.404560 0.096950 0.069460
N2 N 0.605500 0.029400 0.106200
C3 C 0.415400 -0.109800 0.248100
C4 C 0.547300 -0.163400 0.341500
C5 C 0.613400 -0.306900 0.355100
C6 C 0.552200 -0.401400 0.276400
C7 C 0.423500 -0.350500 0.181800
C8 C 0.356000 -0.207200 0.168400
C9 C 0.344200 0.042800 0.230800
C10 C 0.208800 0.340700 0.083100
C11 C 0.176100 0.395200 0.227500
C12 C 0.043800 0.411500 0.260300
C13 C -0.050900 0.370900 0.148000
C14 C -0.020900 0.319300 0.010800
C15 C 0.107200 0.303200 -0.022700
C16 C 0.352100 0.304900 0.048100
C17 C 0.705900 0.072900 0.211500
C18 C 0.842300 0.042900 0.179000
C19 C 0.940100 0.086800 0.283100
C20 C 0.906600 0.162000 0.421300
C21 C 0.770400 0.193700 0.452600
C22 C 0.670400 0.150300 0.350000
C23 C 1.017300 0.204800 0.533900
H24 H 0.593100 -0.094900 0.397600
H25 H 0.701400 -0.339200 0.421000
H26 H 0.595300 -0.499200 0.281300
H27 H 0.385700 -0.423900 0.121300
H28 H 0.264000 -0.171700 0.096900
H29 H 0.244100 0.074200 0.203700
H30 H 0.361800 0.105200 0.316100
H31 H 0.233000 0.426700 0.298300
H32 H 0.014600 0.447300 0.347500
H33 H -0.139000 0.380200 0.163900
H34 H -0.079800 0.278000 -0.082700
H35 H 0.136800 0.262800 -0.135400
H36 H 0.343100 0.299900 -0.061600
H37 H 0.412300 0.348500 0.115500
H38 H 0.867500 -0.007800 0.081800
H39 H 1.033300 0.061500 0.252900
H40 H 0.740100 0.247500 0.547100
H41 H 0.582300 0.168100 0.378800
H42 H 0.966500 0.278600 0.615000
H43 H 1.052600 0.249000 0.503100
H44 H 1.090700 0.124400 0.590400
V45 V 0.595440 -0.096950 -0.069460
N46 N 0.394500 -0.029400 -0.106200
C47 C 0.655800 -0.042800 -0.230800
C48 C 0.791200 -0.340700 -0.083100
C49 C 0.647900 -0.304900 -0.048100
C50 C 0.294100 -0.072900 -0.211500
C51 C 0.584600 0.109800 -0.248100
H52 H 0.755900 -0.074200 -0.203700
H53 H 0.638200 -0.105200 -0.316100
C54 C 0.823900 -0.395200 -0.227500
C55 C 0.892800 -0.303200 0.022700
H56 H 0.656900 -0.299900 0.061600
H57 H 0.587700 -0.348500 -0.115500
C58 C 0.157700 -0.042900 -0.179000
C59 C 0.329600 -0.150300 -0.350000
C60 C 0.452700 0.163400 -0.341500
C61 C 0.644000 0.207200 -0.168400
C62 C 0.956200 -0.411500 -0.260300
H63 H 0.767000 -0.426700 -0.298300
C64 C 1.020900 -0.319300 -0.010800
H65 H 0.863200 -0.262800 0.135400
C66 C 0.059900 -0.086800 -0.283100
H67 H 0.132500 0.007800 -0.081800
C68 C 0.229600 -0.193700 -0.452600
H69 H 0.417700 -0.168100 -0.378800
C70 C 0.386600 0.306900 -0.355100
H71 H 0.406900 0.094900 -0.397600
C72 C 0.576500 0.350500 -0.181800
H73 H 0.736000 0.171700 -0.096900
C74 C 1.050900 -0.370900 -0.148000
H75 H 0.985400 -0.447300 -0.347500
H76 H 1.079800 -0.278000 0.082700
C77 C 0.093400 -0.162000 -0.421300
H78 H -0.033300 -0.061500 -0.252900
H79 H 0.259900 -0.247500 -0.547100
C80 C 0.447800 0.401400 -0.276400
H81 H 0.298600 0.339200 -0.421000
H82 H 0.614300 0.423900 -0.121300
H83 H 1.139000 -0.380200 -0.163900
C84 C -0.017300 -0.204800 -0.533900
H85 H 0.404700 0.499200 -0.281300
H86 H 0.033500 -0.278600 -0.615000
H87 H -0.052600 -0.249000 -0.503100
H88 H -0.090700 -0.124400 -0.590400
V89 V 0.404560 0.096950 1.069460
N90 N 0.605500 0.029400 1.106200
C91 C 0.415400 -0.109800 1.248100
C92 C 0.547300 -0.163400 1.341500
C93 C 0.613400 -0.306900 1.355100
C94 C 0.552200 -0.401400 1.276400
C95 C 0.423500 -0.350500 1.181800
C96 C 0.356000 -0.207200 1.168400
C97 C 0.344200 0.042800 1.230800
C98 C 0.208800 0.340700 1.083100
C99 C 0.176100 0.395200 1.227500
C100 C 0.043800 0.411500 1.260300
C101 C -0.050900 0.370900 1.148000
C102 C -0.020900 0.319300 1.010800
C103 C 0.107200 0.303200 0.977300
C104 C 0.352100 0.304900 1.048100
C105 C 0.705900 0.072900 1.211500
C106 C 0.842300 0.042900 1.179000
C107 C 0.940100 0.086800 1.283100
C108 C 0.906600 0.162000 1.421300
C109 C 0.770400 0.193700 1.452600
C110 C 0.670400 0.150300 1.350000
C111 C 1.017300 0.204800 1.533900
H112 H 0.593100 -0.094900 1.397600
H113 H 0.701400 -0.339200 1.421000
H114 H 0.595300 -0.499200 1.281300
H115 H 0.385700 -0.423900 1.121300
H116 H 0.264000 -0.171700 1.096900
H117 H 0.244100 0.074200 1.203700
H118 H 0.361800 0.105200 1.316100
H119 H 0.233000 0.426700 1.298300
H120 H 0.014600 0.447300 1.347500
H121 H -0.139000 0.380200 1.163900
H122 H -0.079800 0.278000 0.917300
H123 H 0.136800 0.262800 0.864600
H124 H 0.343100 0.299900 0.938400
H125 H 0.412300 0.348500 1.115500
H126 H 0.867500 -0.007800 1.081800
H127 H 1.033300 0.061500 1.252900
H128 H 0.740100 0.247500 1.547100
H129 H 0.582300 0.168100 1.378800
H130 H 0.966500 0.278600 1.615000
H131 H 1.052600 0.249000 1.503100
H132 H 1.090700 0.124400 1.590400
V133 V 0.595440 -0.096950 0.930540
N134 N 0.394500 -0.029400 0.893800
C135 C 0.655800 -0.042800 0.769200
C136 C 0.791200 -0.340700 0.916900
C137 C 0.647900 -0.304900 0.951900
C138 C 0.294100 -0.072900 0.788500
C139 C 0.584600 0.109800 0.751900
H140 H 0.755900 -0.074200 0.796300
H141 H 0.638200 -0.105200 0.683900
C142 C 0.823900 -0.395200 0.772500
C143 C 0.892800 -0.303200 1.022700
H144 H 0.656900 -0.299900 1.061600
H145 H 0.587700 -0.348500 0.884500
C146 C 0.157700 -0.042900 0.821000
C147 C 0.329600 -0.150300 0.650000
C148 C 0.452700 0.163400 0.658500
C149 C 0.644000 0.207200 0.831600
C150 C 0.956200 -0.411500 0.739700
H151 H 0.767000 -0.426700 0.701700
C152 C 1.020900 -0.319300 0.989200
H153 H 0.863200 -0.262800 1.135400
C154 C 0.059900 -0.086800 0.716900
H155 H 0.132500 0.007800 0.918200
C156 C 0.229600 -0.193700 0.547400
H157 H 0.417700 -0.168100 0.621200
C158 C 0.386600 0.306900 0.644900
H159 H 0.406900 0.094900 0.602400
C160 C 0.576500 0.350500 0.818200
H161 H 0.736000 0.171700 0.903100
C162 C 1.050900 -0.370900 0.852000
H163 H 0.985400 -0.447300 0.652500
H164 H 1.079800 -0.278000 1.082700
C165 C 0.093400 -0.162000 0.578700
H166 H -0.033300 -0.061500 0.747100
H167 H 0.259900 -0.247500 0.452900
C168 C 0.447800 0.401400 0.723600
H169 H 0.298600 0.339200 0.579000
H170 H 0.614300 0.423900 0.878700
H171 H 1.139000 -0.380200 0.836100
C172 C -0.017300 -0.204800 0.466100
H173 H 0.404700 0.499200 0.718700
H174 H 0.033500 -0.278600 0.385000
H175 H -0.052600 -0.249000 0.496900
H176 H -0.090700 -0.124400 0.409600
V177 V 0.404560 1.096950 0.069460
N178 N 0.605500 1.029400 0.106200
C179 C 0.415400 0.890200 0.248100
C180 C 0.547300 0.836600 0.341500
C181 C 0.613400 0.693100 0.355100
C182 C 0.552200 0.598600 0.276400
C183 C 0.423500 0.649500 0.181800
C184 C 0.356000 0.792800 0.168400
C185 C 0.344200 1.042800 0.230800
C186 C 0.208800 1.340700 0.083100
C187 C 0.176100 1.395200 0.227500
C188 C 0.043800 1.411500 0.260300
C189 C -0.050900 1.370900 0.148000
C190 C -0.020900 1.319300 0.010800
C191 C 0.107200 1.303200 -0.022700
C192 C 0.352100 1.304900 0.048100
C193 C 0.705900 1.072900 0.211500
C194 C 0.842300 1.042900 0.179000
C195 C 0.940100 1.086800 0.283100
C196 C 0.906600 1.162000 0.421300
C197 C 0.770400 1.193700 0.452600
C198 C 0.670400 1.150300 0.350000
C199 C 1.017300 1.204800 0.533900
H200 H 0.593100 0.905100 0.397600
H201 H 0.701400 0.660800 0.421000
H202 H 0.595300 0.500800 0.281300
H203 H 0.385700 0.576100 0.121300
H204 H 0.264000 0.828300 0.096900
H205 H 0.244100 1.074200 0.203700
H206 H 0.361800 1.105200 0.316100
H207 H 0.233000 1.426700 0.298300
H208 H 0.014600 1.447300 0.347500
H209 H -0.139000 1.380200 0.163900
H210 H -0.079800 1.278000 -0.082700
H211 H 0.136800 1.262800 -0.135400
H212 H 0.343100 1.299900 -0.061600
H213 H 0.412300 1.348500 0.115500
H214 H 0.867500 0.992200 0.081800
H215 H 1.033300 1.061500 0.252900
H216 H 0.740100 1.247500 0.547100
H217 H 0.582300 1.168100 0.378800
H218 H 0.966500 1.278600 0.615000
H219 H 1.052600 1.249000 0.503100
H220 H 1.090700 1.124400 0.590400
V221 V 0.595440 0.903050 -0.069460
N222 N 0.394500 0.970600 -0.106200
C223 C 0.655800 0.957200 -0.230800
C224 C 0.791200 0.659300 -0.083100
C225 C 0.647900 0.695100 -0.048100
C226 C 0.294100 0.927100 -0.211500
C227 C 0.584600 1.109800 -0.248100
H228 H 0.755900 0.925800 -0.203700
H229 H 0.638200 0.894800 -0.316100
C230 C 0.823900 0.604800 -0.227500
C231 C 0.892800 0.696800 0.022700
H232 H 0.656900 0.700100 0.061600
H233 H 0.587700 0.651500 -0.115500
C234 C 0.157700 0.957100 -0.179000
C235 C 0.329600 0.849700 -0.350000
C236 C 0.452700 1.163400 -0.341500
C237 C 0.644000 1.207200 -0.168400
C238 C 0.956200 0.588500 -0.260300
H239 H 0.767000 0.573300 -0.298300
C240 C 1.020900 0.680700 -0.010800
H241 H 0.863200 0.737200 0.135400
C242 C 0.059900 0.913200 -0.283100
H243 H 0.132500 1.007800 -0.081800
C244 C 0.229600 0.806300 -0.452600
H245 H 0.417700 0.831900 -0.378800
C246 C 0.386600 1.306900 -0.355100
H247 H 0.406900 1.094900 -0.397600
C248 C 0.576500 1.350500 -0.181800
H249 H 0.736000 1.171700 -0.096900
C250 C 1.050900 0.629100 -0.148000
H251 H 0.985400 0.552700 -0.347500
H252 H 1.079800 0.722000 0.082700
C253 C 0.093400 0.838000 -0.421300
H254 H -0.033300 0.938500 -0.252900
H255 H 0.259900 0.752500 -0.547100
C256 C 0.447800 1.401400 -0.276400
H257 H 0.298600 1.339200 -0.421000
H258 H 0.614300 1.423900 -0.121300
H259 H 1.139000 0.619800 -0.163900
C260 C -0.017300 0.795200 -0.533900
H261 H 0.404700 1.499200 -0.281300
H262 H 0.033500 0.721400 -0.615000
H263 H -0.052600 0.751000 -0.503100
H264 H -0.090700 0.875600 -0.590400
V265 V 0.404560 1.096950 1.069460
N266 N 0.605500 1.029400 1.106200
C267 C 0.415400 0.890200 1.248100
C268 C 0.547300 0.836600 1.341500
C269 C 0.613400 0.693100 1.355100
C270 C 0.552200 0.598600 1.276400
C271 C 0.423500 0.649500 1.181800
C272 C 0.356000 0.792800 1.168400
C273 C 0.344200 1.042800 1.230800
C274 C 0.208800 1.340700 1.083100
C275 C 0.176100 1.395200 1.227500
C276 C 0.043800 1.411500 1.260300
C277 C -0.050900 1.370900 1.148000
C278 C -0.020900 1.319300 1.010800
C279 C 0.107200 1.303200 0.977300
C280 C 0.352100 1.304900 1.048100
C281 C 0.705900 1.072900 1.211500
C282 C 0.842300 1.042900 1.179000
C283 C 0.940100 1.086800 1.283100
C284 C 0.906600 1.162000 1.421300
C285 C 0.770400 1.193700 1.452600
C286 C 0.670400 1.150300 1.350000
C287 C 1.017300 1.204800 1.533900
H288 H 0.593100 0.905100 1.397600
H289 H 0.701400 0.660800 1.421000
H290 H 0.595300 0.500800 1.281300
H291 H 0.385700 0.576100 1.121300
H292 H 0.264000 0.828300 1.096900
H293 H 0.244100 1.074200 1.203700
H294 H 0.361800 1.105200 1.316100
H295 H 0.233000 1.426700 1.298300
H296 H 0.014600 1.447300 1.347500
H297 H -0.139000 1.380200 1.163900
H298 H -0.079800 1.278000 0.917300
H299 H 0.136800 1.262800 0.864600
H300 H 0.343100 1.299900 0.938400
H301 H 0.412300 1.348500 1.115500
H302 H 0.867500 0.992200 1.081800
H303 H 1.033300 1.061500 1.252900
H304 H 0.740100 1.247500 1.547100
H305 H 0.582300 1.168100 1.378800
H306 H 0.966500 1.278600 1.615000
H307 H 1.052600 1.249000 1.503100
H308 H 1.090700 1.124400 1.590400
V309 V 0.595440 0.903050 0.930540
N310 N 0.394500 0.970600 0.893800
C311 C 0.655800 0.957200 0.769200
C312 C 0.791200 0.659300 0.916900
C313 C 0.647900 0.695100 0.951900
C314 C 0.294100 0.927100 0.788500
C315 C 0.584600 1.109800 0.751900
H316 H 0.755900 0.925800 0.796300
H317 H 0.638200 0.894800 0.683900
C318 C 0.823900 0.604800 0.772500
C319 C 0.892800 0.696800 1.022700
H320 H 0.656900 0.700100 1.061600
H321 H 0.587700 0.651500 0.884500
C322 C 0.157700 0.957100 0.821000
C323 C 0.329600 0.849700 0.650000
C324 C 0.452700 1.163400 0.658500
C325 C 0.644000 1.207200 0.831600
C326 C 0.956200 0.588500 0.739700
H327 H 0.767000 0.573300 0.701700
C328 C 1.020900 0.680700 0.989200
H329 H 0.863200 0.737200 1.135400
C330 C 0.059900 0.913200 0.716900
H331 H 0.132500 1.007800 0.918200
C332 C 0.229600 0.806300 0.547400
H333 H 0.417700 0.831900 0.621200
C334 C 0.386600 1.306900 0.644900
H335 H 0.406900 1.094900 0.602400
C336 C 0.576500 1.350500 0.818200
H337 H 0.736000 1.171700 0.903100
C338 C 1.050900 0.629100 0.852000
H339 H 0.985400 0.552700 0.652500
H340 H 1.079800 0.722000 1.082700
C341 C 0.093400 0.838000 0.578700
H342 H -0.033300 0.938500 0.747100
H343 H 0.259900 0.752500 0.452900
C344 C 0.447800 1.401400 0.723600
H345 H 0.298600 1.339200 0.579000
H346 H 0.614300 1.423900 0.878700
H347 H 1.139000 0.619800 0.836100
C348 C -0.017300 0.795200 0.466100
H349 H 0.404700 1.499200 0.718700
H350 H 0.033500 0.721400 0.385000
H351 H -0.052600 0.751000 0.496900
H352 H -0.090700 0.875600 0.409600
V353 V 0.485600 0.077500 0.916800
V354 V 0.514400 0.922500 0.083200

#END
