
#######################################################################
#
#                 Cambridge Crystallographic Data Centre
#                                CCDC 
#
#######################################################################
#
# If this CIF has been generated from an entry in the Cambridge 
# Structural Database, then it will include bibliographic, chemical, 
# crystal, experimental, refinement or atomic coordinate data resulting 
# from the CCDC's data processing and validation procedures.
#
#######################################################################

data_LIBNAN
_symmetry_cell_setting           triclinic
_symmetry_space_group_name_H-M   'P -1'
_symmetry_Int_Tables_number      2
_space_group_name_Hall           '-P 1'
loop_
_symmetry_equiv_pos_site_id
_symmetry_equiv_pos_as_xyz
1 x,y,z
2 -x,-y,-z
_cell_length_a                   11.398(5)
_cell_length_b                   12.638(5)
_cell_length_c                   20.547(11)
_cell_angle_alpha                107.151(12)
_cell_angle_beta                 96.768(12)
_cell_angle_gamma                103.674(8)
_cell_volume                     2691.32
loop_
_atom_site_label
_atom_site_type_symbol
_atom_site_fract_x
_atom_site_fract_y
_atom_site_fract_z
C1 C 0.1928(6) 0.8458(6) 0.0169(3)
C2 C 0.2645(6) 0.8529(6) 0.0765(4)
C3 C 0.3582(6) 0.9574(6) 0.1143(3)
C4 C 0.4352(7) 0.9706(7) 0.1766(4)
H1 H 0.4240 0.9093 0.1937
C5 C 0.5250(7) 1.0696(7) 0.2123(4)
H2 H 0.5746 1.0761 0.2534
C6 C 0.5425(7) 1.1619(7) 0.1868(4)
H3 H 0.6051 1.2297 0.2108
C7 C 0.4695(6) 1.1540(7) 0.1278(4)
H4 H 0.4805 1.2175 0.1128
C8 C 0.3766(6) 1.0507(6) 0.0885(3)
C9 C 0.3000(6) 1.0416(6) 0.0251(3)
C10 C 0.2090(6) 0.9396(5) -0.0087(3)
C11 C 0.1112(6) 0.9021(6) -0.0722(3)
C12 C 0.0425(6) 0.7966(6) -0.0822(4)
H5 H -0.0270 0.7581 -0.1174
C13 C 0.0884(6) 0.7445(6) -0.0304(4)
H6 H 0.0243 0.7239 -0.0047
C14 C 0.2505(7) 0.7576(7) 0.1018(4)
C15 C 0.2511(7) 0.6854(7) 0.1278(4)
C16 C 0.2599(7) 0.5959(7) 0.1575(4)
C17 C 0.3150(10) 0.5147(7) 0.1286(4)
H7 H 0.3475 0.5165 0.0893
C18 C 0.3236(11) 0.4303(8) 0.1562(6)
H8 H 0.3586 0.3730 0.1350
C19 C 0.2797(12) 0.4314(9) 0.2158(6)
H9 H 0.2874 0.3753 0.2355
C20 C 0.2264(10) 0.5108(12) 0.2460(6)
H10 H 0.1963 0.5095 0.2860
C21 C 0.2163(8) 0.5948(9) 0.2174(5)
H11 H 0.1800 0.6511 0.2385
C22 C 0.3230(6) 1.1403(6) -0.0013(3)
C23 C 0.4297(7) 1.1711(7) -0.0245(4)
H12 H 0.4859 1.1284 -0.0246
C24 C 0.4556(8) 1.2654(8) -0.0482(5)
H13 H 0.5295 1.2877 -0.0623
C25 C 0.3696(9) 1.3240(8) -0.0500(5)
H14 H 0.3844 1.3861 -0.0665
C26 C 0.2635(8) 1.2936(7) -0.0283(4)
H15 H 0.2060 1.3344 -0.0304
C27 C 0.2391(7) 1.2019(6) -0.0029(4)
H16 H 0.1665 1.1825 0.0129
C28 C 0.0926(6) 0.9686(6) -0.1200(3)
C29 C 0.1835(7) 0.9995(6) -0.1551(4)
H17 H 0.2557 0.9780 -0.1496
C30 C 0.1675(8) 1.0629(7) -0.1987(4)
H18 H 0.2288 1.0845 -0.2223
C31 C 0.0589(8) 1.0934(7) -0.2065(4)
H19 H 0.0476 1.1361 -0.2354
C32 C -0.0310(8) 1.0615(7) -0.1725(4)
H20 H -0.1036 1.0822 -0.1781
C33 C -0.0145(6) 0.9982(6) -0.1295(4)
H21 H -0.0768 0.9755 -0.1068
C34 C 0.1260(6) 0.6400(6) -0.0667(4)
C35 C 0.2313(7) 0.6510(7) -0.0935(4)
H22 H 0.2830 0.7242 -0.0862
C36 C 0.2618(9) 0.5535(8) -0.1315(5)
H23 H 0.3341 0.5621 -0.1487
C37 C 0.1856(9) 0.4451(7) -0.1435(5)
H24 H 0.2048 0.3800 -0.1696
C38 C 0.0811(9) 0.4339(7) -0.1167(5)
H25 H 0.0295 0.3605 -0.1244
C39 C 0.0506(8) 0.5299(7) -0.0783(5)
H26 H -0.0207 0.5206 -0.0602
C1 C 0.8072(6) 0.1542(6) 0.9831(3)
C2 C 0.7355(6) 0.1471(6) 0.9235(4)
C3 C 0.6418(6) 0.0426(6) 0.8857(3)
C4 C 0.5648(7) 0.0294(7) 0.8234(4)
H1 H 0.5760 0.0907 0.8063
C5 C 0.4750(7) -0.0696(7) 0.7877(4)
H2 H 0.4254 -0.0761 0.7466
C6 C 0.4575(7) -0.1619(7) 0.8132(4)
H3 H 0.3949 -0.2297 0.7892
C7 C 0.5305(6) -0.1540(7) 0.8722(4)
H4 H 0.5195 -0.2175 0.8872
C8 C 0.6234(6) -0.0507(6) 0.9115(3)
C9 C 0.7000(6) -0.0416(6) 0.9749(3)
C10 C 0.7910(6) 0.0604(5) 1.0087(3)
C11 C 0.8888(6) 0.0979(6) 1.0722(3)
C12 C 0.9575(6) 0.2034(6) 1.0822(4)
H5 H 1.0270 0.2419 1.1174
C13 C 0.9116(6) 0.2555(6) 1.0304(4)
H6 H 0.9757 0.2761 1.0047
C14 C 0.7495(7) 0.2424(7) 0.8982(4)
C15 C 0.7489(7) 0.3146(7) 0.8722(4)
C16 C 0.7401(7) 0.4041(7) 0.8425(4)
C17 C 0.6850(10) 0.4853(7) 0.8714(4)
H7 H 0.6525 0.4835 0.9107
C18 C 0.6764(11) 0.5697(8) 0.8438(6)
H8 H 0.6414 0.6270 0.8650
C19 C 0.7203(12) 0.5686(9) 0.7842(6)
H9 H 0.7126 0.6247 0.7645
C20 C 0.7736(10) 0.4892(12) 0.7540(6)
H10 H 0.8037 0.4905 0.7140
C21 C 0.7837(8) 0.4052(9) 0.7826(5)
H11 H 0.8200 0.3489 0.7615
C22 C 0.6770(6) -0.1403(6) 1.0013(3)
C23 C 0.5703(7) -0.1711(7) 1.0245(4)
H12 H 0.5141 -0.1284 1.0246
C24 C 0.5444(8) -0.2654(8) 1.0482(5)
H13 H 0.4705 -0.2877 1.0623
C25 C 0.6304(9) -0.3240(8) 1.0500(5)
H14 H 0.6156 -0.3861 1.0665
C26 C 0.7365(8) -0.2936(7) 1.0283(4)
H15 H 0.7940 -0.3344 1.0304
C27 C 0.7609(7) -0.2019(6) 1.0029(4)
H16 H 0.8335 -0.1825 0.9871
C28 C 0.9074(6) 0.0314(6) 1.1200(3)
C29 C 0.8165(7) 0.0005(6) 1.1551(4)
H17 H 0.7443 0.0220 1.1496
C30 C 0.8325(8) -0.0629(7) 1.1987(4)
H18 H 0.7712 -0.0845 1.2223
C31 C 0.9411(8) -0.0934(7) 1.2065(4)
H19 H 0.9524 -0.1361 1.2354
C32 C 1.0310(8) -0.0615(7) 1.1725(4)
H20 H 1.1036 -0.0822 1.1781
C33 C 1.0145(6) 0.0018(6) 1.1295(4)
H21 H 1.0768 0.0245 1.1068
C34 C 0.8740(6) 0.3600(6) 1.0667(4)
C35 C 0.7687(7) 0.3490(7) 1.0935(4)
H22 H 0.7170 0.2758 1.0862
C36 C 0.7382(9) 0.4465(8) 1.1315(5)
H23 H 0.6659 0.4379 1.1487
C37 C 0.8144(9) 0.5549(7) 1.1435(5)
H24 H 0.7952 0.6200 1.1696
C38 C 0.9189(9) 0.5661(7) 1.1167(5)
H25 H 0.9705 0.6395 1.1244
C39 C 0.9494(8) 0.4701(7) 1.0783(5)
H26 H 1.0207 0.4794 1.0602
C40 C 0.6975(6) 0.3093(5) 0.4741(3)
C41 C 0.7307(6) 0.2481(5) 0.4162(3)
C42 C 0.7963(6) 0.3083(6) 0.3766(3)
C43 C 0.8309(6) 0.2505(6) 0.3161(3)
H27 H 0.8155 0.1707 0.3025
C44 C 0.8872(7) 0.3090(7) 0.2764(4)
H28 H 0.9111 0.2691 0.2368
C45 C 0.9081(7) 0.4260(7) 0.2949(4)
H29 H 0.9432 0.4649 0.2668
C46 C 0.8782(6) 0.4856(6) 0.3535(4)
H30 H 0.8955 0.5654 0.3655
C47 C 0.8215(6) 0.4309(6) 0.3976(3)
C48 C 0.7881(5) 0.4940(6) 0.4595(3)
C49 C 0.7278(6) 0.4322(5) 0.4971(3)
C50 C 0.6753(6) 0.4694(6) 0.5590(3)
C51 C 0.6138(6) 0.3748(6) 0.5715(4)
H31 H 0.5696 0.3776 0.6070
C52 C 0.6239(6) 0.2642(6) 0.5224(4)
H32 H 0.5417 0.2151 0.4963
C53 C 0.7040(6) 0.1259(6) 0.3945(3)
C54 C 0.6885(6) 0.0229(6) 0.3730(3)
C55 C 0.6768(6) -0.0977(6) 0.3456(4)
C56 C 0.5680(8) -0.1787(7) 0.3082(5)
H33 H 0.4977 -0.1556 0.3000
C57 C 0.5625(10) -0.2926(8) 0.2832(5)
H34 H 0.4871 -0.3460 0.2593
C58 C 0.6612(10) -0.3307(8) 0.2918(5)
H35 H 0.6558 -0.4088 0.2740
C59 C 0.7696(10) -0.2509(8) 0.3274(6)
H36 H 0.8397 -0.2752 0.3339
C60 C 0.7786(8) -0.1367(7) 0.3538(5)
H37 H 0.8545 -0.0843 0.3778
C61 C 0.8195(6) 0.6218(5) 0.4812(3)
C62 C 0.7296(7) 0.6781(6) 0.4806(4)
H38 H 0.6471 0.6351 0.4657
C63 C 0.7597(8) 0.7965(7) 0.5018(5)
H39 H 0.6980 0.8331 0.5010
C64 C 0.8799(9) 0.8602(8) 0.5239(5)
H40 H 0.9001 0.9405 0.5393
C65 C 0.9720(8) 0.8067(7) 0.5236(5)
H41 H 1.0543 0.8503 0.5378
C66 C 0.9407(7) 0.6873(6) 0.5021(4)
H42 H 1.0027 0.6508 0.5019
C67 C 0.6882(6) 0.5891(6) 0.6045(3)
C68 C 0.5832(7) 0.6240(7) 0.6158(4)
H43 H 0.5058 0.5731 0.5935
C69 C 0.5929(8) 0.7332(7) 0.6598(4)
H44 H 0.5227 0.7571 0.6663
C70 C 0.7069(9) 0.8057(7) 0.6936(4)
H45 H 0.7138 0.8788 0.7241
C71 C 0.8118(8) 0.7727(7) 0.6833(4)
H46 H 0.8889 0.8234 0.7064
C72 C 0.8021(7) 0.6637(6) 0.6384(4)
H47 H 0.8728 0.6410 0.6313
C73 C 0.6837(6) 0.2008(6) 0.5616(4)
C74 C 0.8058(8) 0.2390(8) 0.5903(5)
H48 H 0.8551 0.3031 0.5832
C75 C 0.8587(9) 0.1834(10) 0.6304(6)
H49 H 0.9423 0.2111 0.6505
C76 C 0.7874(11) 0.0890(9) 0.6396(5)
H50 H 0.8224 0.0502 0.6648
C77 C 0.6663(10) 0.0514(8) 0.6123(5)
H51 H 0.6172 -0.0120 0.6200
C78 C 0.6146(8) 0.1058(7) 0.5732(4)
H52 H 0.5307 0.0778 0.5540
C40 C 0.3025(6) 0.6907(5) 0.5259(3)
C41 C 0.2693(6) 0.7519(5) 0.5838(3)
C42 C 0.2037(6) 0.6917(6) 0.6234(3)
C43 C 0.1691(6) 0.7495(6) 0.6839(3)
H27 H 0.1845 0.8293 0.6975
C44 C 0.1128(7) 0.6910(7) 0.7236(4)
H28 H 0.0889 0.7309 0.7632
C45 C 0.0919(7) 0.5740(7) 0.7051(4)
H29 H 0.0568 0.5351 0.7332
C46 C 0.1218(6) 0.5144(6) 0.6465(4)
H30 H 0.1045 0.4346 0.6345
C47 C 0.1785(6) 0.5691(6) 0.6024(3)
C48 C 0.2119(5) 0.5060(6) 0.5405(3)
C49 C 0.2722(6) 0.5678(5) 0.5029(3)
C50 C 0.3247(6) 0.5306(6) 0.4410(3)
C51 C 0.3862(6) 0.6252(6) 0.4285(4)
H31 H 0.4304 0.6224 0.3930
C52 C 0.3761(6) 0.7358(6) 0.4776(4)
H32 H 0.4583 0.7849 0.5037
C53 C 0.2960(6) 0.8741(6) 0.6055(3)
C54 C 0.3115(6) 0.9771(6) 0.6270(3)
C55 C 0.3232(6) 1.0977(6) 0.6544(4)
C56 C 0.4320(8) 1.1787(7) 0.6918(5)
H33 H 0.5023 1.1556 0.7000
C57 C 0.4375(10) 1.2926(8) 0.7168(5)
H34 H 0.5129 1.3460 0.7407
C58 C 0.3388(10) 1.3307(8) 0.7082(5)
H35 H 0.3442 1.4088 0.7260
C59 C 0.2304(10) 1.2509(8) 0.6726(6)
H36 H 0.1603 1.2752 0.6661
C60 C 0.2214(8) 1.1367(7) 0.6462(5)
H37 H 0.1455 1.0843 0.6222
C61 C 0.1805(6) 0.3782(5) 0.5188(3)
C62 C 0.2704(7) 0.3219(6) 0.5194(4)
H38 H 0.3529 0.3649 0.5343
C63 C 0.2403(8) 0.2035(7) 0.4982(5)
H39 H 0.3020 0.1669 0.4990
C64 C 0.1201(9) 0.1398(8) 0.4761(5)
H40 H 0.0999 0.0595 0.4607
C65 C 0.0280(8) 0.1933(7) 0.4764(5)
H41 H -0.0543 0.1497 0.4622
C66 C 0.0593(7) 0.3127(6) 0.4979(4)
H42 H -0.0027 0.3492 0.4981
C67 C 0.3118(6) 0.4109(6) 0.3955(3)
C68 C 0.4168(7) 0.3760(7) 0.3842(4)
H43 H 0.4942 0.4269 0.4065
C69 C 0.4071(8) 0.2668(7) 0.3402(4)
H44 H 0.4773 0.2429 0.3337
C70 C 0.2931(9) 0.1943(7) 0.3064(4)
H45 H 0.2862 0.1212 0.2759
C71 C 0.1882(8) 0.2273(7) 0.3167(4)
H46 H 0.1111 0.1766 0.2936
C72 C 0.1979(7) 0.3363(6) 0.3616(4)
H47 H 0.1272 0.3590 0.3687
C73 C 0.3163(6) 0.7992(6) 0.4384(4)
C74 C 0.1942(8) 0.7610(8) 0.4097(5)
H48 H 0.1449 0.6969 0.4168
C75 C 0.1413(9) 0.8166(10) 0.3696(6)
H49 H 0.0577 0.7889 0.3495
C76 C 0.2126(11) 0.9110(9) 0.3604(5)
H50 H 0.1776 0.9498 0.3352
C77 C 0.3337(10) 0.9486(8) 0.3877(5)
H51 H 0.3828 1.0120 0.3800
C78 C 0.3854(8) 0.8942(7) 0.4268(4)
H52 H 0.4693 0.9222 0.4460

#END
