./LIBVOI_from_xyz.cif_generated_by_CrystalShift
_symmetry_cell_setting triclinic
_symmetry_space_group_name_H-M 'P 1'
loop_
_symmetry_equiv_pos_site_id
_symmetry_equiv_pos_as_xyz
1 x,y,z
_cell_length_a 5.930900
_cell_length_b 5.652900
_cell_length_c 17.269700
_cell_angle_alpha 90.000000
_cell_angle_beta 91.762000
_cell_angle_gamma 90.000000
_cell_volume 578.723732
loop_
_atom_site_label
_atom_site_type_symbol
_atom_site_fract_x
_atom_site_fract_y
_atom_site_fract_z
S1 S 0.560830 0.311700 0.383390
C2 C 0.407000 0.558200 0.356490
C3 C 0.205300 0.570300 0.395300
C4 C 0.181300 0.373500 0.446690
C5 C 0.356700 0.223900 0.446330
C6 C 0.482300 0.723000 0.298300
N7 N 0.665700 0.679600 0.262320
N8 N 0.722800 0.838000 0.206590
C9 C 0.907400 0.789200 0.161530
C10 C 1.046200 0.596300 0.176220
C11 C 1.231400 0.563800 0.129750
N12 N 1.380100 0.363100 0.145860
O13 O 1.337600 0.229400 0.199900
O14 O 1.544400 0.333700 0.104710
C15 C 1.283200 0.714100 0.068860
C16 C 1.139400 0.902200 0.054290
C17 C 0.953600 0.943900 0.099630
H18 H 0.097300 0.693200 0.388600
H19 H 0.053900 0.351200 0.477900
H20 H 0.367400 0.085200 0.477300
H21 H 0.397500 0.861800 0.286700
H22 H 0.636000 0.991700 0.196600
H23 H 1.015900 0.489000 0.216900
H24 H 1.412000 0.688200 0.038600
H25 H 1.168100 1.005500 0.012300
H26 H 0.858200 1.075700 0.089100
S27 S 0.439170 -0.188300 0.616610
C28 C 0.593000 0.058200 0.643510
C29 C 0.794700 0.070300 0.604700
C30 C 0.818700 -0.126500 0.553310
C31 C 0.643300 -0.276100 0.553670
C32 C 0.517700 0.223000 0.701700
N33 N 0.334300 0.179600 0.737680
N34 N 0.277200 0.338000 0.793410
C35 C 0.092600 0.289200 0.838470
C36 C -0.046200 0.096300 0.823780
C37 C -0.231400 0.063800 0.870250
N38 N -0.380100 -0.136900 0.854140
O39 O -0.337600 -0.270600 0.800100
O40 O -0.544400 -0.166300 0.895290
C41 C -0.283200 0.214100 0.931140
C42 C -0.139400 0.402200 0.945710
C43 C 0.046400 0.443900 0.900370
H44 H 0.902700 0.193200 0.611400
H45 H 0.946100 -0.148800 0.522100
H46 H 0.632600 -0.414800 0.522700
H47 H 0.602500 0.361800 0.713300
H48 H 0.364000 0.491700 0.803400
H49 H -0.015900 -0.011000 0.783100
H50 H -0.412000 0.188200 0.961400
H51 H -0.168100 0.505500 0.987700
H52 H 0.141800 0.575700 0.910900

#END
