
#######################################################################
#
#                 Cambridge Crystallographic Data Centre
#                                CCDC 
#
#######################################################################
#
# If this CIF has been generated from an entry in the Cambridge 
# Structural Database, then it will include bibliographic, chemical, 
# crystal, experimental, refinement or atomic coordinate data resulting 
# from the CCDC's data processing and validation procedures.
#
#######################################################################

data_LIBWEZ
_symmetry_cell_setting           orthorhombic
_symmetry_space_group_name_H-M   'P 21 21 21'
_symmetry_Int_Tables_number      19
_space_group_name_Hall           'P 2ac 2ab'
loop_
_symmetry_equiv_pos_site_id
_symmetry_equiv_pos_as_xyz
1 x,y,z
2 1/2-x,-y,1/2+z
3 -x,1/2+y,1/2-z
4 1/2+x,1/2-y,-z
_cell_length_a                   8.0770(16)
_cell_length_b                   10.045(2)
_cell_length_c                   12.238(2)
_cell_angle_alpha                90
_cell_angle_beta                 90
_cell_angle_gamma                90
_cell_volume                     992.911
loop_
_atom_site_label
_atom_site_type_symbol
_atom_site_fract_x
_atom_site_fract_y
_atom_site_fract_z
F1 F 0.1078(3) 0.7475(2) 1.06630(16)
F2 F 0.4088(3) 0.3530(2) 1.04860(15)
O1 O 0.1547(3) 0.2453(2) 0.76858(16)
N1 N 0.3421(3) 0.0378(3) 0.8333(2)
N2 N 0.3896(5) -0.1026(3) 0.6977(3)
C1 C 0.2461(4) -0.0713(3) 0.8515(3)
H1 H 0.1738 -0.0848 0.9096
C2 C 0.2770(5) -0.1559(3) 0.7683(3)
H2 H 0.2282 -0.2392 0.7602
C3 C 0.4245(5) 0.0143(4) 0.7401(3)
H3 H 0.4984 0.0742 0.7088
C4 C 0.3440(4) 0.1593(3) 0.8972(3)
H4 H 0.4558 0.1947 0.8985
H5 H 0.3126 0.1388 0.9719
C5 C 0.2289(4) 0.2637(3) 0.8530(2)
C6 C 0.2036(4) 0.3910(3) 0.9136(2)
C7 C 0.0810(4) 0.4782(3) 0.8757(2)
H6 H 0.0204 0.4546 0.8140
C8 C 0.0472(4) 0.5970(3) 0.9261(2)
H7 H -0.0352 0.6532 0.8999
C9 C 0.1385(5) 0.6301(3) 1.0162(3)
C10 C 0.2596(5) 0.5502(3) 1.0580(3)
H8 H 0.3197 0.5750 1.1195
C11 C 0.2891(4) 0.4317(3) 1.0056(3)
F1 F 0.3922(3) 0.2525(2) 0.56630(16)
F2 F 0.0912(3) 0.6470(2) 0.54860(15)
O1 O 0.3453(3) 0.7547(2) 0.26858(16)
N1 N 0.1579(3) 0.9622(3) 0.3333(2)
N2 N 0.1104(5) 1.1026(3) 0.1977(3)
C1 C 0.2539(4) 1.0713(3) 0.3515(3)
H1 H 0.3262 1.0848 0.4096
C2 C 0.2230(5) 1.1559(3) 0.2683(3)
H2 H 0.2718 1.2392 0.2602
C3 C 0.0755(5) 0.9857(4) 0.2401(3)
H3 H 0.0016 0.9258 0.2088
C4 C 0.1560(4) 0.8407(3) 0.3972(3)
H4 H 0.0442 0.8053 0.3985
H5 H 0.1874 0.8612 0.4719
C5 C 0.2711(4) 0.7363(3) 0.3530(2)
C6 C 0.2964(4) 0.6090(3) 0.4136(2)
C7 C 0.4190(4) 0.5218(3) 0.3757(2)
H6 H 0.4796 0.5454 0.3140
C8 C 0.4528(4) 0.4030(3) 0.4261(2)
H7 H 0.5352 0.3468 0.3999
C9 C 0.3615(5) 0.3699(3) 0.5162(3)
C10 C 0.2404(5) 0.4498(3) 0.5580(3)
H8 H 0.1803 0.4250 0.6195
C11 C 0.2109(4) 0.5683(3) 0.5056(3)
F1 F 0.8922(3) 1.2475(2) 0.43370(16)
F2 F 0.5912(3) 0.8530(2) 0.45140(15)
O1 O 0.8453(3) 0.7453(2) 0.73142(16)
N1 N 0.6579(3) 0.5378(3) 0.6667(2)
N2 N 0.6104(5) 0.3974(3) 0.8023(3)
C1 C 0.7539(4) 0.4287(3) 0.6485(3)
H1 H 0.8262 0.4152 0.5904
C2 C 0.7230(5) 0.3441(3) 0.7317(3)
H2 H 0.7718 0.2608 0.7398
C3 C 0.5755(5) 0.5143(4) 0.7599(3)
H3 H 0.5016 0.5742 0.7912
C4 C 0.6560(4) 0.6593(3) 0.6028(3)
H4 H 0.5442 0.6947 0.6015
H5 H 0.6874 0.6388 0.5281
C5 C 0.7711(4) 0.7637(3) 0.6470(2)
C6 C 0.7964(4) 0.8910(3) 0.5864(2)
C7 C 0.9190(4) 0.9782(3) 0.6243(2)
H6 H 0.9796 0.9546 0.6860
C8 C 0.9528(4) 1.0970(3) 0.5739(2)
H7 H 1.0352 1.1532 0.6001
C9 C 0.8615(5) 1.1301(3) 0.4838(3)
C10 C 0.7404(5) 1.0502(3) 0.4420(3)
H8 H 0.6803 1.0750 0.3805
C11 C 0.7109(4) 0.9317(3) 0.4944(3)
F1 F 0.6078(3) -0.2475(2) -0.06630(16)
F2 F 0.9088(3) 0.1470(2) -0.04860(15)
O1 O 0.6547(3) 0.2547(2) 0.23142(16)
N1 N 0.8421(3) 0.4622(3) 0.1667(2)
N2 N 0.8896(5) 0.6026(3) 0.3023(3)
C1 C 0.7461(4) 0.5713(3) 0.1485(3)
H1 H 0.6738 0.5848 0.0904
C2 C 0.7770(5) 0.6559(3) 0.2317(3)
H2 H 0.7282 0.7392 0.2398
C3 C 0.9245(5) 0.4857(4) 0.2599(3)
H3 H 0.9984 0.4258 0.2912
C4 C 0.8440(4) 0.3407(3) 0.1028(3)
H4 H 0.9558 0.3053 0.1015
H5 H 0.8126 0.3612 0.0281
C5 C 0.7289(4) 0.2363(3) 0.1470(2)
C6 C 0.7036(4) 0.1090(3) 0.0864(2)
C7 C 0.5810(4) 0.0218(3) 0.1243(2)
H6 H 0.5204 0.0454 0.1860
C8 C 0.5472(4) -0.0970(3) 0.0739(2)
H7 H 0.4648 -0.1532 0.1001
C9 C 0.6385(5) -0.1301(3) -0.0162(3)
C10 C 0.7596(5) -0.0502(3) -0.0580(3)
H8 H 0.8197 -0.0750 -0.1195
C11 C 0.7891(4) 0.0683(3) -0.0056(3)

#END
