
#######################################################################
#
#                 Cambridge Crystallographic Data Centre
#                                CCDC 
#
#######################################################################
#
# If this CIF has been generated from an entry in the Cambridge 
# Structural Database, then it will include bibliographic, chemical, 
# crystal, experimental, refinement or atomic coordinate data resulting 
# from the CCDC's data processing and validation procedures.
#
#######################################################################

data_LIBXEZ
_symmetry_cell_setting           monoclinic
_symmetry_space_group_name_H-M   'P 21/c'
_symmetry_Int_Tables_number      14
_space_group_name_Hall           '-P 2ybc'
loop_
_symmetry_equiv_pos_site_id
_symmetry_equiv_pos_as_xyz
1 x,y,z
2 -x,1/2+y,1/2-z
3 -x,-y,-z
4 x,1/2-y,1/2+z
_cell_length_a                   9.025(2)
_cell_length_b                   5.549(1)
_cell_length_c                   21.878(6)
_cell_angle_alpha                90
_cell_angle_beta                 98.47(2)
_cell_angle_gamma                90
_cell_volume                     1083.69
loop_
_atom_site_label
_atom_site_type_symbol
_atom_site_fract_x
_atom_site_fract_y
_atom_site_fract_z
N1 N 0.4732(9) 0.7289(16) 0.0734(4)
N2 N 0.4791(9) 0.5477(16) 0.1159(4)
C1 C 0.3804(11) 0.3696(19) 0.1002(4)
C2 C 0.1829(10) 0.3239(21) 0.0028(5)
C3 C 0.1358(11) 0.4518(24) -0.0509(5)
C4 C 0.1992(12) 0.6692(23) -0.0665(5)
C5 C 0.3119(11) 0.7746(22) -0.0281(5)
C6 C 0.3623(10) 0.6545(18) 0.0277(5)
C7 C 0.3014(10) 0.4309(20) 0.0435(5)
N3 N 0.0117(10) 0.3484(23) -0.0933(5)
O1 O -0.0389(10) 0.1487(20) -0.0826(4)
O2 O -0.0365(9) 0.4651(19) -0.1394(4)
C8 C 0.5911(11) 0.5615(23) 0.1708(5)
C9 C 0.5978(12) 0.3813(24) 0.2143(5)
C10 C 0.7077(14) 0.3970(24) 0.2658(5)
C11 C 0.8024(13) 0.5883(26) 0.2727(5)
C12 C 0.7919(12) 0.7684(24) 0.2298(5)
C13 C 0.6857(12) 0.7559(24) 0.1775(5)
H1 H 0.367 0.228 0.124
H2 H 0.161 0.746 -0.105
H3 H 0.528 0.250 0.209
H4 H 0.878 0.599 0.308
H5 H 0.678 0.879 0.146
H6 H 0.137 0.174 0.011
H7 H 0.358 0.923 -0.038
H8 H 0.718 0.273 0.297
H9 H 0.859 0.903 0.236
N1 N 0.5268(9) 0.2289(16) 0.4266(4)
N2 N 0.5209(9) 0.0477(16) 0.3841(4)
C1 C 0.6196(11) -0.1304(19) 0.3998(4)
C2 C 0.8171(10) -0.1761(21) 0.4972(5)
C3 C 0.8642(11) -0.0482(24) 0.5509(5)
C4 C 0.8008(12) 0.1692(23) 0.5665(5)
C5 C 0.6881(11) 0.2746(22) 0.5281(5)
C6 C 0.6377(10) 0.1545(18) 0.4723(5)
C7 C 0.6986(10) -0.0691(20) 0.4565(5)
N3 N 0.9883(10) -0.1516(23) 0.5933(5)
O1 O 1.0389(10) -0.3513(20) 0.5826(4)
O2 O 1.0365(9) -0.0349(19) 0.6394(4)
C8 C 0.4089(11) 0.0615(23) 0.3292(5)
C9 C 0.4022(12) -0.1187(24) 0.2857(5)
C10 C 0.2923(14) -0.1030(24) 0.2342(5)
C11 C 0.1976(13) 0.0883(26) 0.2273(5)
C12 C 0.2081(12) 0.2684(24) 0.2702(5)
C13 C 0.3143(12) 0.2559(24) 0.3225(5)
H1 H 0.633 -0.272 0.376
H2 H 0.839 0.246 0.605
H3 H 0.472 -0.250 0.291
H4 H 0.122 0.099 0.192
H5 H 0.322 0.379 0.354
H6 H 0.863 -0.326 0.489
H7 H 0.642 0.423 0.538
H8 H 0.282 -0.227 0.203
H9 H 0.141 0.403 0.264
N1 N 0.5268(9) 0.2711(16) 0.9266(4)
N2 N 0.5209(9) 0.4523(16) 0.8841(4)
C1 C 0.6196(11) 0.6304(19) 0.8998(4)
C2 C 0.8171(10) 0.6761(21) 0.9972(5)
C3 C 0.8642(11) 0.5482(24) 1.0509(5)
C4 C 0.8008(12) 0.3308(23) 1.0665(5)
C5 C 0.6881(11) 0.2254(22) 1.0281(5)
C6 C 0.6377(10) 0.3455(18) 0.9723(5)
C7 C 0.6986(10) 0.5691(20) 0.9565(5)
N3 N 0.9883(10) 0.6516(23) 1.0933(5)
O1 O 1.0389(10) 0.8513(20) 1.0826(4)
O2 O 1.0365(9) 0.5349(19) 1.1394(4)
C8 C 0.4089(11) 0.4385(23) 0.8292(5)
C9 C 0.4022(12) 0.6187(24) 0.7857(5)
C10 C 0.2923(14) 0.6030(24) 0.7342(5)
C11 C 0.1976(13) 0.4117(26) 0.7273(5)
C12 C 0.2081(12) 0.2316(24) 0.7702(5)
C13 C 0.3143(12) 0.2441(24) 0.8225(5)
H1 H 0.633 0.772 0.876
H2 H 0.839 0.254 1.105
H3 H 0.472 0.750 0.791
H4 H 0.122 0.401 0.692
H5 H 0.322 0.121 0.854
H6 H 0.863 0.826 0.989
H7 H 0.642 0.077 1.038
H8 H 0.282 0.727 0.703
H9 H 0.141 0.097 0.764
N1 N 0.4732(9) 0.7711(16) 0.5734(4)
N2 N 0.4791(9) 0.9523(16) 0.6159(4)
C1 C 0.3804(11) 1.1304(19) 0.6002(4)
C2 C 0.1829(10) 1.1761(21) 0.5028(5)
C3 C 0.1358(11) 1.0482(24) 0.4491(5)
C4 C 0.1992(12) 0.8308(23) 0.4335(5)
C5 C 0.3119(11) 0.7254(22) 0.4719(5)
C6 C 0.3623(10) 0.8455(18) 0.5277(5)
C7 C 0.3014(10) 1.0691(20) 0.5435(5)
N3 N 0.0117(10) 1.1516(23) 0.4067(5)
O1 O -0.0389(10) 1.3513(20) 0.4174(4)
O2 O -0.0365(9) 1.0349(19) 0.3606(4)
C8 C 0.5911(11) 0.9385(23) 0.6708(5)
C9 C 0.5978(12) 1.1187(24) 0.7143(5)
C10 C 0.7077(14) 1.1030(24) 0.7658(5)
C11 C 0.8024(13) 0.9117(26) 0.7727(5)
C12 C 0.7919(12) 0.7316(24) 0.7298(5)
C13 C 0.6857(12) 0.7441(24) 0.6775(5)
H1 H 0.367 1.272 0.624
H2 H 0.161 0.754 0.395
H3 H 0.528 1.250 0.709
H4 H 0.878 0.901 0.808
H5 H 0.678 0.621 0.646
H6 H 0.137 1.326 0.511
H7 H 0.358 0.577 0.462
H8 H 0.718 1.227 0.797
H9 H 0.859 0.597 0.736

#END
