./LIBYUR_from_xyz.cif_generated_by_CrystalShift
_symmetry_cell_setting triclinic
_symmetry_space_group_name_H-M 'P 1'
loop_
_symmetry_equiv_pos_site_id
_symmetry_equiv_pos_as_xyz
1 x,y,z
_cell_length_a 7.693100
_cell_length_b 9.719700
_cell_length_c 10.492000
_cell_angle_alpha 113.559000
_cell_angle_beta 91.246000
_cell_angle_gamma 109.417000
_cell_volume 667.305690
loop_
_atom_site_label
_atom_site_type_symbol
_atom_site_fract_x
_atom_site_fract_y
_atom_site_fract_z
C1 C 0.209600 0.518200 0.578530
C2 C 0.052000 0.293000 0.633510
C3 C -0.052700 0.185700 0.697800
C4 C 0.013600 0.255000 0.856300
C5 C 0.271200 0.386500 0.369110
C6 C 0.331300 0.552400 0.408640
C7 C 0.301800 0.258200 0.254300
C8 C 0.411700 0.641000 0.325660
C9 C 0.359200 0.569200 0.178830
C10 C 0.425600 0.655300 0.101900
C11 C 0.545700 0.815900 0.168400
C12 C 0.598000 0.890800 0.315000
C13 C 0.530600 0.802300 0.391270
C14 C 0.718700 1.054600 0.142200
N15 N 0.188650 0.368780 0.481510
N16 N 0.098400 0.239010 0.510170
N17 N 0.293600 0.633710 0.539650
O18 O 0.244300 0.118450 0.233740
O19 O 0.603100 0.887490 0.080960
S20 S 0.117200 0.504390 0.722830
H21 H -0.044000 0.083000 0.647000
H22 H -0.185000 0.166000 0.677000
H23 H 0.149000 0.279000 0.877000
H24 H -0.004000 0.359000 0.906000
H25 H -0.063000 0.181000 0.890000
H26 H 0.377000 0.293000 0.192000
H27 H 0.274000 0.464000 0.135000
H28 H 0.390000 0.608000 0.006000
H29 H 0.681000 0.998000 0.359000
H30 H 0.569000 0.854000 0.494000
H31 H 0.837000 1.070000 0.192000
H32 H 0.657000 1.113000 0.204000
H33 H 0.731000 1.078000 0.066000
C34 C 0.790400 0.481800 0.421470
C35 C 0.948000 0.707000 0.366490
C36 C 1.052700 0.814300 0.302200
C37 C 0.986400 0.745000 0.143700
C38 C 0.728800 0.613500 0.630890
C39 C 0.668700 0.447600 0.591360
C40 C 0.698200 0.741800 0.745700
C41 C 0.588300 0.359000 0.674340
C42 C 0.640800 0.430800 0.821170
C43 C 0.574400 0.344700 0.898100
C44 C 0.454300 0.184100 0.831600
C45 C 0.402000 0.109200 0.685000
C46 C 0.469400 0.197700 0.608730
C47 C 0.281300 -0.054600 0.857800
N48 N 0.811350 0.631220 0.518490
N49 N 0.901600 0.760990 0.489830
N50 N 0.706400 0.366290 0.460350
O51 O 0.755700 0.881550 0.766260
O52 O 0.396900 0.112510 0.919040
S53 S 0.882800 0.495610 0.277170
H54 H 1.044000 0.917000 0.353000
H55 H 1.185000 0.834000 0.323000
H56 H 0.851000 0.721000 0.123000
H57 H 1.004000 0.641000 0.094000
H58 H 1.063000 0.819000 0.110000
H59 H 0.623000 0.707000 0.808000
H60 H 0.726000 0.536000 0.865000
H61 H 0.610000 0.392000 0.994000
H62 H 0.319000 0.002000 0.641000
H63 H 0.431000 0.146000 0.506000
H64 H 0.163000 -0.070000 0.808000
H65 H 0.343000 -0.113000 0.796000
H66 H 0.269000 -0.078000 0.934000

#END
