
#######################################################################
#
#                 Cambridge Crystallographic Data Centre
#                                CCDC 
#
#######################################################################
#
# If this CIF has been generated from an entry in the Cambridge 
# Structural Database, then it will include bibliographic, chemical, 
# crystal, experimental, refinement or atomic coordinate data resulting 
# from the CCDC's data processing and validation procedures.
#
#######################################################################

data_LIBYUR
_symmetry_cell_setting           triclinic
_symmetry_space_group_name_H-M   'P -1'
_symmetry_Int_Tables_number      2
_space_group_name_Hall           '-P 1'
loop_
_symmetry_equiv_pos_site_id
_symmetry_equiv_pos_as_xyz
1 x,y,z
2 -x,-y,-z
_cell_length_a                   7.6931(15)
_cell_length_b                   9.7197(19)
_cell_length_c                   10.492(2)
_cell_angle_alpha                113.559(3)
_cell_angle_beta                 91.246(3)
_cell_angle_gamma                109.417(3)
_cell_volume                     667.306
loop_
_atom_site_label
_atom_site_type_symbol
_atom_site_fract_x
_atom_site_fract_y
_atom_site_fract_z
C1 C 0.2096(2) 0.5182(2) 0.57853(17)
C2 C 0.0520(2) 0.2930(2) 0.63351(18)
C3 C -0.0527(3) 0.1857(2) 0.6978(2)
C4 C 0.0136(3) 0.2550(3) 0.8563(2)
C5 C 0.2712(2) 0.3865(2) 0.36911(17)
C6 C 0.3313(2) 0.5524(2) 0.40864(17)
C7 C 0.3018(3) 0.2582(2) 0.2543(2)
C8 C 0.4117(2) 0.6410(2) 0.32566(17)
C9 C 0.3592(3) 0.5692(2) 0.17883(19)
C10 C 0.4256(3) 0.6553(2) 0.10190(19)
C11 C 0.5457(3) 0.8159(2) 0.16840(19)
C12 C 0.5980(3) 0.8908(2) 0.3150(2)
C13 C 0.5306(2) 0.8023(2) 0.39127(19)
C14 C 0.7187(5) 1.0546(3) 0.1422(3)
N1 N 0.18865(19) 0.36878(16) 0.48151(14)
N2 N 0.0984(2) 0.23901(17) 0.51017(15)
N3 N 0.2936(2) 0.63371(16) 0.53965(14)
O1 O 0.2443(3) 0.11845(17) 0.23374(17)
O2 O 0.6031(2) 0.88749(16) 0.08096(14)
S1 S 0.11720(6) 0.50439(5) 0.72283(4)
H1 H -0.044(3) 0.083(3) 0.647(2)
H2 H -0.185(3) 0.166(2) 0.677(2)
H3 H 0.149(4) 0.279(3) 0.877(3)
H4 H -0.004(3) 0.359(3) 0.906(2)
H5 H -0.063(3) 0.181(3) 0.890(3)
H6 H 0.377(3) 0.293(2) 0.192(2)
H7 H 0.274(3) 0.464(2) 0.135(2)
H8 H 0.390(3) 0.608(2) 0.006(2)
H9 H 0.681(3) 0.998(3) 0.359(2)
H10 H 0.569(3) 0.854(2) 0.494(2)
H11 H 0.837(4) 1.070(3) 0.192(3)
H12 H 0.657(4) 1.113(3) 0.204(3)
H13 H 0.731(4) 1.078(3) 0.066(3)
C1 C 0.7904(2) 0.4818(2) 0.42147(17)
C2 C 0.9480(2) 0.7070(2) 0.36649(18)
C3 C 1.0527(3) 0.8143(2) 0.3022(2)
C4 C 0.9864(3) 0.7450(3) 0.1437(2)
C5 C 0.7288(2) 0.6135(2) 0.63089(17)
C6 C 0.6687(2) 0.4476(2) 0.59136(17)
C7 C 0.6982(3) 0.7418(2) 0.7457(2)
C8 C 0.5883(2) 0.3590(2) 0.67434(17)
C9 C 0.6408(3) 0.4308(2) 0.82117(19)
C10 C 0.5744(3) 0.3447(2) 0.89810(19)
C11 C 0.4543(3) 0.1841(2) 0.83160(19)
C12 C 0.4020(3) 0.1092(2) 0.6850(2)
C13 C 0.4694(2) 0.1977(2) 0.60873(19)
C14 C 0.2813(5) -0.0546(3) 0.8578(3)
N1 N 0.81135(19) 0.63122(16) 0.51849(14)
N2 N 0.9016(2) 0.76099(17) 0.48983(15)
N3 N 0.7064(2) 0.36629(16) 0.46035(14)
O1 O 0.7557(3) 0.88155(17) 0.76626(17)
O2 O 0.3969(2) 0.11251(16) 0.91904(14)
S1 S 0.88280(6) 0.49561(5) 0.27717(4)
H1 H 1.044(3) 0.917(3) 0.353(2)
H2 H 1.185(3) 0.834(2) 0.323(2)
H3 H 0.851(4) 0.721(3) 0.123(3)
H4 H 1.004(3) 0.641(3) 0.094(2)
H5 H 1.063(3) 0.819(3) 0.110(3)
H6 H 0.623(3) 0.707(2) 0.808(2)
H7 H 0.726(3) 0.536(2) 0.865(2)
H8 H 0.610(3) 0.392(2) 0.994(2)
H9 H 0.319(3) 0.002(3) 0.641(2)
H10 H 0.431(3) 0.146(2) 0.506(2)
H11 H 0.163(4) -0.070(3) 0.808(3)
H12 H 0.343(4) -0.113(3) 0.796(3)
H13 H 0.269(4) -0.078(3) 0.934(3)

#END
