./LICDUY_from_xyz.cif_generated_by_CrystalShift
_symmetry_cell_setting triclinic
_symmetry_space_group_name_H-M 'P 1'
loop_
_symmetry_equiv_pos_site_id
_symmetry_equiv_pos_as_xyz
1 x,y,z
_cell_length_a 7.093400
_cell_length_b 8.945200
_cell_length_c 15.861000
_cell_angle_alpha 89.387000
_cell_angle_beta 83.801000
_cell_angle_gamma 66.970000
_cell_volume 920.236457
loop_
_atom_site_label
_atom_site_type_symbol
_atom_site_fract_x
_atom_site_fract_y
_atom_site_fract_z
Cl1 Cl 1.581610 0.594270 0.257480
N2 N 1.090800 0.313800 0.222090
N3 N 1.100600 0.278100 0.308640
C4 C 0.995500 0.186600 0.324670
C5 C 0.911400 0.159500 0.251020
O6 O 0.936400 0.258350 0.108630
C7 C 0.972900 0.246900 0.184960
C8 C 1.191600 0.411100 0.185880
C9 C 1.326700 0.445500 0.232250
H10 H 1.353000 0.402500 0.285400
C11 C 1.421000 0.544700 0.197690
C12 C 1.388400 0.608400 0.118070
H13 H 1.453100 0.675200 0.096000
C14 C 1.256600 0.570100 0.072060
H15 H 1.234900 0.609800 0.018000
C16 C 1.157200 0.473600 0.105600
H17 H 1.067300 0.450400 0.074600
C18 C 0.973800 0.131300 0.412760
H19 H 1.046100 0.171700 0.448200
H20 H 1.030900 0.014600 0.412400
H21 H 0.830500 0.171800 0.434400
C22 C 0.789800 0.071000 0.238160
C23 C 0.759700 -0.041800 0.302480
C24 C 0.924300 -0.186900 0.313340
H25 H 1.050600 -0.211600 0.280900
C26 C 0.900100 -0.295300 0.372770
H27 H 1.010700 -0.392800 0.379100
C28 C 0.714700 -0.260800 0.422630
C29 C 0.550700 -0.114900 0.411210
H30 H 0.424900 -0.089800 0.444200
C31 C 0.571900 -0.006600 0.351650
H32 H 0.460500 0.089800 0.344500
C33 C 0.690500 -0.379000 0.487270
H34 H 0.783200 -0.487500 0.469200
H35 H 0.551200 -0.372200 0.492500
H36 H 0.721600 -0.352600 0.541200
N37 N 0.707000 0.085300 0.166320
H38 H 0.720100 0.158300 0.133300
C39 C 0.596700 -0.006200 0.135880
H40 H 0.464000 0.068100 0.120700
H41 H 0.572600 -0.074000 0.180400
C42 C 0.721000 -0.111400 0.059360
H43 H 0.849100 -0.192200 0.075100
H44 H 0.644000 -0.167100 0.036300
O45 O 0.762300 -0.007300 -0.001860
H46 H 0.865000 -0.066000 -0.031000
Cl47 Cl -0.581610 0.405730 0.742520
N48 N -0.090800 0.686200 0.777910
N49 N -0.100600 0.721900 0.691360
C50 C 0.004500 0.813400 0.675330
C51 C 0.088600 0.840500 0.748980
O52 O 0.063600 0.741650 0.891370
C53 C 0.027100 0.753100 0.815040
C54 C -0.191600 0.588900 0.814120
C55 C -0.326700 0.554500 0.767750
H56 H -0.353000 0.597500 0.714600
C57 C -0.421000 0.455300 0.802310
C58 C -0.388400 0.391600 0.881930
H59 H -0.453100 0.324800 0.904000
C60 C -0.256600 0.429900 0.927940
H61 H -0.234900 0.390200 0.982000
C62 C -0.157200 0.526400 0.894400
H63 H -0.067300 0.549600 0.925400
C64 C 0.026200 0.868700 0.587240
H65 H -0.046100 0.828300 0.551800
H66 H -0.030900 0.985400 0.587600
H67 H 0.169500 0.828200 0.565600
C68 C 0.210200 0.929000 0.761840
C69 C 0.240300 1.041800 0.697520
C70 C 0.075700 1.186900 0.686660
H71 H -0.050600 1.211600 0.719100
C72 C 0.099900 1.295300 0.627230
H73 H -0.010700 1.392800 0.620900
C74 C 0.285300 1.260800 0.577370
C75 C 0.449300 1.114900 0.588790
H76 H 0.575100 1.089800 0.555800
C77 C 0.428100 1.006600 0.648350
H78 H 0.539500 0.910200 0.655500
C79 C 0.309500 1.379000 0.512730
H80 H 0.216800 1.487500 0.530800
H81 H 0.448800 1.372200 0.507500
H82 H 0.278400 1.352600 0.458800
N83 N 0.293000 0.914700 0.833680
H84 H 0.279900 0.841700 0.866700
C85 C 0.403300 1.006200 0.864120
H86 H 0.536000 0.931900 0.879300
H87 H 0.427400 1.074000 0.819600
C88 C 0.279000 1.111400 0.940640
H89 H 0.150900 1.192200 0.924900
H90 H 0.356000 1.167100 0.963700
O91 O 0.237700 1.007300 1.001860
H92 H 0.135000 1.066000 1.031000

#END
