./LICGAH_from_xyz.cif_generated_by_CrystalShift
_symmetry_cell_setting triclinic
_symmetry_space_group_name_H-M 'P 1'
loop_
_symmetry_equiv_pos_site_id
_symmetry_equiv_pos_as_xyz
1 x,y,z
_cell_length_a 14.101100
_cell_length_b 5.721600
_cell_length_c 22.252000
_cell_angle_alpha 90.000000
_cell_angle_beta 104.247000
_cell_angle_gamma 90.000000
_cell_volume 1740.093430
loop_
_atom_site_label
_atom_site_type_symbol
_atom_site_fract_x
_atom_site_fract_y
_atom_site_fract_z
C1 C 0.096200 0.511200 0.432780
H2 H 0.126600 0.399200 0.461400
C3 C 0.045100 0.687500 0.450970
H4 H 0.041500 0.696900 0.492100
C5 C -0.001600 0.853300 0.408610
H6 H -0.036400 0.973300 0.421500
C7 C 0.002820 0.842700 0.348140
H8 H -0.029400 0.955300 0.320400
C9 C 0.055370 0.664300 0.326850
C10 C 0.061280 0.649500 0.263850
C11 C 0.115530 0.472000 0.247800
C12 C 0.165650 0.307300 0.291150
H13 H 0.203000 0.190800 0.279000
C14 C 0.158900 0.320400 0.350850
H15 H 0.191600 0.210700 0.379400
C16 C 0.103600 0.496600 0.370560
C17 C 0.014230 0.828900 0.216080
H18 H 0.030700 0.982800 0.235100
C19 C -0.096600 0.817200 0.195060
C20 C -0.151420 0.633400 0.208900
H21 H -0.119800 0.508200 0.232100
C22 C -0.252100 0.632500 0.188920
H23 H -0.287500 0.507300 0.198800
C24 C -0.300400 0.814700 0.154640
H25 H -0.368300 0.814400 0.141400
C26 C -0.247000 0.998000 0.140070
H27 H -0.278800 1.122000 0.116400
C28 C -0.146800 0.998300 0.160370
H29 H -0.111800 1.124200 0.150400
C30 C 0.064160 0.586400 0.141320
H31 H -0.001500 0.517300 0.131100
C32 C 0.103690 0.570500 0.084500
C33 C 0.086500 0.748900 0.041670
H34 H 0.051200 0.879200 0.048500
C35 C 0.120800 0.737800 -0.011390
H36 H 0.108700 0.860400 -0.039700
C37 C 0.172600 0.546300 -0.022390
H38 H 0.196200 0.538400 -0.057900
C39 C 0.189100 0.367200 0.019550
H40 H 0.223300 0.235700 0.012100
C41 C 0.155500 0.378900 0.072960
H42 H 0.168100 0.256300 0.101300
N43 N 0.055620 0.819500 0.161200
O44 O 0.126720 0.439300 0.188530
H45 H 0.117000 0.886000 0.170900
C46 C 0.403800 0.011200 0.067220
H47 H 0.373400 -0.100800 0.038600
C48 C 0.454900 0.187500 0.049030
H49 H 0.458500 0.196900 0.007900
C50 C 0.501600 0.353300 0.091390
H51 H 0.536400 0.473300 0.078500
C52 C 0.497180 0.342700 0.151860
H53 H 0.529400 0.455300 0.179600
C54 C 0.444630 0.164300 0.173150
C55 C 0.438720 0.149500 0.236150
C56 C 0.384470 -0.028000 0.252200
C57 C 0.334350 -0.192700 0.208850
H58 H 0.297000 -0.309200 0.221000
C59 C 0.341100 -0.179600 0.149150
H60 H 0.308400 -0.289300 0.120600
C61 C 0.396400 -0.003400 0.129440
C62 C 0.485770 0.328900 0.283920
H63 H 0.469300 0.482800 0.264900
C64 C 0.596600 0.317200 0.304940
C65 C 0.651420 0.133400 0.291100
H66 H 0.619800 0.008200 0.267900
C67 C 0.752100 0.132500 0.311080
H68 H 0.787500 0.007300 0.301200
C69 C 0.800400 0.314700 0.345360
H70 H 0.868300 0.314400 0.358600
C71 C 0.747000 0.498000 0.359930
H72 H 0.778800 0.622000 0.383600
C73 C 0.646800 0.498300 0.339630
H74 H 0.611800 0.624200 0.349600
C75 C 0.435840 0.086400 0.358680
H76 H 0.501500 0.017300 0.368900
C77 C 0.396310 0.070500 0.415500
C78 C 0.413500 0.248900 0.458330
H79 H 0.448800 0.379200 0.451500
C80 C 0.379200 0.237800 0.511390
H81 H 0.391300 0.360400 0.539700
C82 C 0.327400 0.046300 0.522390
H83 H 0.303800 0.038400 0.557900
C84 C 0.310900 -0.132800 0.480450
H85 H 0.276700 -0.264300 0.487900
C86 C 0.344500 -0.121100 0.427040
H87 H 0.331900 -0.243700 0.398700
N88 N 0.444380 0.319500 0.338800
O89 O 0.373280 -0.060700 0.311470
H90 H 0.383000 0.386000 0.329100
C91 C 0.903800 0.488800 0.567220
H92 H 0.873400 0.600800 0.538600
C93 C 0.954900 0.312500 0.549030
H94 H 0.958500 0.303100 0.507900
C95 C 1.001600 0.146700 0.591390
H96 H 1.036400 0.026700 0.578500
C97 C 0.997180 0.157300 0.651860
H98 H 1.029400 0.044700 0.679600
C99 C 0.944630 0.335700 0.673150
C100 C 0.938720 0.350500 0.736150
C101 C 0.884470 0.528000 0.752200
C102 C 0.834350 0.692700 0.708850
H103 H 0.797000 0.809200 0.721000
C104 C 0.841100 0.679600 0.649150
H105 H 0.808400 0.789300 0.620600
C106 C 0.896400 0.503400 0.629440
C107 C 0.985770 0.171100 0.783920
H108 H 0.969300 0.017200 0.764900
C109 C 1.096600 0.182800 0.804940
C110 C 1.151420 0.366600 0.791100
H111 H 1.119800 0.491800 0.767900
C112 C 1.252100 0.367500 0.811080
H113 H 1.287500 0.492700 0.801200
C114 C 1.300400 0.185300 0.845360
H115 H 1.368300 0.185600 0.858600
C116 C 1.247000 0.002000 0.859930
H117 H 1.278800 -0.122000 0.883600
C118 C 1.146800 0.001700 0.839630
H119 H 1.111800 -0.124200 0.849600
C120 C 0.935840 0.413600 0.858680
H121 H 1.001500 0.482700 0.868900
C122 C 0.896310 0.429500 0.915500
C123 C 0.913500 0.251100 0.958330
H124 H 0.948800 0.120800 0.951500
C125 C 0.879200 0.262200 1.011390
H126 H 0.891300 0.139600 1.039700
C127 C 0.827400 0.453700 1.022390
H128 H 0.803800 0.461600 1.057900
C129 C 0.810900 0.632800 0.980450
H130 H 0.776700 0.764300 0.987900
C131 C 0.844500 0.621100 0.927040
H132 H 0.831900 0.743700 0.898700
N133 N 0.944380 0.180500 0.838800
O134 O 0.873280 0.560700 0.811470
H135 H 0.883000 0.114000 0.829100
C136 C 0.596200 0.988800 0.932780
H137 H 0.626600 1.100800 0.961400
C138 C 0.545100 0.812500 0.950970
H139 H 0.541500 0.803100 0.992100
C140 C 0.498400 0.646700 0.908610
H141 H 0.463600 0.526700 0.921500
C142 C 0.502820 0.657300 0.848140
H143 H 0.470600 0.544700 0.820400
C144 C 0.555370 0.835700 0.826850
C145 C 0.561280 0.850500 0.763850
C146 C 0.615530 1.028000 0.747800
C147 C 0.665650 1.192700 0.791150
H148 H 0.703000 1.309200 0.779000
C149 C 0.658900 1.179600 0.850850
H150 H 0.691600 1.289300 0.879400
C151 C 0.603600 1.003400 0.870560
C152 C 0.514230 0.671100 0.716080
H153 H 0.530700 0.517200 0.735100
C154 C 0.403400 0.682800 0.695060
C155 C 0.348580 0.866600 0.708900
H156 H 0.380200 0.991800 0.732100
C157 C 0.247900 0.867500 0.688920
H158 H 0.212500 0.992700 0.698800
C159 C 0.199600 0.685300 0.654640
H160 H 0.131700 0.685600 0.641400
C161 C 0.253000 0.502000 0.640070
H162 H 0.221200 0.378000 0.616400
C163 C 0.353200 0.501700 0.660370
H164 H 0.388200 0.375800 0.650400
C165 C 0.564160 0.913600 0.641320
H166 H 0.498500 0.982700 0.631100
C167 C 0.603690 0.929500 0.584500
C168 C 0.586500 0.751100 0.541670
H169 H 0.551200 0.620800 0.548500
C170 C 0.620800 0.762200 0.488610
H171 H 0.608700 0.639600 0.460300
C172 C 0.672600 0.953700 0.477610
H173 H 0.696200 0.961600 0.442100
C174 C 0.689100 1.132800 0.519550
H175 H 0.723300 1.264300 0.512100
C176 C 0.655500 1.121100 0.572960
H177 H 0.668100 1.243700 0.601300
N178 N 0.555620 0.680500 0.661200
O179 O 0.626720 1.060700 0.688530
H180 H 0.617000 0.614000 0.670900

#END
