./LICHEL_from_xyz.cif_generated_by_CrystalShift
_symmetry_cell_setting triclinic
_symmetry_space_group_name_H-M 'P 1'
loop_
_symmetry_equiv_pos_site_id
_symmetry_equiv_pos_as_xyz
1 x,y,z
_cell_length_a 7.960200
_cell_length_b 11.613500
_cell_length_c 26.586000
_cell_angle_alpha 90.000000
_cell_angle_beta 90.000000
_cell_angle_gamma 90.000000
_cell_volume 2457.763579
loop_
_atom_site_label
_atom_site_type_symbol
_atom_site_fract_x
_atom_site_fract_y
_atom_site_fract_z
C1 C 0.442900 0.638600 0.996400
C2 C 0.345700 0.527500 0.991700
C3 C 0.159200 0.527400 0.985200
H4 H 0.109300 0.584500 1.008500
H5 H 0.115000 0.450600 0.994500
C6 C 0.105400 0.555500 0.932100
H7 H 0.146200 0.632300 0.923000
H8 H -0.017500 0.553900 0.930000
H9 H 0.152600 0.498400 0.908900
C10 C 0.455100 0.441600 0.993200
C11 C 0.431300 0.315700 0.988000
H12 H 0.310300 0.297300 0.991100
H13 H 0.491400 0.276000 1.015600
C14 C 0.496500 0.270900 0.937400
H15 H 0.440600 0.312300 0.909900
H16 H 0.472400 0.188400 0.934500
H17 H 0.618000 0.283400 0.935300
C18 C 0.629300 0.491500 1.000400
N19 N 0.610200 0.610100 1.002000
H20 H 0.692500 0.659800 1.006000
O21 O 0.388200 0.735300 0.995060
O22 O 0.759700 0.441000 1.003970
C23 C 0.057100 0.361400 0.496400
C24 C 0.154300 0.472500 0.491700
C25 C 0.340800 0.472600 0.485200
H26 H 0.390700 0.415500 0.508500
H27 H 0.385000 0.549400 0.494500
C28 C 0.394600 0.444500 0.432100
H29 H 0.353800 0.367700 0.423000
H30 H 0.517500 0.446100 0.430000
H31 H 0.347400 0.501600 0.408900
C32 C 0.044900 0.558400 0.493200
C33 C 0.068700 0.684300 0.488000
H34 H 0.189700 0.702700 0.491100
H35 H 0.008600 0.724000 0.515600
C36 C 0.003500 0.729100 0.437400
H37 H 0.059400 0.687700 0.409900
H38 H 0.027600 0.811600 0.434500
H39 H -0.118000 0.716600 0.435300
C40 C -0.129300 0.508500 0.500400
N41 N -0.110200 0.389900 0.502000
H42 H -0.192500 0.340200 0.506000
O43 O 0.111800 0.264700 0.495060
O44 O -0.259700 0.559000 0.503970
C45 C 0.942900 -0.138600 0.003600
C46 C 0.845700 -0.027500 0.008300
C47 C 0.659200 -0.027400 0.014800
H48 H 0.609300 -0.084500 -0.008500
H49 H 0.615000 0.049400 0.005500
C50 C 0.605400 -0.055500 0.067900
H51 H 0.646200 -0.132300 0.077000
H52 H 0.482500 -0.053900 0.070000
H53 H 0.652600 0.001600 0.091100
C54 C 0.955100 0.058400 0.006800
C55 C 0.931300 0.184300 0.012000
H56 H 0.810300 0.202700 0.008900
H57 H 0.991400 0.224000 -0.015600
C58 C 0.996500 0.229100 0.062600
H59 H 0.940600 0.187700 0.090100
H60 H 0.972400 0.311600 0.065500
H61 H 1.118000 0.216600 0.064700
C62 C 1.129300 0.008500 -0.000400
N63 N 1.110200 -0.110100 -0.002000
H64 H 1.192500 -0.159800 -0.006000
O65 O 0.888200 -0.235300 0.004940
O66 O 1.259700 0.059000 -0.003970
C67 C 0.557100 1.138600 0.503600
C68 C 0.654300 1.027500 0.508300
C69 C 0.840800 1.027400 0.514800
H70 H 0.890700 1.084500 0.491500
H71 H 0.885000 0.950600 0.505500
C72 C 0.894600 1.055500 0.567900
H73 H 0.853800 1.132300 0.577000
H74 H 1.017500 1.053900 0.570000
H75 H 0.847400 0.998400 0.591100
C76 C 0.544900 0.941600 0.506800
C77 C 0.568700 0.815700 0.512000
H78 H 0.689700 0.797300 0.508900
H79 H 0.508600 0.776000 0.484400
C80 C 0.503500 0.770900 0.562600
H81 H 0.559400 0.812300 0.590100
H82 H 0.527600 0.688400 0.565500
H83 H 0.382000 0.783400 0.564700
C84 C 0.370700 0.991500 0.499600
N85 N 0.389800 1.110100 0.498000
H86 H 0.307500 1.159800 0.494000
O87 O 0.611800 1.235300 0.504940
O88 O 0.240300 0.941000 0.496030
C89 C 0.588400 0.132400 0.808500
C90 C 0.415800 0.084300 0.816000
C91 C 0.387700 -0.040400 0.824800
H92 H 0.456300 -0.085200 0.800700
H93 H 0.268100 -0.058800 0.818500
C94 C 0.433800 -0.076000 0.878400
H95 H 0.551700 -0.056700 0.885000
H96 H 0.417600 -0.159200 0.882300
H97 H 0.361800 -0.035000 0.902300
C98 C 0.305900 0.170800 0.813500
C99 C 0.119200 0.174400 0.820300
H100 H 0.071800 0.098000 0.812000
H101 H 0.070900 0.231100 0.796600
C102 C 0.068700 0.206200 0.873000
H103 H 0.117400 0.151000 0.896700
H104 H -0.054000 0.204700 0.875800
H105 H 0.109800 0.283700 0.880800
C106 C 0.403400 0.279900 0.802300
N107 N 0.571300 0.248800 0.801020
H108 H 0.655200 0.296900 0.796100
O109 O 0.719900 0.079800 0.808700
O110 O 0.349900 0.376100 0.796500
C111 C -0.088400 0.867600 0.308500
C112 C 0.084200 0.915700 0.316000
C113 C 0.112300 1.040400 0.324800
H114 H 0.043700 1.085200 0.300700
H115 H 0.231900 1.058800 0.318500
C116 C 0.066200 1.076000 0.378400
H117 H -0.051700 1.056700 0.385000
H118 H 0.082400 1.159200 0.382300
H119 H 0.138200 1.035000 0.402300
C120 C 0.194100 0.829200 0.313500
C121 C 0.380800 0.825600 0.320300
H122 H 0.428200 0.902000 0.312000
H123 H 0.429100 0.768900 0.296600
C124 C 0.431300 0.793800 0.373000
H125 H 0.382600 0.849000 0.396700
H126 H 0.554000 0.795300 0.375800
H127 H 0.390200 0.716300 0.380800
C128 C 0.096600 0.720100 0.302300
N129 N -0.071300 0.751200 0.301020
H130 H -0.155200 0.703100 0.296100
O131 O -0.219900 0.920200 0.308700
O132 O 0.150100 0.623900 0.296500
C133 C 1.088400 0.367600 0.191500
C134 C 0.915800 0.415700 0.184000
C135 C 0.887700 0.540400 0.175200
H136 H 0.956300 0.585200 0.199300
H137 H 0.768100 0.558800 0.181500
C138 C 0.933800 0.576000 0.121600
H139 H 1.051700 0.556700 0.115000
H140 H 0.917600 0.659200 0.117700
H141 H 0.861800 0.535000 0.097700
C142 C 0.805900 0.329200 0.186500
C143 C 0.619200 0.325600 0.179700
H144 H 0.571800 0.402000 0.188000
H145 H 0.570900 0.268900 0.203400
C146 C 0.568700 0.293800 0.127000
H147 H 0.617400 0.349000 0.103300
H148 H 0.446000 0.295300 0.124200
H149 H 0.609800 0.216300 0.119200
C150 C 0.903400 0.220100 0.197700
N151 N 1.071300 0.251200 0.198980
H152 H 1.155200 0.203100 0.203900
O153 O 1.219900 0.420200 0.191300
O154 O 0.849900 0.123900 0.203500
C155 C 0.411600 0.632400 0.691500
C156 C 0.584200 0.584300 0.684000
C157 C 0.612300 0.459600 0.675200
H158 H 0.543700 0.414800 0.699300
H159 H 0.731900 0.441200 0.681500
C160 C 0.566200 0.424000 0.621600
H161 H 0.448300 0.443300 0.615000
H162 H 0.582400 0.340800 0.617700
H163 H 0.638200 0.465000 0.597700
C164 C 0.694100 0.670800 0.686500
C165 C 0.880800 0.674400 0.679700
H166 H 0.928200 0.598000 0.688000
H167 H 0.929100 0.731100 0.703400
C168 C 0.931300 0.706200 0.627000
H169 H 0.882600 0.651000 0.603300
H170 H 1.054000 0.704700 0.624200
H171 H 0.890200 0.783700 0.619200
C172 C 0.596600 0.779900 0.697700
N173 N 0.428700 0.748800 0.698980
H174 H 0.344800 0.796900 0.703900
O175 O 0.280100 0.579800 0.691300
O176 O 0.650100 0.876100 0.703500
C177 C 0.904200 0.504400 0.799600
C178 C 0.808400 0.612400 0.809100
C179 C 0.621100 0.610800 0.815900
H180 H 0.570800 0.554100 0.792600
H181 H 0.574500 0.687600 0.807800
C182 C 0.575400 0.579100 0.870000
H183 H 0.622700 0.503500 0.878200
H184 H 0.452900 0.576500 0.873500
H185 H 0.621400 0.637100 0.893000
C186 C 0.917000 0.699300 0.811000
C187 C 0.890000 0.824900 0.819500
H188 H 0.772000 0.844400 0.811400
H189 H 0.963400 0.869000 0.796400
C190 C 0.927500 0.860900 0.873700
H191 H 0.854700 0.817800 0.896700
H192 H 0.906500 0.943500 0.877600
H193 H 1.045400 0.844300 0.881500
C194 C 1.092000 0.650800 0.804400
N195 N 1.072500 0.534100 0.797660
H196 H 1.155300 0.485200 0.792800
O197 O 0.851500 0.407800 0.793910
O198 O 1.223700 0.702900 0.805270
C199 C 0.595800 0.495600 0.299600
C200 C 0.691600 0.387600 0.309100
C201 C 0.878900 0.389200 0.315900
H202 H 0.929200 0.445900 0.292600
H203 H 0.925500 0.312400 0.307800
C204 C 0.924600 0.420900 0.370000
H205 H 0.877300 0.496500 0.378200
H206 H 1.047100 0.423500 0.373500
H207 H 0.878600 0.362900 0.393000
C208 C 0.583000 0.300700 0.311000
C209 C 0.610000 0.175100 0.319500
H210 H 0.728000 0.155600 0.311400
H211 H 0.536600 0.131000 0.296400
C212 C 0.572500 0.139100 0.373700
H213 H 0.645300 0.182200 0.396700
H214 H 0.593500 0.056500 0.377600
H215 H 0.454600 0.155700 0.381500
C216 C 0.408000 0.349200 0.304400
N217 N 0.427500 0.465900 0.297660
H218 H 0.344700 0.514800 0.292800
O219 O 0.648500 0.592200 0.293910
O220 O 0.276300 0.297100 0.305270
C221 C 0.404200 0.995600 0.200400
C222 C 0.308400 0.887600 0.190900
C223 C 0.121100 0.889200 0.184100
H224 H 0.070800 0.945900 0.207400
H225 H 0.074500 0.812400 0.192200
C226 C 0.075400 0.920900 0.130000
H227 H 0.122700 0.996500 0.121800
H228 H -0.047100 0.923500 0.126500
H229 H 0.121400 0.862900 0.107000
C230 C 0.417000 0.800700 0.189000
C231 C 0.390000 0.675100 0.180500
H232 H 0.272000 0.655600 0.188600
H233 H 0.463400 0.631000 0.203600
C234 C 0.427500 0.639100 0.126300
H235 H 0.354700 0.682200 0.103300
H236 H 0.406500 0.556500 0.122400
H237 H 0.545400 0.655700 0.118500
C238 C 0.592000 0.849200 0.195600
N239 N 0.572500 0.965900 0.202340
H240 H 0.655300 1.014800 0.207200
O241 O 0.351500 1.092200 0.206090
O242 O 0.723700 0.797100 0.194730
C243 C 0.095800 0.004400 0.700400
C244 C 0.191600 0.112400 0.690900
C245 C 0.378900 0.110800 0.684100
H246 H 0.429200 0.054100 0.707400
H247 H 0.425500 0.187600 0.692200
C248 C 0.424600 0.079100 0.630000
H249 H 0.377300 0.003500 0.621800
H250 H 0.547100 0.076500 0.626500
H251 H 0.378600 0.137100 0.607000
C252 C 0.083000 0.199300 0.689000
C253 C 0.110000 0.324900 0.680500
H254 H 0.228000 0.344400 0.688600
H255 H 0.036600 0.369000 0.703600
C256 C 0.072500 0.360900 0.626300
H257 H 0.145300 0.317800 0.603300
H258 H 0.093500 0.443500 0.622400
H259 H -0.045400 0.344300 0.618500
C260 C -0.092000 0.150800 0.695600
N261 N -0.072500 0.034100 0.702340
H262 H -0.155300 -0.014800 0.707200
O263 O 0.148500 -0.092200 0.706090
O264 O -0.223700 0.202900 0.694730

#END
