./LICHOV_from_xyz.cif_generated_by_CrystalShift
_symmetry_cell_setting triclinic
_symmetry_space_group_name_H-M 'P 1'
loop_
_symmetry_equiv_pos_site_id
_symmetry_equiv_pos_as_xyz
1 x,y,z
_cell_length_a 8.252600
_cell_length_b 6.521000
_cell_length_c 19.770700
_cell_angle_alpha 90.000000
_cell_angle_beta 90.000000
_cell_angle_gamma 90.000000
_cell_volume 1063.964266
loop_
_atom_site_label
_atom_site_type_symbol
_atom_site_fract_x
_atom_site_fract_y
_atom_site_fract_z
O1 O 0.551530 0.750000 0.355910
O2 O 0.812030 0.750000 0.391780
O3 O 0.749130 0.750000 0.593670
O4 O 0.743540 0.750000 0.724550
N5 N 0.619980 0.750000 0.469410
C6 C 0.469000 0.750000 0.501340
C7 C 0.463110 0.750000 0.573330
C8 C 0.311000 0.750000 0.605280
C9 C 0.168500 0.750000 0.568900
C10 C 0.176200 0.750000 0.498420
C11 C 0.323200 0.750000 0.465040
C12 C 0.650400 0.750000 0.401500
C13 C 0.862200 0.750000 0.321240
C14 C 1.044700 0.750000 0.320770
C15 C 0.609400 0.750000 0.615910
C16 C 0.590400 0.750000 0.692380
H17 H 0.705300 0.750000 0.496100
H18 H 0.306200 0.750000 0.653300
H19 H 0.066800 0.750000 0.591400
H20 H 0.078600 0.750000 0.472900
H21 H 0.325500 0.750000 0.417000
H22 H 0.820200 0.873300 0.297900
H23 H 0.820200 0.626700 0.297900
H24 H 1.083600 0.750000 0.273900
H25 H 1.084600 0.627300 0.344000
H26 H 1.084600 0.872700 0.344000
H27 H 0.528600 0.872900 0.706500
H28 H 0.528600 0.627100 0.706500
O29 O 0.948470 0.250000 0.855910
O30 O 0.687970 0.250000 0.891780
O31 O 0.750870 0.250000 1.093670
O32 O 0.756460 0.250000 1.224550
N33 N 0.880020 0.250000 0.969410
C34 C 1.031000 0.250000 1.001340
C35 C 1.036890 0.250000 1.073330
C36 C 1.189000 0.250000 1.105280
C37 C 1.331500 0.250000 1.068900
C38 C 1.323800 0.250000 0.998420
C39 C 1.176800 0.250000 0.965040
C40 C 0.849600 0.250000 0.901500
C41 C 0.637800 0.250000 0.821240
C42 C 0.455300 0.250000 0.820770
C43 C 0.890600 0.250000 1.115910
C44 C 0.909600 0.250000 1.192380
H45 H 0.794700 0.250000 0.996100
H46 H 1.193800 0.250000 1.153300
H47 H 1.433200 0.250000 1.091400
H48 H 1.421400 0.250000 0.972900
H49 H 1.174500 0.250000 0.917000
H50 H 0.679800 0.126700 0.797900
H51 H 0.679800 0.373300 0.797900
H52 H 0.416400 0.250000 0.773900
H53 H 0.415400 0.372700 0.844000
H54 H 0.415400 0.127300 0.844000
H55 H 0.971400 0.127100 1.206500
H56 H 0.971400 0.372900 1.206500
O57 O 0.051530 0.750000 0.144090
O58 O 0.312030 0.750000 0.108220
O59 O 0.249130 0.750000 -0.093670
O60 O 0.243540 0.750000 -0.224550
N61 N 0.119980 0.750000 0.030590
C62 C -0.031000 0.750000 -0.001340
C63 C -0.036890 0.750000 -0.073330
C64 C -0.189000 0.750000 -0.105280
C65 C -0.331500 0.750000 -0.068900
C66 C -0.323800 0.750000 0.001580
C67 C -0.176800 0.750000 0.034960
C68 C 0.150400 0.750000 0.098500
C69 C 0.362200 0.750000 0.178760
C70 C 0.544700 0.750000 0.179230
C71 C 0.109400 0.750000 -0.115910
C72 C 0.090400 0.750000 -0.192380
H73 H 0.205300 0.750000 0.003900
H74 H -0.193800 0.750000 -0.153300
H75 H -0.433200 0.750000 -0.091400
H76 H -0.421400 0.750000 0.027100
H77 H -0.174500 0.750000 0.083000
H78 H 0.320200 0.626700 0.202100
H79 H 0.320200 0.873300 0.202100
H80 H 0.583600 0.750000 0.226100
H81 H 0.584600 0.872700 0.156000
H82 H 0.584600 0.627300 0.156000
H83 H 0.028600 0.627100 -0.206500
H84 H 0.028600 0.872900 -0.206500
O85 O 0.448470 0.250000 0.644090
O86 O 0.187970 0.250000 0.608220
O87 O 0.250870 0.250000 0.406330
O88 O 0.256460 0.250000 0.275450
N89 N 0.380020 0.250000 0.530590
C90 C 0.531000 0.250000 0.498660
C91 C 0.536890 0.250000 0.426670
C92 C 0.689000 0.250000 0.394720
C93 C 0.831500 0.250000 0.431100
C94 C 0.823800 0.250000 0.501580
C95 C 0.676800 0.250000 0.534960
C96 C 0.349600 0.250000 0.598500
C97 C 0.137800 0.250000 0.678760
C98 C -0.044700 0.250000 0.679230
C99 C 0.390600 0.250000 0.384090
C100 C 0.409600 0.250000 0.307620
H101 H 0.294700 0.250000 0.503900
H102 H 0.693800 0.250000 0.346700
H103 H 0.933200 0.250000 0.408600
H104 H 0.921400 0.250000 0.527100
H105 H 0.674500 0.250000 0.583000
H106 H 0.179800 0.373300 0.702100
H107 H 0.179800 0.126700 0.702100
H108 H -0.083600 0.250000 0.726100
H109 H -0.084600 0.127300 0.656000
H110 H -0.084600 0.372700 0.656000
H111 H 0.471400 0.372900 0.293500
H112 H 0.471400 0.127100 0.293500
H113 H 0.816800 0.762400 0.695300
H114 H 0.683200 0.237600 0.195300
H115 H 0.316800 0.737600 0.804700
H116 H 0.183200 0.262400 0.304700
H117 H 0.183200 0.237600 0.304700
H118 H 0.316800 0.762400 0.804700
H119 H 0.683200 0.262400 0.195300
H120 H 0.816800 0.737600 0.695300

#END
