./LICJUD_from_xyz.cif_generated_by_CrystalShift
_symmetry_cell_setting triclinic
_symmetry_space_group_name_H-M 'P 1'
loop_
_symmetry_equiv_pos_site_id
_symmetry_equiv_pos_as_xyz
1 x,y,z
_cell_length_a 10.780000
_cell_length_b 11.880000
_cell_length_c 11.470000
_cell_angle_alpha 90.000000
_cell_angle_beta 114.820000
_cell_angle_gamma 90.000000
_cell_volume 1333.238843
loop_
_atom_site_label
_atom_site_type_symbol
_atom_site_fract_x
_atom_site_fract_y
_atom_site_fract_z
O1 O 0.184580 0.582140 0.097200
O2 O 0.232900 0.400820 0.141990
H3 H 0.198300 0.395900 0.061500
O4 O 0.212400 0.719310 0.282900
H5 H 0.194400 0.699100 0.207300
C6 C 0.226270 0.505000 0.175310
C7 C 0.271130 0.521520 0.314650
C8 C 0.261630 0.629900 0.363580
C9 C 0.300150 0.645140 0.492050
H10 H 0.294000 0.718000 0.523400
C11 C 0.387700 0.566000 0.713200
H12 H 0.383100 0.637800 0.747600
C13 C 0.431200 0.475400 0.792800
H14 H 0.456600 0.485100 0.882100
C15 C 0.439410 0.368100 0.745700
H16 H 0.469600 0.305700 0.802700
C17 C 0.403930 0.353610 0.617950
H18 H 0.409900 0.280900 0.586100
C19 C 0.319360 0.433050 0.399280
H20 H 0.326700 0.360900 0.367000
C21 C 0.358240 0.445760 0.531900
C22 C 0.349090 0.554250 0.579410
O23 O 0.815420 0.082140 0.402800
O24 O 0.767100 -0.099180 0.358010
H25 H 0.801700 -0.104100 0.438500
O26 O 0.787600 0.219310 0.217100
H27 H 0.805600 0.199100 0.292700
C28 C 0.773730 0.005000 0.324690
C29 C 0.728870 0.021520 0.185350
C30 C 0.738370 0.129900 0.136420
C31 C 0.699850 0.145140 0.007950
H32 H 0.706000 0.218000 -0.023400
C33 C 0.612300 0.066000 -0.213200
H34 H 0.616900 0.137800 -0.247600
C35 C 0.568800 -0.024600 -0.292800
H36 H 0.543400 -0.014900 -0.382100
C37 C 0.560590 -0.131900 -0.245700
H38 H 0.530400 -0.194300 -0.302700
C39 C 0.596070 -0.146390 -0.117950
H40 H 0.590100 -0.219100 -0.086100
C41 C 0.680640 -0.066950 0.100720
H42 H 0.673300 -0.139100 0.133000
C43 C 0.641760 -0.054240 -0.031900
C44 C 0.650910 0.054250 -0.079410
O45 O 0.815420 0.417860 0.902800
O46 O 0.767100 0.599180 0.858010
H47 H 0.801700 0.604100 0.938500
O48 O 0.787600 0.280690 0.717100
H49 H 0.805600 0.300900 0.792700
C50 C 0.773730 0.495000 0.824690
C51 C 0.728870 0.478480 0.685350
C52 C 0.738370 0.370100 0.636420
C53 C 0.699850 0.354860 0.507950
H54 H 0.706000 0.282000 0.476600
C55 C 0.612300 0.434000 0.286800
H56 H 0.616900 0.362200 0.252400
C57 C 0.568800 0.524600 0.207200
H58 H 0.543400 0.514900 0.117900
C59 C 0.560590 0.631900 0.254300
H60 H 0.530400 0.694300 0.197300
C61 C 0.596070 0.646390 0.382050
H62 H 0.590100 0.719100 0.413900
C63 C 0.680640 0.566950 0.600720
H64 H 0.673300 0.639100 0.633000
C65 C 0.641760 0.554240 0.468100
C66 C 0.650910 0.445750 0.420590
O67 O 0.184580 0.917860 0.597200
O68 O 0.232900 1.099180 0.641990
H69 H 0.198300 1.104100 0.561500
O70 O 0.212400 0.780690 0.782900
H71 H 0.194400 0.800900 0.707300
C72 C 0.226270 0.995000 0.675310
C73 C 0.271130 0.978480 0.814650
C74 C 0.261630 0.870100 0.863580
C75 C 0.300150 0.854860 0.992050
H76 H 0.294000 0.782000 1.023400
C77 C 0.387700 0.934000 1.213200
H78 H 0.383100 0.862200 1.247600
C79 C 0.431200 1.024600 1.292800
H80 H 0.456600 1.014900 1.382100
C81 C 0.439410 1.131900 1.245700
H82 H 0.469600 1.194300 1.302700
C83 C 0.403930 1.146390 1.117950
H84 H 0.409900 1.219100 1.086100
C85 C 0.319360 1.066950 0.899280
H86 H 0.326700 1.139100 0.867000
C87 C 0.358240 1.054240 1.031900
C88 C 0.349090 0.945750 1.079410
O89 O 0.145520 0.327390 0.918430
N90 N 0.107630 0.377780 0.805600
C91 C 0.090750 0.313870 0.703890
H92 H 0.107600 0.235200 0.715000
C93 C 0.049630 0.360080 0.584410
H94 H 0.038900 0.313100 0.513800
C95 C 0.085200 0.489190 0.791760
H96 H 0.098700 0.534300 0.864500
C97 C 0.042880 0.538110 0.672920
H98 H 0.026600 0.616900 0.664400
C99 C 0.023290 0.474650 0.564460
O100 O -0.145520 0.672610 0.081570
N101 N -0.107630 0.622220 0.194400
C102 C -0.090750 0.686130 0.296110
H103 H -0.107600 0.764800 0.285000
C104 C -0.049630 0.639920 0.415590
H105 H -0.038900 0.686900 0.486200
C106 C -0.085200 0.510810 0.208240
H107 H -0.098700 0.465700 0.135500
C108 C -0.042880 0.461890 0.327080
H109 H -0.026600 0.383100 0.335600
C110 C -0.023290 0.525350 0.435540
O111 O 1.145520 0.327390 0.918430
N112 N 1.107630 0.377780 0.805600
C113 C 1.090750 0.313870 0.703890
H114 H 1.107600 0.235200 0.715000
C115 C 1.049630 0.360080 0.584410
H116 H 1.038900 0.313100 0.513800
C117 C 1.085200 0.489190 0.791760
H118 H 1.098700 0.534300 0.864500
C119 C 1.042880 0.538110 0.672920
H120 H 1.026600 0.616900 0.664400
C121 C 1.023290 0.474650 0.564460
O122 O 0.854480 0.672610 0.081570
N123 N 0.892370 0.622220 0.194400
C124 C 0.909250 0.686130 0.296110
H125 H 0.892400 0.764800 0.285000
C126 C 0.950370 0.639920 0.415590
H127 H 0.961100 0.686900 0.486200
C128 C 0.914800 0.510810 0.208240
H129 H 0.901300 0.465700 0.135500
C130 C 0.957120 0.461890 0.327080
H131 H 0.973400 0.383100 0.335600
C132 C 0.976710 0.525350 0.435540
O133 O -0.145520 -0.172610 -0.418430
N134 N -0.107630 -0.122220 -0.305600
C135 C -0.090750 -0.186130 -0.203890
H136 H -0.107600 -0.264800 -0.215000
C137 C -0.049630 -0.139920 -0.084410
H138 H -0.038900 -0.186900 -0.013800
C139 C -0.085200 -0.010810 -0.291760
H140 H -0.098700 0.034300 -0.364500
C141 C -0.042880 0.038110 -0.172920
H142 H -0.026600 0.116900 -0.164400
C143 C -0.023290 -0.025350 -0.064460
O144 O 0.145520 0.172610 0.418430
N145 N 0.107630 0.122220 0.305600
C146 C 0.090750 0.186130 0.203890
H147 H 0.107600 0.264800 0.215000
C148 C 0.049630 0.139920 0.084410
H149 H 0.038900 0.186900 0.013800
C150 C 0.085200 0.010810 0.291760
H151 H 0.098700 -0.034300 0.364500
C152 C 0.042880 -0.038110 0.172920
H153 H 0.026600 -0.116900 0.164400
C154 C 0.023290 0.025350 0.064460
O155 O -0.145520 -0.172610 0.581570
N156 N -0.107630 -0.122220 0.694400
C157 C -0.090750 -0.186130 0.796110
H158 H -0.107600 -0.264800 0.785000
C159 C -0.049630 -0.139920 0.915590
H160 H -0.038900 -0.186900 0.986200
C161 C -0.085200 -0.010810 0.708240
H162 H -0.098700 0.034300 0.635500
C163 C -0.042880 0.038110 0.827080
H164 H -0.026600 0.116900 0.835600
C165 C -0.023290 -0.025350 0.935540
O166 O 0.145520 0.172610 1.418430
N167 N 0.107630 0.122220 1.305600
C168 C 0.090750 0.186130 1.203890
H169 H 0.107600 0.264800 1.215000
C170 C 0.049630 0.139920 1.084410
H171 H 0.038900 0.186900 1.013800
C172 C 0.085200 0.010810 1.291760
H173 H 0.098700 -0.034300 1.364500
C174 C 0.042880 -0.038110 1.172920
H175 H 0.026600 -0.116900 1.164400
C176 C 0.023290 0.025350 1.064460
O177 O -0.145520 0.827390 -0.418430
N178 N -0.107630 0.877780 -0.305600
C179 C -0.090750 0.813870 -0.203890
H180 H -0.107600 0.735200 -0.215000
C181 C -0.049630 0.860080 -0.084410
H182 H -0.038900 0.813100 -0.013800
C183 C -0.085200 0.989190 -0.291760
H184 H -0.098700 1.034300 -0.364500
C185 C -0.042880 1.038110 -0.172920
H186 H -0.026600 1.116900 -0.164400
C187 C -0.023290 0.974650 -0.064460
O188 O 0.145520 1.172610 0.418430
N189 N 0.107630 1.122220 0.305600
C190 C 0.090750 1.186130 0.203890
H191 H 0.107600 1.264800 0.215000
C192 C 0.049630 1.139920 0.084410
H193 H 0.038900 1.186900 0.013800
C194 C 0.085200 1.010810 0.291760
H195 H 0.098700 0.965700 0.364500
C196 C 0.042880 0.961890 0.172920
H197 H 0.026600 0.883100 0.164400
C198 C 0.023290 1.025350 0.064460
O199 O -0.145520 0.827390 0.581570
N200 N -0.107630 0.877780 0.694400
C201 C -0.090750 0.813870 0.796110
H202 H -0.107600 0.735200 0.785000
C203 C -0.049630 0.860080 0.915590
H204 H -0.038900 0.813100 0.986200
C205 C -0.085200 0.989190 0.708240
H206 H -0.098700 1.034300 0.635500
C207 C -0.042880 1.038110 0.827080
H208 H -0.026600 1.116900 0.835600
C209 C -0.023290 0.974650 0.935540
O210 O 0.145520 1.172610 1.418430
N211 N 0.107630 1.122220 1.305600
C212 C 0.090750 1.186130 1.203890
H213 H 0.107600 1.264800 1.215000
C214 C 0.049630 1.139920 1.084410
H215 H 0.038900 1.186900 1.013800
C216 C 0.085200 1.010810 1.291760
H217 H 0.098700 0.965700 1.364500
C218 C 0.042880 0.961890 1.172920
H219 H 0.026600 0.883100 1.164400
C220 C 0.023290 1.025350 1.064460
O221 O 0.854480 -0.172610 -0.418430
N222 N 0.892370 -0.122220 -0.305600
C223 C 0.909250 -0.186130 -0.203890
H224 H 0.892400 -0.264800 -0.215000
C225 C 0.950370 -0.139920 -0.084410
H226 H 0.961100 -0.186900 -0.013800
C227 C 0.914800 -0.010810 -0.291760
H228 H 0.901300 0.034300 -0.364500
C229 C 0.957120 0.038110 -0.172920
H230 H 0.973400 0.116900 -0.164400
C231 C 0.976710 -0.025350 -0.064460
O232 O 1.145520 0.172610 0.418430
N233 N 1.107630 0.122220 0.305600
C234 C 1.090750 0.186130 0.203890
H235 H 1.107600 0.264800 0.215000
C236 C 1.049630 0.139920 0.084410
H237 H 1.038900 0.186900 0.013800
C238 C 1.085200 0.010810 0.291760
H239 H 1.098700 -0.034300 0.364500
C240 C 1.042880 -0.038110 0.172920
H241 H 1.026600 -0.116900 0.164400
C242 C 1.023290 0.025350 0.064460
O243 O 0.854480 -0.172610 0.581570
N244 N 0.892370 -0.122220 0.694400
C245 C 0.909250 -0.186130 0.796110
H246 H 0.892400 -0.264800 0.785000
C247 C 0.950370 -0.139920 0.915590
H248 H 0.961100 -0.186900 0.986200
C249 C 0.914800 -0.010810 0.708240
H250 H 0.901300 0.034300 0.635500
C251 C 0.957120 0.038110 0.827080
H252 H 0.973400 0.116900 0.835600
C253 C 0.976710 -0.025350 0.935540
O254 O 1.145520 0.172610 1.418430
N255 N 1.107630 0.122220 1.305600
C256 C 1.090750 0.186130 1.203890
H257 H 1.107600 0.264800 1.215000
C258 C 1.049630 0.139920 1.084410
H259 H 1.038900 0.186900 1.013800
C260 C 1.085200 0.010810 1.291760
H261 H 1.098700 -0.034300 1.364500
C262 C 1.042880 -0.038110 1.172920
H263 H 1.026600 -0.116900 1.164400
C264 C 1.023290 0.025350 1.064460
O265 O 0.854480 0.827390 -0.418430
N266 N 0.892370 0.877780 -0.305600
C267 C 0.909250 0.813870 -0.203890
H268 H 0.892400 0.735200 -0.215000
C269 C 0.950370 0.860080 -0.084410
H270 H 0.961100 0.813100 -0.013800
C271 C 0.914800 0.989190 -0.291760
H272 H 0.901300 1.034300 -0.364500
C273 C 0.957120 1.038110 -0.172920
H274 H 0.973400 1.116900 -0.164400
C275 C 0.976710 0.974650 -0.064460
O276 O 1.145520 1.172610 0.418430
N277 N 1.107630 1.122220 0.305600
C278 C 1.090750 1.186130 0.203890
H279 H 1.107600 1.264800 0.215000
C280 C 1.049630 1.139920 0.084410
H281 H 1.038900 1.186900 0.013800
C282 C 1.085200 1.010810 0.291760
H283 H 1.098700 0.965700 0.364500
C284 C 1.042880 0.961890 0.172920
H285 H 1.026600 0.883100 0.164400
C286 C 1.023290 1.025350 0.064460
O287 O 0.854480 0.827390 0.581570
N288 N 0.892370 0.877780 0.694400
C289 C 0.909250 0.813870 0.796110
H290 H 0.892400 0.735200 0.785000
C291 C 0.950370 0.860080 0.915590
H292 H 0.961100 0.813100 0.986200
C293 C 0.914800 0.989190 0.708240
H294 H 0.901300 1.034300 0.635500
C295 C 0.957120 1.038110 0.827080
H296 H 0.973400 1.116900 0.835600
C297 C 0.976710 0.974650 0.935540
O298 O 1.145520 1.172610 1.418430
N299 N 1.107630 1.122220 1.305600
C300 C 1.090750 1.186130 1.203890
H301 H 1.107600 1.264800 1.215000
C302 C 1.049630 1.139920 1.084410
H303 H 1.038900 1.186900 1.013800
C304 C 1.085200 1.010810 1.291760
H305 H 1.098700 0.965700 1.364500
C306 C 1.042880 0.961890 1.172920
H307 H 1.026600 0.883100 1.164400
C308 C 1.023290 1.025350 1.064460

#END
