./LICKEO_from_xyz.cif_generated_by_CrystalShift
_symmetry_cell_setting triclinic
_symmetry_space_group_name_H-M 'P 1'
loop_
_symmetry_equiv_pos_site_id
_symmetry_equiv_pos_as_xyz
1 x,y,z
_cell_length_a 21.423000
_cell_length_b 9.515000
_cell_length_c 15.613000
_cell_angle_alpha 90.000000
_cell_angle_beta 90.000000
_cell_angle_gamma 90.000000
_cell_volume 3182.551500
loop_
_atom_site_label
_atom_site_type_symbol
_atom_site_fract_x
_atom_site_fract_y
_atom_site_fract_z
O1 O 0.355020 0.786470 0.141640
O2 O 0.347320 0.689050 0.461650
C3 C 0.406420 0.856600 0.174350
C4 C 0.446110 0.933600 0.124180
H5 H 0.439700 0.938500 0.065300
C6 C 0.496630 1.005200 0.161590
H7 H 0.523800 1.056400 0.127200
C8 C 0.506060 1.000300 0.248190
H9 H 0.539300 1.049300 0.272100
C10 C 0.465840 0.921500 0.301910
C11 C 0.473660 0.914500 0.392180
H12 H 0.506800 0.962200 0.417400
C13 C 0.433970 0.839800 0.442470
H14 H 0.439700 0.838300 0.501500
C15 C 0.384160 0.764500 0.405490
C16 C 0.374450 0.766600 0.318470
H17 H 0.341700 0.715700 0.294600
C18 C 0.414760 0.847050 0.265070
H19 H 0.354600 0.791000 0.088100
H20 H 0.318900 0.644000 0.437400
O21 O 0.144980 0.713530 0.141640
O22 O 0.152680 0.810950 0.461650
C23 C 0.093580 0.643400 0.174350
C24 C 0.053890 0.566400 0.124180
H25 H 0.060300 0.561500 0.065300
C26 C 0.003370 0.494800 0.161590
H27 H -0.023800 0.443600 0.127200
C28 C -0.006060 0.499700 0.248190
H29 H -0.039300 0.450700 0.272100
C30 C 0.034160 0.578500 0.301910
C31 C 0.026340 0.585500 0.392180
H32 H -0.006800 0.537800 0.417400
C33 C 0.066030 0.660200 0.442470
H34 H 0.060300 0.661700 0.501500
C35 C 0.115840 0.735500 0.405490
C36 C 0.125550 0.733400 0.318470
H37 H 0.158300 0.784300 0.294600
C38 C 0.085240 0.652950 0.265070
H39 H 0.145400 0.709000 0.088100
H40 H 0.181100 0.856000 0.437400
O41 O 0.644980 0.286470 0.358360
O42 O 0.652680 0.189050 0.038350
C43 C 0.593580 0.356600 0.325650
C44 C 0.553890 0.433600 0.375820
H45 H 0.560300 0.438500 0.434700
C46 C 0.503370 0.505200 0.338410
H47 H 0.476200 0.556400 0.372800
C48 C 0.493940 0.500300 0.251810
H49 H 0.460700 0.549300 0.227900
C50 C 0.534160 0.421500 0.198090
C51 C 0.526340 0.414500 0.107820
H52 H 0.493200 0.462200 0.082600
C53 C 0.566030 0.339800 0.057530
H54 H 0.560300 0.338300 -0.001500
C55 C 0.615840 0.264500 0.094510
C56 C 0.625550 0.266600 0.181530
H57 H 0.658300 0.215700 0.205400
C58 C 0.585240 0.347050 0.234930
H59 H 0.645400 0.291000 0.411900
H60 H 0.681100 0.144000 0.062600
O61 O 0.855020 0.213530 0.358360
O62 O 0.847320 0.310950 0.038350
C63 C 0.906420 0.143400 0.325650
C64 C 0.946110 0.066400 0.375820
H65 H 0.939700 0.061500 0.434700
C66 C 0.996630 -0.005200 0.338410
H67 H 1.023800 -0.056400 0.372800
C68 C 1.006060 -0.000300 0.251810
H69 H 1.039300 -0.049300 0.227900
C70 C 0.965840 0.078500 0.198090
C71 C 0.973660 0.085500 0.107820
H72 H 1.006800 0.037800 0.082600
C73 C 0.933970 0.160200 0.057530
H74 H 0.939700 0.161700 -0.001500
C75 C 0.884160 0.235500 0.094510
C76 C 0.874450 0.233400 0.181530
H77 H 0.841700 0.284300 0.205400
C78 C 0.914760 0.152950 0.234930
H79 H 0.854600 0.209000 0.411900
H80 H 0.818900 0.356000 0.062600
O81 O 0.644980 0.213530 0.858360
O82 O 0.652680 0.310950 0.538350
C83 C 0.593580 0.143400 0.825650
C84 C 0.553890 0.066400 0.875820
H85 H 0.560300 0.061500 0.934700
C86 C 0.503370 -0.005200 0.838410
H87 H 0.476200 -0.056400 0.872800
C88 C 0.493940 -0.000300 0.751810
H89 H 0.460700 -0.049300 0.727900
C90 C 0.534160 0.078500 0.698090
C91 C 0.526340 0.085500 0.607820
H92 H 0.493200 0.037800 0.582600
C93 C 0.566030 0.160200 0.557530
H94 H 0.560300 0.161700 0.498500
C95 C 0.615840 0.235500 0.594510
C96 C 0.625550 0.233400 0.681530
H97 H 0.658300 0.284300 0.705400
C98 C 0.585240 0.152950 0.734930
H99 H 0.645400 0.209000 0.911900
H100 H 0.681100 0.356000 0.562600
O101 O 0.855020 0.286470 0.858360
O102 O 0.847320 0.189050 0.538350
C103 C 0.906420 0.356600 0.825650
C104 C 0.946110 0.433600 0.875820
H105 H 0.939700 0.438500 0.934700
C106 C 0.996630 0.505200 0.838410
H107 H 1.023800 0.556400 0.872800
C108 C 1.006060 0.500300 0.751810
H109 H 1.039300 0.549300 0.727900
C110 C 0.965840 0.421500 0.698090
C111 C 0.973660 0.414500 0.607820
H112 H 1.006800 0.462200 0.582600
C113 C 0.933970 0.339800 0.557530
H114 H 0.939700 0.338300 0.498500
C115 C 0.884160 0.264500 0.594510
C116 C 0.874450 0.266600 0.681530
H117 H 0.841700 0.215700 0.705400
C118 C 0.914760 0.347050 0.734930
H119 H 0.854600 0.291000 0.911900
H120 H 0.818900 0.144000 0.562600
O121 O 0.355020 0.713530 0.641640
O122 O 0.347320 0.810950 0.961650
C123 C 0.406420 0.643400 0.674350
C124 C 0.446110 0.566400 0.624180
H125 H 0.439700 0.561500 0.565300
C126 C 0.496630 0.494800 0.661590
H127 H 0.523800 0.443600 0.627200
C128 C 0.506060 0.499700 0.748190
H129 H 0.539300 0.450700 0.772100
C130 C 0.465840 0.578500 0.801910
C131 C 0.473660 0.585500 0.892180
H132 H 0.506800 0.537800 0.917400
C133 C 0.433970 0.660200 0.942470
H134 H 0.439700 0.661700 1.001500
C135 C 0.384160 0.735500 0.905490
C136 C 0.374450 0.733400 0.818470
H137 H 0.341700 0.784300 0.794600
C138 C 0.414760 0.652950 0.765070
H139 H 0.354600 0.709000 0.588100
H140 H 0.318900 0.856000 0.937400
O141 O 0.144980 0.786470 0.641640
O142 O 0.152680 0.689050 0.961650
C143 C 0.093580 0.856600 0.674350
C144 C 0.053890 0.933600 0.624180
H145 H 0.060300 0.938500 0.565300
C146 C 0.003370 1.005200 0.661590
H147 H -0.023800 1.056400 0.627200
C148 C -0.006060 1.000300 0.748190
H149 H -0.039300 1.049300 0.772100
C150 C 0.034160 0.921500 0.801910
C151 C 0.026340 0.914500 0.892180
H152 H -0.006800 0.962200 0.917400
C153 C 0.066030 0.839800 0.942470
H154 H 0.060300 0.838300 1.001500
C155 C 0.115840 0.764500 0.905490
C156 C 0.125550 0.766600 0.818470
H157 H 0.158300 0.715700 0.794600
C158 C 0.085240 0.847050 0.765070
H159 H 0.145400 0.791000 0.588100
H160 H 0.181100 0.644000 0.937400
O161 O 0.249270 -0.031480 -0.109910
O162 O 0.253650 -0.070500 0.214770
C163 C 0.204250 0.063200 -0.081370
C164 C 0.168200 0.138500 -0.137060
H165 H 0.174100 0.128800 -0.195800
C166 C 0.122200 0.230700 -0.105810
H167 H 0.097400 0.280800 -0.144000
C168 C 0.113630 0.247200 -0.019570
H169 H 0.083300 0.309000 0.000300
C170 C 0.150530 0.170900 0.039740
C171 C 0.142580 0.182300 0.130460
H172 H 0.113300 0.245000 0.152100
C173 C 0.177110 0.103200 0.185830
H174 H 0.171000 0.112000 0.244600
C175 C 0.221620 0.008900 0.154740
C176 C 0.231750 -0.005000 0.068200
C177 C 0.196680 0.075400 0.009300
H178 H 0.283200 -0.115000 0.190500
H179 H 0.246700 -0.039000 -0.163000
H180 H 0.260700 -0.074000 0.049200
O181 O 0.250730 0.531480 -0.109910
O182 O 0.246350 0.570500 0.214770
C183 C 0.295750 0.436800 -0.081370
C184 C 0.331800 0.361500 -0.137060
H185 H 0.325900 0.371200 -0.195800
C186 C 0.377800 0.269300 -0.105810
H187 H 0.402600 0.219200 -0.144000
C188 C 0.386370 0.252800 -0.019570
H189 H 0.416700 0.191000 0.000300
C190 C 0.349470 0.329100 0.039740
C191 C 0.357420 0.317700 0.130460
H192 H 0.386700 0.255000 0.152100
C193 C 0.322890 0.396800 0.185830
H194 H 0.329000 0.388000 0.244600
C195 C 0.278380 0.491100 0.154740
C196 C 0.268250 0.505000 0.068200
C197 C 0.303320 0.424600 0.009300
H198 H 0.216800 0.615000 0.190500
H199 H 0.253300 0.539000 -0.163000
H200 H 0.239300 0.574000 0.049200
O201 O 0.750730 0.468520 0.609910
O202 O 0.746350 0.429500 0.285230
C203 C 0.795750 0.563200 0.581370
C204 C 0.831800 0.638500 0.637060
H205 H 0.825900 0.628800 0.695800
C206 C 0.877800 0.730700 0.605810
H207 H 0.902600 0.780800 0.644000
C208 C 0.886370 0.747200 0.519570
H209 H 0.916700 0.809000 0.499700
C210 C 0.849470 0.670900 0.460260
C211 C 0.857420 0.682300 0.369540
H212 H 0.886700 0.745000 0.347900
C213 C 0.822890 0.603200 0.314170
H214 H 0.829000 0.612000 0.255400
C215 C 0.778380 0.508900 0.345260
C216 C 0.768250 0.495000 0.431800
C217 C 0.803320 0.575400 0.490700
H218 H 0.716800 0.385000 0.309500
H219 H 0.753300 0.461000 0.663000
H220 H 0.739300 0.426000 0.450800
O221 O 0.749270 1.031480 0.609910
O222 O 0.753650 1.070500 0.285230
C223 C 0.704250 0.936800 0.581370
C224 C 0.668200 0.861500 0.637060
H225 H 0.674100 0.871200 0.695800
C226 C 0.622200 0.769300 0.605810
H227 H 0.597400 0.719200 0.644000
C228 C 0.613630 0.752800 0.519570
H229 H 0.583300 0.691000 0.499700
C230 C 0.650530 0.829100 0.460260
C231 C 0.642580 0.817700 0.369540
H232 H 0.613300 0.755000 0.347900
C233 C 0.677110 0.896800 0.314170
H234 H 0.671000 0.888000 0.255400
C235 C 0.721620 0.991100 0.345260
C236 C 0.731750 1.005000 0.431800
C237 C 0.696680 0.924600 0.490700
H238 H 0.783200 1.115000 0.309500
H239 H 0.746700 1.039000 0.663000
H240 H 0.760700 1.074000 0.450800
O241 O 0.750730 1.031480 1.109910
O242 O 0.746350 1.070500 0.785230
C243 C 0.795750 0.936800 1.081370
C244 C 0.831800 0.861500 1.137060
H245 H 0.825900 0.871200 1.195800
C246 C 0.877800 0.769300 1.105810
H247 H 0.902600 0.719200 1.144000
C248 C 0.886370 0.752800 1.019570
H249 H 0.916700 0.691000 0.999700
C250 C 0.849470 0.829100 0.960260
C251 C 0.857420 0.817700 0.869540
H252 H 0.886700 0.755000 0.847900
C253 C 0.822890 0.896800 0.814170
H254 H 0.829000 0.888000 0.755400
C255 C 0.778380 0.991100 0.845260
C256 C 0.768250 1.005000 0.931800
C257 C 0.803320 0.924600 0.990700
H258 H 0.716800 1.115000 0.809500
H259 H 0.753300 1.039000 1.163000
H260 H 0.739300 1.074000 0.950800
O261 O 0.749270 0.468520 1.109910
O262 O 0.753650 0.429500 0.785230
C263 C 0.704250 0.563200 1.081370
C264 C 0.668200 0.638500 1.137060
H265 H 0.674100 0.628800 1.195800
C266 C 0.622200 0.730700 1.105810
H267 H 0.597400 0.780800 1.144000
C268 C 0.613630 0.747200 1.019570
H269 H 0.583300 0.809000 0.999700
C270 C 0.650530 0.670900 0.960260
C271 C 0.642580 0.682300 0.869540
H272 H 0.613300 0.745000 0.847900
C273 C 0.677110 0.603200 0.814170
H274 H 0.671000 0.612000 0.755400
C275 C 0.721620 0.508900 0.845260
C276 C 0.731750 0.495000 0.931800
C277 C 0.696680 0.575400 0.990700
H278 H 0.783200 0.385000 0.809500
H279 H 0.746700 0.461000 1.163000
H280 H 0.760700 0.426000 0.950800
O281 O 0.249270 0.531480 0.390090
O282 O 0.253650 0.570500 0.714770
C283 C 0.204250 0.436800 0.418630
C284 C 0.168200 0.361500 0.362940
H285 H 0.174100 0.371200 0.304200
C286 C 0.122200 0.269300 0.394190
H287 H 0.097400 0.219200 0.356000
C288 C 0.113630 0.252800 0.480430
H289 H 0.083300 0.191000 0.500300
C290 C 0.150530 0.329100 0.539740
C291 C 0.142580 0.317700 0.630460
H292 H 0.113300 0.255000 0.652100
C293 C 0.177110 0.396800 0.685830
H294 H 0.171000 0.388000 0.744600
C295 C 0.221620 0.491100 0.654740
C296 C 0.231750 0.505000 0.568200
C297 C 0.196680 0.424600 0.509300
H298 H 0.283200 0.615000 0.690500
H299 H 0.246700 0.539000 0.337000
H300 H 0.260700 0.574000 0.549200
O301 O 0.250730 -0.031480 0.390090
O302 O 0.246350 -0.070500 0.714770
C303 C 0.295750 0.063200 0.418630
C304 C 0.331800 0.138500 0.362940
H305 H 0.325900 0.128800 0.304200
C306 C 0.377800 0.230700 0.394190
H307 H 0.402600 0.280800 0.356000
C308 C 0.386370 0.247200 0.480430
H309 H 0.416700 0.309000 0.500300
C310 C 0.349470 0.170900 0.539740
C311 C 0.357420 0.182300 0.630460
H312 H 0.386700 0.245000 0.652100
C313 C 0.322890 0.103200 0.685830
H314 H 0.329000 0.112000 0.744600
C315 C 0.278380 0.008900 0.654740
C316 C 0.268250 -0.005000 0.568200
C317 C 0.303320 0.075400 0.509300
H318 H 0.216800 -0.115000 0.690500
H319 H 0.253300 -0.039000 0.337000
H320 H 0.239300 -0.074000 0.549200

#END
