
#######################################################################
#
#                 Cambridge Crystallographic Data Centre
#                                CCDC 
#
#######################################################################
#
# If this CIF has been generated from an entry in the Cambridge 
# Structural Database, then it will include bibliographic, chemical, 
# crystal, experimental, refinement or atomic coordinate data resulting 
# from the CCDC's data processing and validation procedures.
#
#######################################################################

data_LICMIT01
_symmetry_cell_setting           monoclinic
_symmetry_space_group_name_H-M   'P 21/n'
_symmetry_Int_Tables_number      14
_space_group_name_Hall           '-P 2yn'
loop_
_symmetry_equiv_pos_site_id
_symmetry_equiv_pos_as_xyz
1 x,y,z
2 1/2-x,1/2+y,1/2-z
3 -x,-y,-z
4 1/2+x,1/2-y,1/2+z
_cell_length_a                   15.142(3)
_cell_length_b                   12.320(1)
_cell_length_c                   7.196(1)
_cell_angle_alpha                90
_cell_angle_beta                 99.18(2)
_cell_angle_gamma                90
_cell_volume                     1325.22
loop_
_atom_site_label
_atom_site_type_symbol
_atom_site_fract_x
_atom_site_fract_y
_atom_site_fract_z
O1 O 0.0958(1) 0.5327(1) 0.6058(2)
O2 O 0.2532(1) 0.3974(1) 1.1617(2)
N1 N 0.1581(1) 0.5163(1) 0.7503(2)
N2 N 0.2310(1) 0.4555(1) 1.0156(2)
C1 C 0.1544(1) 0.4448(1) 0.8876(2)
C2 C 0.2480(1) 0.5684(2) 0.7611(3)
C3 C 0.2843(1) 0.5532(2) 0.9737(3)
C4 C 0.2982(2) 0.5023(2) 0.6313(4)
C5 C 0.2367(2) 0.6851(2) 0.6939(4)
C6 C 0.3837(1) 0.5273(2) 1.0177(4)
C7 C 0.2603(2) 0.6450(2) 1.0976(4)
O3 O 0.0628(1) 0.3342(1) 0.5619(2)
O4 O -0.0281(1) 0.2284(1) 1.2525(2)
C8 C 0.0831(1) 0.3666(2) 0.8979(3)
C9 C 0.0396(1) 0.3154(2) 0.7350(3)
C10 C -0.0255(1) 0.2379(2) 0.7496(3)
C11 C -0.0460(1) 0.2091(2) 0.9229(3)
C12 C -0.0034(1) 0.2599(2) 1.0857(3)
C13 C 0.0605(1) 0.3383(2) 1.0736(3)
H1 H 0.070(2) 0.410(2) 0.553(4)
H2 H 0.000(2) 0.270(2) 1.344(4)
H3 H -0.056(1) 0.201(2) 0.638(2)
H4 H -0.090(1) 0.153(2) 0.931(3)
H5 H 0.091(1) 0.376(2) 1.187(3)
H6 H 0.357(2) 0.537(2) 0.628(4)
H7 H 0.313(2) 0.425(2) 0.685(4)
H8 H 0.262(2) 0.500(2) 0.509(4)
H9 H 0.197(2) 0.726(2) 0.767(3)
H10 H 0.289(2) 0.722(2) 0.722(4)
H11 H 0.213(2) 0.690(2) 0.563(4)
H12 H 0.399(2) 0.460(2) 0.947(4)
H13 H 0.415(2) 0.587(2) 0.981(4)
H14 H 0.398(2) 0.519(2) 1.151(4)
H15 H 0.198(2) 0.658(2) 1.079(3)
H16 H 0.293(2) 0.714(2) 1.069(4)
H17 H 0.282(2) 0.627(2) 1.229(4)
O1 O 0.4042(1) 1.0327(1) 0.8942(2)
O2 O 0.2468(1) 0.8974(1) 0.3383(2)
N1 N 0.3419(1) 1.0163(1) 0.7497(2)
N2 N 0.2690(1) 0.9555(1) 0.4844(2)
C1 C 0.3456(1) 0.9448(1) 0.6124(2)
C2 C 0.2520(1) 1.0684(2) 0.7389(3)
C3 C 0.2157(1) 1.0532(2) 0.5263(3)
C4 C 0.2018(2) 1.0023(2) 0.8687(4)
C5 C 0.2633(2) 1.1851(2) 0.8061(4)
C6 C 0.1163(1) 1.0273(2) 0.4823(4)
C7 C 0.2397(2) 1.1450(2) 0.4024(4)
O3 O 0.4372(1) 0.8342(1) 0.9381(2)
O4 O 0.5281(1) 0.7284(1) 0.2475(2)
C8 C 0.4169(1) 0.8666(2) 0.6021(3)
C9 C 0.4604(1) 0.8154(2) 0.7650(3)
C10 C 0.5255(1) 0.7379(2) 0.7504(3)
C11 C 0.5460(1) 0.7091(2) 0.5771(3)
C12 C 0.5034(1) 0.7599(2) 0.4143(3)
C13 C 0.4395(1) 0.8383(2) 0.4264(3)
H1 H 0.430(2) 0.910(2) 0.947(4)
H2 H 0.500(2) 0.770(2) 0.156(4)
H3 H 0.556(1) 0.701(2) 0.862(2)
H4 H 0.590(1) 0.653(2) 0.569(3)
H5 H 0.409(1) 0.876(2) 0.313(3)
H6 H 0.143(2) 1.037(2) 0.872(4)
H7 H 0.187(2) 0.925(2) 0.815(4)
H8 H 0.238(2) 1.000(2) 0.991(4)
H9 H 0.303(2) 1.226(2) 0.733(3)
H10 H 0.211(2) 1.222(2) 0.778(4)
H11 H 0.287(2) 1.190(2) 0.937(4)
H12 H 0.101(2) 0.960(2) 0.553(4)
H13 H 0.085(2) 1.087(2) 0.519(4)
H14 H 0.102(2) 1.019(2) 0.349(4)
H15 H 0.302(2) 1.158(2) 0.421(3)
H16 H 0.207(2) 1.214(2) 0.431(4)
H17 H 0.218(2) 1.127(2) 0.271(4)
O1 O 0.9042(1) 0.4673(1) 0.3942(2)
O2 O 0.7468(1) 0.6026(1) -0.1617(2)
N1 N 0.8419(1) 0.4837(1) 0.2497(2)
N2 N 0.7690(1) 0.5445(1) -0.0156(2)
C1 C 0.8456(1) 0.5552(1) 0.1124(2)
C2 C 0.7520(1) 0.4316(2) 0.2389(3)
C3 C 0.7157(1) 0.4468(2) 0.0263(3)
C4 C 0.7018(2) 0.4977(2) 0.3687(4)
C5 C 0.7633(2) 0.3149(2) 0.3061(4)
C6 C 0.6163(1) 0.4727(2) -0.0177(4)
C7 C 0.7397(2) 0.3550(2) -0.0976(4)
O3 O 0.9372(1) 0.6658(1) 0.4381(2)
O4 O 1.0281(1) 0.7716(1) -0.2525(2)
C8 C 0.9169(1) 0.6334(2) 0.1021(3)
C9 C 0.9604(1) 0.6846(2) 0.2650(3)
C10 C 1.0255(1) 0.7621(2) 0.2504(3)
C11 C 1.0460(1) 0.7909(2) 0.0771(3)
C12 C 1.0034(1) 0.7401(2) -0.0857(3)
C13 C 0.9395(1) 0.6617(2) -0.0736(3)
H1 H 0.930(2) 0.590(2) 0.447(4)
H2 H 1.000(2) 0.730(2) -0.344(4)
H3 H 1.056(1) 0.799(2) 0.362(2)
H4 H 1.090(1) 0.847(2) 0.069(3)
H5 H 0.909(1) 0.624(2) -0.187(3)
H6 H 0.643(2) 0.463(2) 0.372(4)
H7 H 0.687(2) 0.575(2) 0.315(4)
H8 H 0.738(2) 0.500(2) 0.491(4)
H9 H 0.803(2) 0.274(2) 0.233(3)
H10 H 0.711(2) 0.278(2) 0.278(4)
H11 H 0.787(2) 0.310(2) 0.437(4)
H12 H 0.601(2) 0.540(2) 0.053(4)
H13 H 0.585(2) 0.413(2) 0.019(4)
H14 H 0.602(2) 0.481(2) -0.151(4)
H15 H 0.802(2) 0.342(2) -0.079(3)
H16 H 0.707(2) 0.286(2) -0.069(4)
H17 H 0.718(2) 0.373(2) -0.229(4)
O1 O 0.5958(1) -0.0327(1) 0.1058(2)
O2 O 0.7532(1) 0.1026(1) 0.6617(2)
N1 N 0.6581(1) -0.0163(1) 0.2503(2)
N2 N 0.7310(1) 0.0445(1) 0.5156(2)
C1 C 0.6544(1) 0.0552(1) 0.3876(2)
C2 C 0.7480(1) -0.0684(2) 0.2611(3)
C3 C 0.7843(1) -0.0532(2) 0.4737(3)
C4 C 0.7982(2) -0.0023(2) 0.1313(4)
C5 C 0.7367(2) -0.1851(2) 0.1939(4)
C6 C 0.8837(1) -0.0273(2) 0.5177(4)
C7 C 0.7603(2) -0.1450(2) 0.5976(4)
O3 O 0.5628(1) 0.1658(1) 0.0619(2)
O4 O 0.4719(1) 0.2716(1) 0.7525(2)
C8 C 0.5831(1) 0.1334(2) 0.3979(3)
C9 C 0.5396(1) 0.1846(2) 0.2350(3)
C10 C 0.4745(1) 0.2621(2) 0.2496(3)
C11 C 0.4540(1) 0.2909(2) 0.4229(3)
C12 C 0.4966(1) 0.2401(2) 0.5857(3)
C13 C 0.5605(1) 0.1617(2) 0.5736(3)
H1 H 0.570(2) 0.090(2) 0.053(4)
H2 H 0.500(2) 0.230(2) 0.844(4)
H3 H 0.444(1) 0.299(2) 0.138(2)
H4 H 0.410(1) 0.347(2) 0.431(3)
H5 H 0.591(1) 0.124(2) 0.687(3)
H6 H 0.857(2) -0.037(2) 0.128(4)
H7 H 0.813(2) 0.075(2) 0.185(4)
H8 H 0.762(2) 0.000(2) 0.009(4)
H9 H 0.697(2) -0.226(2) 0.267(3)
H10 H 0.789(2) -0.222(2) 0.222(4)
H11 H 0.713(2) -0.190(2) 0.063(4)
H12 H 0.899(2) 0.040(2) 0.447(4)
H13 H 0.915(2) -0.087(2) 0.481(4)
H14 H 0.898(2) -0.019(2) 0.651(4)
H15 H 0.698(2) -0.158(2) 0.579(3)
H16 H 0.793(2) -0.214(2) 0.569(4)
H17 H 0.782(2) -0.127(2) 0.729(4)

#END
