./LICPIY_from_xyz.cif_generated_by_CrystalShift
_symmetry_cell_setting triclinic
_symmetry_space_group_name_H-M 'P 1'
loop_
_symmetry_equiv_pos_site_id
_symmetry_equiv_pos_as_xyz
1 x,y,z
_cell_length_a 12.633000
_cell_length_b 6.054500
_cell_length_c 31.019000
_cell_angle_alpha 90.000000
_cell_angle_beta 102.008000
_cell_angle_gamma 90.000000
_cell_volume 2320.620251
loop_
_atom_site_label
_atom_site_type_symbol
_atom_site_fract_x
_atom_site_fract_y
_atom_site_fract_z
C1 C 0.173080 1.152180 0.211060
H2 H 0.207800 1.291500 0.211400
C3 C 0.124870 1.058220 0.171420
C4 C 0.075490 0.847300 0.170480
H5 H 0.043000 0.782400 0.143000
C6 C 0.074340 0.736670 0.208940
H7 H 0.042000 0.594600 0.207900
C8 C 0.117290 0.726060 0.290920
H9 H 0.084000 0.585200 0.290700
C10 C 0.161300 0.825130 0.330300
H11 H 0.157600 0.752900 0.357100
C12 C 0.212090 1.033690 0.331390
H13 H 0.242800 1.100000 0.358900
C14 C 0.217340 1.140990 0.292830
H15 H 0.251700 1.281000 0.293800
C16 C 0.171490 1.043490 0.251430
C17 C 0.121070 0.832500 0.250400
C18 C 0.120190 1.178760 0.129100
O19 O 0.183310 1.355420 0.133690
H20 H 0.177800 1.418200 0.109200
O21 O 0.063110 1.121840 0.094040
C22 C 0.826920 0.652180 0.288940
H23 H 0.792200 0.791500 0.288600
C24 C 0.875130 0.558220 0.328580
C25 C 0.924510 0.347300 0.329520
H26 H 0.957000 0.282400 0.357000
C27 C 0.925660 0.236670 0.291060
H28 H 0.958000 0.094600 0.292100
C29 C 0.882710 0.226060 0.209080
H30 H 0.916000 0.085200 0.209300
C31 C 0.838700 0.325130 0.169700
H32 H 0.842400 0.252900 0.142900
C33 C 0.787910 0.533690 0.168610
H34 H 0.757200 0.600000 0.141100
C35 C 0.782660 0.640990 0.207170
H36 H 0.748300 0.781000 0.206200
C37 C 0.828510 0.543490 0.248570
C38 C 0.878930 0.332500 0.249600
C39 C 0.879810 0.678760 0.370900
O40 O 0.816690 0.855420 0.366310
H41 H 0.822200 0.918200 0.390800
O42 O 0.936890 0.621840 0.405960
C43 C 0.826920 -0.152180 0.788940
H44 H 0.792200 -0.291500 0.788600
C45 C 0.875130 -0.058220 0.828580
C46 C 0.924510 0.152700 0.829520
H47 H 0.957000 0.217600 0.857000
C48 C 0.925660 0.263330 0.791060
H49 H 0.958000 0.405400 0.792100
C50 C 0.882710 0.273940 0.709080
H51 H 0.916000 0.414800 0.709300
C52 C 0.838700 0.174870 0.669700
H53 H 0.842400 0.247100 0.642900
C54 C 0.787910 -0.033690 0.668610
H55 H 0.757200 -0.100000 0.641100
C56 C 0.782660 -0.140990 0.707170
H57 H 0.748300 -0.281000 0.706200
C58 C 0.828510 -0.043490 0.748570
C59 C 0.878930 0.167500 0.749600
C60 C 0.879810 -0.178760 0.870900
O61 O 0.816690 -0.355420 0.866310
H62 H 0.822200 -0.418200 0.890800
O63 O 0.936890 -0.121840 0.905960
C64 C 0.173080 0.347820 0.711060
H65 H 0.207800 0.208500 0.711400
C66 C 0.124870 0.441780 0.671420
C67 C 0.075490 0.652700 0.670480
H68 H 0.043000 0.717600 0.643000
C69 C 0.074340 0.763330 0.708940
H70 H 0.042000 0.905400 0.707900
C71 C 0.117290 0.773940 0.790920
H72 H 0.084000 0.914800 0.790700
C73 C 0.161300 0.674870 0.830300
H74 H 0.157600 0.747100 0.857100
C75 C 0.212090 0.466310 0.831390
H76 H 0.242800 0.400000 0.858900
C77 C 0.217340 0.359010 0.792830
H78 H 0.251700 0.219000 0.793800
C79 C 0.171490 0.456510 0.751430
C80 C 0.121070 0.667500 0.750400
C81 C 0.120190 0.321240 0.629100
O82 O 0.183310 0.144580 0.633690
H83 H 0.177800 0.081800 0.609200
O84 O 0.063110 0.378160 0.594040
C85 C 0.198480 0.302480 0.945990
C86 C 0.273160 0.473050 0.957110
H87 H 0.251000 0.610300 0.967200
C88 C 0.380320 0.442500 0.953530
H89 H 0.431200 0.558600 0.961400
C90 C 0.413010 0.242390 0.938450
H91 H 0.486100 0.221900 0.936000
C92 C 0.338470 0.072950 0.926950
H93 H 0.360400 -0.063300 0.916400
C94 C 0.231810 0.102350 0.930880
H95 H 0.181200 -0.014600 0.923200
C96 C 0.082920 0.329690 0.950940
H97 H 0.060100 0.485000 0.944900
H98 H 0.035100 0.234600 0.929300
N99 N 0.071870 0.268300 0.996660
H100 H 0.104300 0.135600 1.004100
H101 H 0.000500 0.258800 0.997600
H102 H 0.104100 0.373300 1.016000
C103 C 0.801520 0.802480 0.554010
C104 C 0.726840 0.973050 0.542890
H105 H 0.749000 1.110300 0.532800
C106 C 0.619680 0.942500 0.546470
H107 H 0.568800 1.058600 0.538600
C108 C 0.586990 0.742390 0.561550
H109 H 0.513900 0.721900 0.564000
C110 C 0.661530 0.572950 0.573050
H111 H 0.639600 0.436700 0.583600
C112 C 0.768190 0.602350 0.569120
H113 H 0.818800 0.485400 0.576800
C114 C 0.917080 0.829690 0.549060
H115 H 0.939900 0.985000 0.555100
H116 H 0.964900 0.734600 0.570700
N117 N 0.928130 0.768300 0.503340
H118 H 0.895700 0.635600 0.495900
H119 H 0.999500 0.758800 0.502400
H120 H 0.895900 0.873300 0.484000
C121 C 0.801520 0.697520 0.054010
C122 C 0.726840 0.526950 0.042890
H123 H 0.749000 0.389700 0.032800
C124 C 0.619680 0.557500 0.046470
H125 H 0.568800 0.441400 0.038600
C126 C 0.586990 0.757610 0.061550
H127 H 0.513900 0.778100 0.064000
C128 C 0.661530 0.927050 0.073050
H129 H 0.639600 1.063300 0.083600
C130 C 0.768190 0.897650 0.069120
H131 H 0.818800 1.014600 0.076800
C132 C 0.917080 0.670310 0.049060
H133 H 0.939900 0.515000 0.055100
H134 H 0.964900 0.765400 0.070700
N135 N 0.928130 0.731700 0.003340
H136 H 0.895700 0.864400 -0.004100
H137 H 0.999500 0.741200 0.002400
H138 H 0.895900 0.626700 -0.016000
C139 C 0.198480 0.197520 0.445990
C140 C 0.273160 0.026950 0.457110
H141 H 0.251000 -0.110300 0.467200
C142 C 0.380320 0.057500 0.453530
H143 H 0.431200 -0.058600 0.461400
C144 C 0.413010 0.257610 0.438450
H145 H 0.486100 0.278100 0.436000
C146 C 0.338470 0.427050 0.426950
H147 H 0.360400 0.563300 0.416400
C148 C 0.231810 0.397650 0.430880
H149 H 0.181200 0.514600 0.423200
C150 C 0.082920 0.170310 0.450940
H151 H 0.060100 0.015000 0.444900
H152 H 0.035100 0.265400 0.429300
N153 N 0.071870 0.231700 0.496660
H154 H 0.104300 0.364400 0.504100
H155 H 0.000500 0.241200 0.497600
H156 H 0.104100 0.126700 0.516000
C157 C 0.333170 -0.189760 0.118010
H158 H 0.310100 -0.325700 0.128300
C159 C 0.287440 -0.117410 0.076230
C160 C 0.323290 0.084270 0.060580
H161 H 0.293300 0.132500 0.031500
C162 C 0.400830 0.209780 0.087210
H163 H 0.423200 0.345200 0.076400
C164 C 0.529050 0.265400 0.159000
H165 H 0.552100 0.402400 0.149200
C166 C 0.574180 0.190300 0.200450
H167 H 0.628300 0.275400 0.219100
C168 C 0.540670 -0.013170 0.215740
H169 H 0.572400 -0.063900 0.244500
C170 C 0.462430 -0.137270 0.189100
H171 H 0.440200 -0.273400 0.199600
C172 C 0.414470 -0.064030 0.146030
C173 C 0.448040 0.140120 0.130560
C174 C 0.197310 -0.245050 0.047680
O175 O 0.173550 -0.435170 0.059840
O176 O 0.147940 -0.158510 0.012000
C177 C 0.666830 0.310240 0.381990
H178 H 0.689900 0.174300 0.371700
C179 C 0.712560 0.382590 0.423770
C180 C 0.676710 0.584270 0.439420
H181 H 0.706700 0.632500 0.468500
C182 C 0.599170 0.709780 0.412790
H183 H 0.576800 0.845200 0.423600
C184 C 0.470950 0.765400 0.341000
H185 H 0.447900 0.902400 0.350800
C186 C 0.425820 0.690300 0.299550
H187 H 0.371700 0.775400 0.280900
C188 C 0.459330 0.486830 0.284260
H189 H 0.427600 0.436100 0.255500
C190 C 0.537570 0.362730 0.310900
H191 H 0.559800 0.226600 0.300400
C192 C 0.585530 0.435970 0.353970
C193 C 0.551960 0.640120 0.369440
C194 C 0.802690 0.254950 0.452320
O195 O 0.826450 0.064830 0.440160
O196 O 0.852060 0.341490 0.488000
C197 C 0.666830 1.189760 0.881990
H198 H 0.689900 1.325700 0.871700
C199 C 0.712560 1.117410 0.923770
C200 C 0.676710 0.915730 0.939420
H201 H 0.706700 0.867500 0.968500
C202 C 0.599170 0.790220 0.912790
H203 H 0.576800 0.654800 0.923600
C204 C 0.470950 0.734600 0.841000
H205 H 0.447900 0.597600 0.850800
C206 C 0.425820 0.809700 0.799550
H207 H 0.371700 0.724600 0.780900
C208 C 0.459330 1.013170 0.784260
H209 H 0.427600 1.063900 0.755500
C210 C 0.537570 1.137270 0.810900
H211 H 0.559800 1.273400 0.800400
C212 C 0.585530 1.064030 0.853970
C213 C 0.551960 0.859880 0.869440
C214 C 0.802690 1.245050 0.952320
O215 O 0.826450 1.435170 0.940160
O216 O 0.852060 1.158510 0.988000
C217 C 0.333170 0.689760 0.618010
H218 H 0.310100 0.825700 0.628300
C219 C 0.287440 0.617410 0.576230
C220 C 0.323290 0.415730 0.560580
H221 H 0.293300 0.367500 0.531500
C222 C 0.400830 0.290220 0.587210
H223 H 0.423200 0.154800 0.576400
C224 C 0.529050 0.234600 0.659000
H225 H 0.552100 0.097600 0.649200
C226 C 0.574180 0.309700 0.700450
H227 H 0.628300 0.224600 0.719100
C228 C 0.540670 0.513170 0.715740
H229 H 0.572400 0.563900 0.744500
C230 C 0.462430 0.637270 0.689100
H231 H 0.440200 0.773400 0.699600
C232 C 0.414470 0.564030 0.646030
C233 C 0.448040 0.359880 0.630560
C234 C 0.197310 0.745050 0.547680
O235 O 0.173550 0.935170 0.559840
O236 O 0.147940 0.658510 0.512000

#END
