./LAFJAD_from_xyz.cif_generated_by_CrystalShift
_symmetry_cell_setting triclinic
_symmetry_space_group_name_H-M 'P 1'
loop_
_symmetry_equiv_pos_site_id
_symmetry_equiv_pos_as_xyz
1 x,y,z
_cell_length_a 13.684000
_cell_length_b 10.749000
_cell_length_c 8.340000
_cell_angle_alpha 90.000000
_cell_angle_beta 95.660000
_cell_angle_gamma 90.000000
_cell_volume 1220.744244
loop_
_atom_site_label
_atom_site_type_symbol
_atom_site_fract_x
_atom_site_fract_y
_atom_site_fract_z
O1 O 0.495200 0.317000 0.409700
C2 C 0.494200 0.405800 0.293700
O3 O 0.562900 0.415400 0.210600
C4 C 0.403100 0.478400 0.290800
C5 C 0.341700 0.432700 0.419700
C6 C 0.237800 0.384400 0.356500
C7 C 0.250900 0.246300 0.355500
C8 C 0.337900 0.209800 0.421700
C9 C 0.400600 0.316400 0.482200
C10 C 0.383200 0.564900 0.178900
O11 O 0.299200 0.635100 0.175700
O12 O 0.216900 0.582800 -0.070700
C13 C 0.264400 0.682300 0.021200
C14 C 0.185500 0.774900 0.037700
C15 C 0.100600 0.734200 -0.032600
C16 C -0.000700 0.791900 -0.049300
C17 C 0.118700 0.611100 -0.101900
O18 O 0.062500 0.541300 -0.176800
H19 H -0.047100 0.729900 -0.023500
H20 H -0.016200 0.818900 -0.158500
H21 H -0.003700 0.861600 0.022000
H22 H 0.339900 0.494800 0.503300
H23 H 0.217500 0.416700 0.250900
H24 H 0.192100 0.409900 0.432200
H25 H 0.200700 0.190600 0.310600
H26 H 0.362100 0.125600 0.431100
H27 H 0.416700 0.315400 0.597600
H28 H 0.423800 0.582000 0.094000
H29 H 0.320300 0.705300 -0.036000
H30 H 0.196700 0.852000 0.093800
O31 O 0.504800 -0.183000 0.090300
C32 C 0.505800 -0.094200 0.206300
O33 O 0.437100 -0.084600 0.289400
C34 C 0.596900 -0.021600 0.209200
C35 C 0.658300 -0.067300 0.080300
C36 C 0.762200 -0.115600 0.143500
C37 C 0.749100 -0.253700 0.144500
C38 C 0.662100 -0.290200 0.078300
C39 C 0.599400 -0.183600 0.017800
C40 C 0.616800 0.064900 0.321100
O41 O 0.700800 0.135100 0.324300
O42 O 0.783100 0.082800 0.570700
C43 C 0.735600 0.182300 0.478800
C44 C 0.814500 0.274900 0.462300
C45 C 0.899400 0.234200 0.532600
C46 C 1.000700 0.291900 0.549300
C47 C 0.881300 0.111100 0.601900
O48 O 0.937500 0.041300 0.676800
H49 H 1.047100 0.229900 0.523500
H50 H 1.016200 0.318900 0.658500
H51 H 1.003700 0.361600 0.478000
H52 H 0.660100 -0.005200 -0.003300
H53 H 0.782500 -0.083300 0.249100
H54 H 0.807900 -0.090100 0.067800
H55 H 0.799300 -0.309400 0.189400
H56 H 0.637900 -0.374400 0.068900
H57 H 0.583300 -0.184600 -0.097600
H58 H 0.576200 0.082000 0.406000
H59 H 0.679700 0.205300 0.536000
H60 H 0.803300 0.352000 0.406200
O61 O 0.504800 0.683000 0.590300
C62 C 0.505800 0.594200 0.706300
O63 O 0.437100 0.584600 0.789400
C64 C 0.596900 0.521600 0.709200
C65 C 0.658300 0.567300 0.580300
C66 C 0.762200 0.615600 0.643500
C67 C 0.749100 0.753700 0.644500
C68 C 0.662100 0.790200 0.578300
C69 C 0.599400 0.683600 0.517800
C70 C 0.616800 0.435100 0.821100
O71 O 0.700800 0.364900 0.824300
O72 O 0.783100 0.417200 1.070700
C73 C 0.735600 0.317700 0.978800
C74 C 0.814500 0.225100 0.962300
C75 C 0.899400 0.265800 1.032600
C76 C 1.000700 0.208100 1.049300
C77 C 0.881300 0.388900 1.101900
O78 O 0.937500 0.458700 1.176800
H79 H 1.047100 0.270100 1.023500
H80 H 1.016200 0.181100 1.158500
H81 H 1.003700 0.138400 0.978000
H82 H 0.660100 0.505200 0.496700
H83 H 0.782500 0.583300 0.749100
H84 H 0.807900 0.590100 0.567800
H85 H 0.799300 0.809400 0.689400
H86 H 0.637900 0.874400 0.568900
H87 H 0.583300 0.684600 0.402400
H88 H 0.576200 0.418000 0.906000
H89 H 0.679700 0.294700 1.036000
H90 H 0.803300 0.148000 0.906200
O91 O 0.495200 1.183000 0.909700
C92 C 0.494200 1.094200 0.793700
O93 O 0.562900 1.084600 0.710600
C94 C 0.403100 1.021600 0.790800
C95 C 0.341700 1.067300 0.919700
C96 C 0.237800 1.115600 0.856500
C97 C 0.250900 1.253700 0.855500
C98 C 0.337900 1.290200 0.921700
C99 C 0.400600 1.183600 0.982200
C100 C 0.383200 0.935100 0.678900
O101 O 0.299200 0.864900 0.675700
O102 O 0.216900 0.917200 0.429300
C103 C 0.264400 0.817700 0.521200
C104 C 0.185500 0.725100 0.537700
C105 C 0.100600 0.765800 0.467400
C106 C -0.000700 0.708100 0.450700
C107 C 0.118700 0.888900 0.398100
O108 O 0.062500 0.958700 0.323200
H109 H -0.047100 0.770100 0.476500
H110 H -0.016200 0.681100 0.341500
H111 H -0.003700 0.638400 0.522000
H112 H 0.339900 1.005200 1.003300
H113 H 0.217500 1.083300 0.750900
H114 H 0.192100 1.090100 0.932200
H115 H 0.200700 1.309400 0.810600
H116 H 0.362100 1.374400 0.931100
H117 H 0.416700 1.184600 1.097600
H118 H 0.423800 0.918000 0.594000
H119 H 0.320300 0.794700 0.464000
H120 H 0.196700 0.648000 0.593800

#END
