./LAFLAH_from_xyz.cif_generated_by_CrystalShift
_symmetry_cell_setting triclinic
_symmetry_space_group_name_H-M 'P 1'
loop_
_symmetry_equiv_pos_site_id
_symmetry_equiv_pos_as_xyz
1 x,y,z
_cell_length_a 8.686700
_cell_length_b 9.349300
_cell_length_c 11.691000
_cell_angle_alpha 73.500000
_cell_angle_beta 77.580000
_cell_angle_gamma 78.730000
_cell_volume 879.875817
loop_
_atom_site_label
_atom_site_type_symbol
_atom_site_fract_x
_atom_site_fract_y
_atom_site_fract_z
O1 O 0.853910 0.664530 0.199720
O2 O 0.860190 -0.096060 0.289960
H3 H 0.880000 -0.177000 0.249000
N4 N 0.727550 0.474920 0.208390
N5 N 0.661700 0.342060 0.278000
C6 C 0.791300 0.470620 0.081540
H7 H 0.910000 0.476000 0.068000
C8 C 0.761200 0.316200 0.079000
H9 H 0.660000 0.324000 0.048700
H10 H 0.852000 0.269000 0.028800
C11 C 0.745010 0.226910 0.211540
H12 H 0.678100 0.145500 0.229000
C13 C 0.774500 0.564740 0.262590
C14 C 0.720200 0.543000 0.395450
H15 H 0.604000 0.559000 0.415100
H16 H 0.752000 0.440000 0.435500
H17 H 0.765000 0.614000 0.418300
C18 C 0.490430 0.361580 0.297090
C19 C 0.416280 0.235310 0.358580
H20 H 0.479000 0.142800 0.383500
C21 C 0.251680 0.248700 0.383480
H22 H 0.204000 0.163000 0.425600
C23 C 0.159860 0.386500 0.350280
H24 H 0.046000 0.393000 0.371200
C25 C 0.232300 0.512060 0.292850
H26 H 0.171000 0.609000 0.271400
C27 C 0.397250 0.500990 0.265820
H28 H 0.445200 0.585100 0.225500
C29 C 0.713700 0.603700 -0.007350
H30 H 0.763000 0.603000 -0.090000
H31 H 0.601000 0.598000 0.002800
H32 H 0.735000 0.695000 0.009000
C33 C 0.903640 0.155670 0.252660
H34 H 0.983500 0.225700 0.218000
H35 H 0.889000 0.133300 0.341900
C36 C 0.967920 0.005110 0.219810
H37 H 0.967700 0.019000 0.135600
C38 C 1.136290 -0.047730 0.245340
C39 C 1.165400 -0.112990 0.362840
H40 H 1.075000 -0.129000 0.425400
C41 C 1.319300 -0.149090 0.387000
H42 H 1.336000 -0.192000 0.475200
C43 C 1.445900 -0.120250 0.294800
H44 H 1.554000 -0.139000 0.311600
C45 C 1.420000 -0.059100 0.178000
H46 H 1.510000 -0.042000 0.109600
C47 C 1.265400 -0.023240 0.152960
H48 H 1.246000 0.015200 0.071300
O49 O 0.146090 0.335470 0.800280
O50 O 0.139810 1.096060 0.710040
H51 H 0.120000 1.177000 0.751000
N52 N 0.272450 0.525080 0.791610
N53 N 0.338300 0.657940 0.722000
C54 C 0.208700 0.529380 0.918460
H55 H 0.090000 0.524000 0.932000
C56 C 0.238800 0.683800 0.921000
H57 H 0.340000 0.676000 0.951300
H58 H 0.148000 0.731000 0.971200
C59 C 0.254990 0.773090 0.788460
H60 H 0.321900 0.854500 0.771000
C61 C 0.225500 0.435260 0.737410
C62 C 0.279800 0.457000 0.604550
H63 H 0.396000 0.441000 0.584900
H64 H 0.248000 0.560000 0.564500
H65 H 0.235000 0.386000 0.581700
C66 C 0.509570 0.638420 0.702910
C67 C 0.583720 0.764690 0.641420
H68 H 0.521000 0.857200 0.616500
C69 C 0.748320 0.751300 0.616520
H70 H 0.796000 0.837000 0.574400
C71 C 0.840140 0.613500 0.649720
H72 H 0.954000 0.607000 0.628800
C73 C 0.767700 0.487940 0.707150
H74 H 0.829000 0.391000 0.728600
C75 C 0.602750 0.499010 0.734180
H76 H 0.554800 0.414900 0.774500
C77 C 0.286300 0.396300 1.007350
H78 H 0.237000 0.397000 1.090000
H79 H 0.399000 0.402000 0.997200
H80 H 0.265000 0.305000 0.991000
C81 C 0.096360 0.844330 0.747340
H82 H 0.016500 0.774300 0.782000
H83 H 0.111000 0.866700 0.658100
C84 C 0.032080 0.994890 0.780190
H85 H 0.032300 0.981000 0.864400
C86 C -0.136290 1.047730 0.754660
C87 C -0.165400 1.112990 0.637160
H88 H -0.075000 1.129000 0.574600
C89 C -0.319300 1.149090 0.613000
H90 H -0.336000 1.192000 0.524800
C91 C -0.445900 1.120250 0.705200
H92 H -0.554000 1.139000 0.688400
C93 C -0.420000 1.059100 0.822000
H94 H -0.510000 1.042000 0.890400
C95 C -0.265400 1.023240 0.847040
H96 H -0.246000 0.984800 0.928700

#END
