
#######################################################################
#
#                 Cambridge Crystallographic Data Centre
#                                CCDC 
#
#######################################################################
#
# If this CIF has been generated from an entry in the Cambridge 
# Structural Database, then it will include bibliographic, chemical, 
# crystal, experimental, refinement or atomic coordinate data resulting 
# from the CCDC's data processing and validation procedures.
#
#######################################################################

data_LAFVOG
_symmetry_cell_setting           monoclinic
_symmetry_space_group_name_H-M   'P 21/c'
_symmetry_Int_Tables_number      14
_space_group_name_Hall           '-P 2ybc'
loop_
_symmetry_equiv_pos_site_id
_symmetry_equiv_pos_as_xyz
1 x,y,z
2 -x,1/2+y,1/2-z
3 -x,-y,-z
4 x,1/2-y,1/2+z
_cell_length_a                   10.908(7)
_cell_length_b                   13.050(9)
_cell_length_c                   13.425(9)
_cell_angle_alpha                90
_cell_angle_beta                 93.055(14)
_cell_angle_gamma                90
_cell_volume                     1908.32
loop_
_atom_site_label
_atom_site_type_symbol
_atom_site_fract_x
_atom_site_fract_y
_atom_site_fract_z
C1 C 0.6490(5) 0.5461(5) 0.5902(5)
C2 C 0.7090(5) 0.4881(5) 0.5225(5)
C3 C 0.7650(5) 0.5574(4) 0.4521(5)
C4 C 0.8407(5) 0.5507(4) 0.3718(4)
C5 C 0.8811(5) 0.6389(5) 0.3277(4)
C6 C 0.8466(5) 0.7368(5) 0.3622(5)
C7 C 0.7707(6) 0.7451(5) 0.4424(5)
H1 H 0.7454 0.8086 0.4650
C8 C 0.7347(5) 0.6559(5) 0.4867(4)
C9 C 0.5776(5) 0.5238(5) 0.6755(5)
C10 C 0.5683(6) 0.5965(6) 0.7518(6)
H2 H 0.6079 0.6592 0.7468
C11 C 0.5015(7) 0.5766(7) 0.8339(7)
H3 H 0.4957 0.6253 0.8840
C12 C 0.4445(7) 0.4847(8) 0.8405(7)
H4 H 0.3998 0.4704 0.8960
C13 C 0.4514(6) 0.4138(7) 0.7680(8)
H5 H 0.4115 0.3514 0.7742
C14 C 0.5175(5) 0.4324(6) 0.6837(6)
H6 H 0.5206 0.3833 0.6337
C15 C 0.7243(5) 0.3736(4) 0.5218(5)
C16 C 0.7785(5) 0.3249(5) 0.6042(5)
H7 H 0.8006 0.3627 0.6610
C17 C 0.8004(6) 0.2211(6) 0.6032(6)
H8 H 0.8381 0.1883 0.6582
C18 C 0.7652(6) 0.1684(5) 0.5196(6)
C19 C 0.7112(6) 0.2124(5) 0.4354(6)
H9 H 0.6905 0.1738 0.3787
C20 C 0.6892(6) 0.3154(5) 0.4384(5)
H10 H 0.6500 0.3473 0.3835
C21 C 0.9753(6) 0.4093(6) 0.3834(5)
H11 H 1.0469 0.4509 0.3767
H12 H 0.9886 0.3429 0.3551
H13 H 0.9597 0.4021 0.4527
C22 C 0.9045(6) 0.6393(5) 0.1547(5)
H14 H 0.8585 0.5778 0.1409
H15 H 0.9660 0.6469 0.1066
H16 H 0.8502 0.6972 0.1508
C23 C 0.8822(7) 0.9157(5) 0.3537(5)
H17 H 0.7971 0.9344 0.3543
H18 H 0.9249 0.9644 0.3147
H19 H 0.9174 0.9153 0.4208
F1 F 0.7881(5) 0.0654(3) 0.5173(4)
O1 O 0.6640(4) 0.6497(3) 0.5673(3)
O2 O 0.8714(4) 0.4571(3) 0.3318(3)
O3 O 0.9621(4) 0.6335(3) 0.2523(3)
O4 O 0.8927(4) 0.8165(3) 0.3114(3)
C1 C 0.3510(5) 0.0461(5) -0.0902(5)
C2 C 0.2910(5) -0.0119(5) -0.0225(5)
C3 C 0.2350(5) 0.0574(4) 0.0479(5)
C4 C 0.1593(5) 0.0507(4) 0.1282(4)
C5 C 0.1189(5) 0.1389(5) 0.1723(4)
C6 C 0.1534(5) 0.2368(5) 0.1378(5)
C7 C 0.2293(6) 0.2451(5) 0.0576(5)
H1 H 0.2546 0.3086 0.0350
C8 C 0.2653(5) 0.1559(5) 0.0133(4)
C9 C 0.4224(5) 0.0238(5) -0.1755(5)
C10 C 0.4317(6) 0.0965(6) -0.2518(6)
H2 H 0.3921 0.1592 -0.2468
C11 C 0.4985(7) 0.0766(7) -0.3339(7)
H3 H 0.5043 0.1253 -0.3840
C12 C 0.5555(7) -0.0153(8) -0.3405(7)
H4 H 0.6002 -0.0296 -0.3960
C13 C 0.5486(6) -0.0862(7) -0.2680(8)
H5 H 0.5885 -0.1486 -0.2742
C14 C 0.4825(5) -0.0676(6) -0.1837(6)
H6 H 0.4794 -0.1167 -0.1337
C15 C 0.2757(5) -0.1264(4) -0.0218(5)
C16 C 0.2215(5) -0.1751(5) -0.1042(5)
H7 H 0.1994 -0.1373 -0.1610
C17 C 0.1996(6) -0.2789(6) -0.1032(6)
H8 H 0.1619 -0.3117 -0.1582
C18 C 0.2348(6) -0.3316(5) -0.0196(6)
C19 C 0.2888(6) -0.2876(5) 0.0646(6)
H9 H 0.3095 -0.3262 0.1213
C20 C 0.3108(6) -0.1846(5) 0.0616(5)
H10 H 0.3500 -0.1527 0.1165
C21 C 0.0247(6) -0.0907(6) 0.1166(5)
H11 H -0.0469 -0.0491 0.1233
H12 H 0.0114 -0.1571 0.1449
H13 H 0.0403 -0.0979 0.0473
C22 C 0.0955(6) 0.1393(5) 0.3453(5)
H14 H 0.1415 0.0778 0.3591
H15 H 0.0340 0.1469 0.3934
H16 H 0.1498 0.1972 0.3492
C23 C 0.1178(7) 0.4157(5) 0.1463(5)
H17 H 0.2029 0.4344 0.1457
H18 H 0.0751 0.4644 0.1853
H19 H 0.0826 0.4153 0.0792
F1 F 0.2119(5) -0.4346(3) -0.0173(4)
O1 O 0.3360(4) 0.1497(3) -0.0673(3)
O2 O 0.1286(4) -0.0429(3) 0.1682(3)
O3 O 0.0379(4) 0.1335(3) 0.2477(3)
O4 O 0.1073(4) 0.3165(3) 0.1886(3)
C1 C 0.3510(5) 0.4539(5) 0.4098(5)
C2 C 0.2910(5) 0.5119(5) 0.4775(5)
C3 C 0.2350(5) 0.4426(4) 0.5479(5)
C4 C 0.1593(5) 0.4493(4) 0.6282(4)
C5 C 0.1189(5) 0.3611(5) 0.6723(4)
C6 C 0.1534(5) 0.2632(5) 0.6378(5)
C7 C 0.2293(6) 0.2549(5) 0.5576(5)
H1 H 0.2546 0.1914 0.5350
C8 C 0.2653(5) 0.3441(5) 0.5133(4)
C9 C 0.4224(5) 0.4762(5) 0.3245(5)
C10 C 0.4317(6) 0.4035(6) 0.2482(6)
H2 H 0.3921 0.3408 0.2532
C11 C 0.4985(7) 0.4234(7) 0.1661(7)
H3 H 0.5043 0.3747 0.1160
C12 C 0.5555(7) 0.5153(8) 0.1595(7)
H4 H 0.6002 0.5296 0.1040
C13 C 0.5486(6) 0.5862(7) 0.2320(8)
H5 H 0.5885 0.6486 0.2258
C14 C 0.4825(5) 0.5676(6) 0.3163(6)
H6 H 0.4794 0.6167 0.3663
C15 C 0.2757(5) 0.6264(4) 0.4782(5)
C16 C 0.2215(5) 0.6751(5) 0.3958(5)
H7 H 0.1994 0.6373 0.3390
C17 C 0.1996(6) 0.7789(6) 0.3968(6)
H8 H 0.1619 0.8117 0.3418
C18 C 0.2348(6) 0.8316(5) 0.4804(6)
C19 C 0.2888(6) 0.7876(5) 0.5646(6)
H9 H 0.3095 0.8262 0.6213
C20 C 0.3108(6) 0.6846(5) 0.5616(5)
H10 H 0.3500 0.6527 0.6165
C21 C 0.0247(6) 0.5907(6) 0.6166(5)
H11 H -0.0469 0.5491 0.6233
H12 H 0.0114 0.6571 0.6449
H13 H 0.0403 0.5979 0.5473
C22 C 0.0955(6) 0.3607(5) 0.8453(5)
H14 H 0.1415 0.4222 0.8591
H15 H 0.0340 0.3531 0.8934
H16 H 0.1498 0.3028 0.8492
C23 C 0.1178(7) 0.0843(5) 0.6463(5)
H17 H 0.2029 0.0656 0.6457
H18 H 0.0751 0.0356 0.6853
H19 H 0.0826 0.0847 0.5792
F1 F 0.2119(5) 0.9346(3) 0.4827(4)
O1 O 0.3360(4) 0.3503(3) 0.4327(3)
O2 O 0.1286(4) 0.5429(3) 0.6682(3)
O3 O 0.0379(4) 0.3665(3) 0.7477(3)
O4 O 0.1073(4) 0.1835(3) 0.6886(3)
C1 C 0.6490(5) 0.9539(5) 1.0902(5)
C2 C 0.7090(5) 1.0119(5) 1.0225(5)
C3 C 0.7650(5) 0.9426(4) 0.9521(5)
C4 C 0.8407(5) 0.9493(4) 0.8718(4)
C5 C 0.8811(5) 0.8611(5) 0.8277(4)
C6 C 0.8466(5) 0.7632(5) 0.8622(5)
C7 C 0.7707(6) 0.7549(5) 0.9424(5)
H1 H 0.7454 0.6914 0.9650
C8 C 0.7347(5) 0.8441(5) 0.9867(4)
C9 C 0.5776(5) 0.9762(5) 1.1755(5)
C10 C 0.5683(6) 0.9035(6) 1.2518(6)
H2 H 0.6079 0.8408 1.2468
C11 C 0.5015(7) 0.9234(7) 1.3339(7)
H3 H 0.4957 0.8747 1.3840
C12 C 0.4445(7) 1.0153(8) 1.3405(7)
H4 H 0.3998 1.0296 1.3960
C13 C 0.4514(6) 1.0862(7) 1.2680(8)
H5 H 0.4115 1.1486 1.2742
C14 C 0.5175(5) 1.0676(6) 1.1837(6)
H6 H 0.5206 1.1167 1.1337
C15 C 0.7243(5) 1.1264(4) 1.0218(5)
C16 C 0.7785(5) 1.1751(5) 1.1042(5)
H7 H 0.8006 1.1373 1.1610
C17 C 0.8004(6) 1.2789(6) 1.1032(6)
H8 H 0.8381 1.3117 1.1582
C18 C 0.7652(6) 1.3316(5) 1.0196(6)
C19 C 0.7112(6) 1.2876(5) 0.9354(6)
H9 H 0.6905 1.3262 0.8787
C20 C 0.6892(6) 1.1846(5) 0.9384(5)
H10 H 0.6500 1.1527 0.8835
C21 C 0.9753(6) 1.0907(6) 0.8834(5)
H11 H 1.0469 1.0491 0.8767
H12 H 0.9886 1.1571 0.8551
H13 H 0.9597 1.0979 0.9527
C22 C 0.9045(6) 0.8607(5) 0.6547(5)
H14 H 0.8585 0.9222 0.6409
H15 H 0.9660 0.8531 0.6066
H16 H 0.8502 0.8028 0.6508
C23 C 0.8822(7) 0.5843(5) 0.8537(5)
H17 H 0.7971 0.5656 0.8543
H18 H 0.9249 0.5356 0.8147
H19 H 0.9174 0.5847 0.9208
F1 F 0.7881(5) 1.4346(3) 1.0173(4)
O1 O 0.6640(4) 0.8503(3) 1.0673(3)
O2 O 0.8714(4) 1.0429(3) 0.8318(3)
O3 O 0.9621(4) 0.8665(3) 0.7523(3)
O4 O 0.8927(4) 0.6835(3) 0.8114(3)

#END
