
#######################################################################
#
#                 Cambridge Crystallographic Data Centre
#                                CCDC 
#
#######################################################################
#
# If this CIF has been generated from an entry in the Cambridge 
# Structural Database, then it will include bibliographic, chemical, 
# crystal, experimental, refinement or atomic coordinate data resulting 
# from the CCDC's data processing and validation procedures.
#
#######################################################################

data_LAFVAS
_symmetry_cell_setting           triclinic
_symmetry_space_group_name_H-M   'P -1'
_symmetry_Int_Tables_number      2
_space_group_name_Hall           '-P 1'
loop_
_symmetry_equiv_pos_site_id
_symmetry_equiv_pos_as_xyz
1 x,y,z
2 -x,-y,-z
_cell_length_a                   8.0579(6)
_cell_length_b                   9.5536(7)
_cell_length_c                   11.1123(8)
_cell_angle_alpha                85.301(2)
_cell_angle_beta                 87.020(2)
_cell_angle_gamma                81.260(2)
_cell_volume                     841.992
loop_
_atom_site_label
_atom_site_type_symbol
_atom_site_fract_x
_atom_site_fract_y
_atom_site_fract_z
O1 O -0.16423(19) 1.03159(13) 0.22693(12)
O2 O 0.14253(16) 0.64577(11) 0.47232(10)
O3 O 0.13898(18) 0.62270(13) 0.06014(11)
C1 C -0.2354(3) 1.1060(2) 0.3270(2)
H1 H -0.2982 1.0459 0.3789
H2 H -0.3088 1.1896 0.2988
H3 H -0.1473 1.1328 0.3712
C2 C -0.0613(2) 0.90522(18) 0.25028(17)
C3 C -0.0133(2) 0.85135(18) 0.36340(17)
H4 H -0.0459 0.8995 0.4322
C4 C 0.0874(2) 0.71991(18) 0.36782(16)
C5 C 0.1392(2) 0.64175(17) 0.26958(16)
C6 C 0.2282(2) 0.50767(17) 0.31819(16)
C7 C 0.2895(2) 0.38138(17) 0.24989(16)
C8 C 0.2270(3) 0.25481(19) 0.28096(18)
H5 H 0.1491 0.2498 0.3453
C9 C 0.2790(3) 0.1365(2) 0.2176(2)
H6 H 0.2366 0.0524 0.2394
C10 C 0.3935(3) 0.1436(2) 0.1224(2)
H7 H 0.4282 0.0642 0.0793
C11 C 0.2297(2) 0.51618(17) 0.43947(16)
C12 C 0.0888(2) 0.70192(18) 0.15548(16)
C13 C 0.0699(3) 0.6720(2) -0.05352(18)
H8 H -0.0505 0.6843 -0.0454
H9 H 0.1079 0.6037 -0.1115
H10 H 0.1058 0.7611 -0.0804
C14 C -0.0093(2) 0.83372(18) 0.14677(17)
H11 H -0.0413 0.8754 0.0713
C15 C 0.4059(2) 0.3859(2) 0.15375(17)
H12 H 0.4498 0.4693 0.1318
C16 C 0.4569(3) 0.2674(2) 0.0906(2)
H13 H 0.5348 0.2715 0.0261
C17 C 0.3041(2) 0.42361(17) 0.54000(16)
C18 C 0.4305(2) 0.3106(2) 0.52025(18)
H14 H 0.4693 0.2939 0.4417
C19 C 0.4986(3) 0.2231(2) 0.61487(19)
H15 H 0.5813 0.1468 0.5998
C20 C 0.4454(3) 0.2476(2) 0.73195(19)
H16 H 0.4920 0.1883 0.7960
C21 C 0.3231(3) 0.3603(2) 0.75333(18)
H17 H 0.2876 0.3780 0.8323
C22 C 0.2525(3) 0.44774(19) 0.65858(16)
H18 H 0.1694 0.5236 0.6743
O1 O 1.16423(19) -0.03159(13) 0.77307(12)
O2 O 0.85747(16) 0.35423(11) 0.52768(10)
O3 O 0.86102(18) 0.37730(13) 0.93986(11)
C1 C 1.2354(3) -0.1060(2) 0.6730(2)
H1 H 1.2982 -0.0459 0.6211
H2 H 1.3088 -0.1896 0.7012
H3 H 1.1473 -0.1328 0.6288
C2 C 1.0613(2) 0.09478(18) 0.74972(17)
C3 C 1.0133(2) 0.14865(18) 0.63660(17)
H4 H 1.0459 0.1005 0.5678
C4 C 0.9126(2) 0.28009(18) 0.63218(16)
C5 C 0.8608(2) 0.35825(17) 0.73042(16)
C6 C 0.7718(2) 0.49233(17) 0.68181(16)
C7 C 0.7105(2) 0.61862(17) 0.75011(16)
C8 C 0.7730(3) 0.74519(19) 0.71904(18)
H5 H 0.8509 0.7502 0.6547
C9 C 0.7210(3) 0.8635(2) 0.7824(2)
H6 H 0.7634 0.9476 0.7606
C10 C 0.6065(3) 0.8564(2) 0.8776(2)
H7 H 0.5718 0.9358 0.9207
C11 C 0.7703(2) 0.48382(17) 0.56053(16)
C12 C 0.9112(2) 0.29808(18) 0.84452(16)
C13 C 0.9301(3) 0.3280(2) 1.05352(18)
H8 H 1.0505 0.3157 1.0454
H9 H 0.8921 0.3963 1.1115
H10 H 0.8942 0.2389 1.0804
C14 C 1.0093(2) 0.16628(18) 0.85323(17)
H11 H 1.0413 0.1246 0.9287
C15 C 0.5941(2) 0.6141(2) 0.84625(17)
H12 H 0.5502 0.5307 0.8682
C16 C 0.5431(3) 0.7326(2) 0.9094(2)
H13 H 0.4652 0.7285 0.9739
C17 C 0.6959(2) 0.57639(17) 0.46000(16)
C18 C 0.5695(2) 0.6894(2) 0.47975(18)
H14 H 0.5307 0.7061 0.5583
C19 C 0.5014(3) 0.7769(2) 0.38513(19)
H15 H 0.4187 0.8532 0.4002
C20 C 0.5546(3) 0.7524(2) 0.26805(19)
H16 H 0.5080 0.8117 0.2040
C21 C 0.6769(3) 0.6397(2) 0.24667(18)
H17 H 0.7124 0.6220 0.1677
C22 C 0.7475(3) 0.55226(19) 0.34142(16)
H18 H 0.8306 0.4764 0.3257

#END
