./LAFYIA_from_xyz.cif_generated_by_CrystalShift
_symmetry_cell_setting triclinic
_symmetry_space_group_name_H-M 'P 1'
loop_
_symmetry_equiv_pos_site_id
_symmetry_equiv_pos_as_xyz
1 x,y,z
_cell_length_a 5.876400
_cell_length_b 17.974400
_cell_length_c 12.295700
_cell_angle_alpha 90.000000
_cell_angle_beta 110.070000
_cell_angle_gamma 90.000000
_cell_volume 1219.863781
loop_
_atom_site_label
_atom_site_type_symbol
_atom_site_fract_x
_atom_site_fract_y
_atom_site_fract_z
N1 N -0.348400 0.200780 0.426520
C2 C -0.520200 0.147480 0.379430
C3 C -0.427100 0.081510 0.426700
C4 C -0.190300 0.094620 0.505720
C5 C -0.145200 0.169170 0.504440
C6 C 0.079300 0.214340 0.564040
N7 N 0.454100 0.140450 0.660860
C8 C 0.252000 0.173820 0.667080
C9 C 0.252700 0.162100 0.777210
C10 C 0.459600 0.120360 0.838000
C11 C 0.579200 0.107920 0.764600
C12 C 0.024800 0.292590 0.595960
C13 C 0.142700 0.353240 0.569980
C14 C 0.103700 0.424600 0.601200
C15 C -0.056800 0.436450 0.657900
C16 C -0.177700 0.377270 0.684600
C17 C -0.137800 0.305690 0.653440
H18 H -0.369000 0.251000 0.407500
H19 H 0.492000 0.136900 0.594000
H20 H -0.678000 0.162800 0.321700
H21 H -0.511000 0.038700 0.406000
H22 H -0.080000 0.059900 0.552600
H23 H 0.165000 0.220400 0.509700
H24 H 0.140000 0.181900 0.805700
H25 H 0.505000 0.103700 0.916000
H26 H 0.724000 0.084200 0.773000
H27 H 0.254000 0.344200 0.531300
H28 H 0.191000 0.467100 0.582000
H29 H -0.093000 0.487400 0.679100
H30 H -0.288000 0.386300 0.725800
H31 H -0.221000 0.266100 0.672200
N32 N 1.348400 0.700780 1.073480
C33 C 1.520200 0.647480 1.120570
C34 C 1.427100 0.581510 1.073300
C35 C 1.190300 0.594620 0.994280
C36 C 1.145200 0.669170 0.995560
C37 C 0.920700 0.714340 0.935960
N38 N 0.545900 0.640450 0.839140
C39 C 0.748000 0.673820 0.832920
C40 C 0.747300 0.662100 0.722790
C41 C 0.540400 0.620360 0.662000
C42 C 0.420800 0.607920 0.735400
C43 C 0.975200 0.792590 0.904040
C44 C 0.857300 0.853240 0.930020
C45 C 0.896300 0.924600 0.898800
C46 C 1.056800 0.936450 0.842100
C47 C 1.177700 0.877270 0.815400
C48 C 1.137800 0.805690 0.846560
H49 H 1.369000 0.751000 1.092500
H50 H 0.508000 0.636900 0.906000
H51 H 1.678000 0.662800 1.178300
H52 H 1.511000 0.538700 1.094000
H53 H 1.080000 0.559900 0.947400
H54 H 0.835000 0.720400 0.990300
H55 H 0.860000 0.681900 0.694300
H56 H 0.495000 0.603700 0.584000
H57 H 0.276000 0.584200 0.727000
H58 H 0.746000 0.844200 0.968700
H59 H 0.809000 0.967100 0.918000
H60 H 1.093000 0.987400 0.820900
H61 H 1.288000 0.886300 0.774200
H62 H 1.221000 0.766100 0.827800
N63 N 1.348400 0.799220 0.573480
C64 C 1.520200 0.852520 0.620570
C65 C 1.427100 0.918490 0.573300
C66 C 1.190300 0.905380 0.494280
C67 C 1.145200 0.830830 0.495560
C68 C 0.920700 0.785660 0.435960
N69 N 0.545900 0.859550 0.339140
C70 C 0.748000 0.826180 0.332920
C71 C 0.747300 0.837900 0.222790
C72 C 0.540400 0.879640 0.162000
C73 C 0.420800 0.892080 0.235400
C74 C 0.975200 0.707410 0.404040
C75 C 0.857300 0.646760 0.430020
C76 C 0.896300 0.575400 0.398800
C77 C 1.056800 0.563550 0.342100
C78 C 1.177700 0.622730 0.315400
C79 C 1.137800 0.694310 0.346560
H80 H 1.369000 0.749000 0.592500
H81 H 0.508000 0.863100 0.406000
H82 H 1.678000 0.837200 0.678300
H83 H 1.511000 0.961300 0.594000
H84 H 1.080000 0.940100 0.447400
H85 H 0.835000 0.779600 0.490300
H86 H 0.860000 0.818100 0.194300
H87 H 0.495000 0.896300 0.084000
H88 H 0.276000 0.915800 0.227000
H89 H 0.746000 0.655800 0.468700
H90 H 0.809000 0.532900 0.418000
H91 H 1.093000 0.512600 0.320900
H92 H 1.288000 0.613700 0.274200
H93 H 1.221000 0.733900 0.327800
N94 N -0.348400 0.299220 -0.073480
C95 C -0.520200 0.352520 -0.120570
C96 C -0.427100 0.418490 -0.073300
C97 C -0.190300 0.405380 0.005720
C98 C -0.145200 0.330830 0.004440
C99 C 0.079300 0.285660 0.064040
N100 N 0.454100 0.359550 0.160860
C101 C 0.252000 0.326180 0.167080
C102 C 0.252700 0.337900 0.277210
C103 C 0.459600 0.379640 0.338000
C104 C 0.579200 0.392080 0.264600
C105 C 0.024800 0.207410 0.095960
C106 C 0.142700 0.146760 0.069980
C107 C 0.103700 0.075400 0.101200
C108 C -0.056800 0.063550 0.157900
C109 C -0.177700 0.122730 0.184600
C110 C -0.137800 0.194310 0.153440
H111 H -0.369000 0.249000 -0.092500
H112 H 0.492000 0.363100 0.094000
H113 H -0.678000 0.337200 -0.178300
H114 H -0.511000 0.461300 -0.094000
H115 H -0.080000 0.440100 0.052600
H116 H 0.165000 0.279600 0.009700
H117 H 0.140000 0.318100 0.305700
H118 H 0.505000 0.396300 0.416000
H119 H 0.724000 0.415800 0.273000
H120 H 0.254000 0.155800 0.031300
H121 H 0.191000 0.032900 0.082000
H122 H -0.093000 0.012600 0.179100
H123 H -0.288000 0.113700 0.225800
H124 H -0.221000 0.233900 0.172200

#END
