./ACSLCA10_from_POSCAR.cif_generated_by_CrystalShift
_symmetry_cell_setting triclinic
_symmetry_space_group_name_H-M 'P 1'
loop_
_symmetry_equiv_pos_site_id
_symmetry_equiv_pos_as_xyz
1 x,y,z
_cell_length_a 8.155000
_cell_length_b 8.571000
_cell_length_c 13.092000
_cell_angle_alpha 90.000000
_cell_angle_beta 99.540000
_cell_angle_gamma 90.000000
_cell_volume 902.429542
loop_
_atom_site_label
_atom_site_type_symbol
_atom_site_fract_x
_atom_site_fract_y
_atom_site_fract_z
H1 H -0.214600 0.441600 0.546700
H2 H -0.216100 0.294500 0.597400
H3 H 0.476000 0.347500 0.961400
H4 H 0.667600 0.211200 0.876900
H5 H 0.601500 0.107400 0.708200
H6 H 0.309200 0.141300 0.629000
H7 H -0.006600 0.224900 0.864700
H8 H -0.071300 0.382800 0.948800
H9 H 1.214600 0.941600 0.953300
H10 H 1.247500 0.913900 0.825000
H11 H 1.216100 0.794500 0.902600
H12 H 0.524000 0.847500 0.538600
H13 H 0.332400 0.711200 0.623100
H14 H -0.071300 0.117200 0.448800
H15 H -0.006600 0.275100 0.364700
H16 H 0.309200 0.358700 0.129000
H17 H 0.601500 0.392600 0.208200
H18 H 0.667600 0.288800 0.376900
H19 H 0.476000 0.152500 0.461400
H20 H -0.216100 0.205500 0.097400
H21 H -0.247500 0.086100 0.175000
H22 H -0.214600 0.058400 0.046700
H23 H 0.398500 0.607400 0.791800
H24 H 0.690800 0.641300 0.871000
H25 H 1.006600 0.724900 0.635300
H26 H 1.071300 0.882800 0.551200
H27 H 1.214600 0.558400 0.453300
H28 H 1.247500 0.586100 0.325000
H29 H 1.216100 0.705500 0.402600
H30 H 0.524000 0.652500 0.038600
H31 H 0.332400 0.788800 0.123100
H32 H 0.398500 0.892600 0.291800
H33 H 0.690800 0.858700 0.371000
H34 H 1.006600 0.775100 0.135300
H35 H 1.071300 0.617200 0.051200
H36 H -0.247500 0.413900 0.675000
C37 C 0.995300 0.599500 0.342100
C38 C 0.839900 0.600600 0.089400
C39 C 0.560300 0.701900 0.103500
C40 C 0.449400 0.782000 0.153500
C41 C 0.499500 0.841700 0.251300
C42 C 0.662300 0.822600 0.299700
C43 C 0.774300 0.745300 0.249000
C44 C 0.726500 0.683900 0.149600
C45 C 0.273500 0.183900 0.350400
C46 C 0.225700 0.245300 0.251000
C47 C 0.337700 0.322600 0.200300
C48 C 0.500500 0.341700 0.248700
C49 C 0.726500 0.816100 0.649600
C50 C 0.774300 0.754700 0.749000
C51 C 0.662300 0.677400 0.799700
C52 C 0.499500 0.658300 0.751300
C53 C 0.449400 0.718000 0.653500
C54 C 0.560300 0.798100 0.603500
C55 C 0.839900 0.899400 0.589400
C56 C 0.995300 0.900500 0.842100
C57 C 1.175600 0.892900 0.887100
C58 C -0.175600 0.392900 0.612900
C59 C 0.004700 0.400500 0.657900
C60 C 0.160100 0.399400 0.910600
C61 C 0.439700 0.298100 0.896500
C62 C -0.175600 0.107100 0.112900
C63 C 0.004700 0.099500 0.157900
C64 C 0.160100 0.100600 0.410600
C65 C 0.439700 0.201900 0.396500
C66 C 0.550600 0.282000 0.346500
C67 C 0.550600 0.218000 0.846500
C68 C 0.500500 0.158300 0.748700
C69 C 0.337700 0.177400 0.700300
C70 C 0.225700 0.254700 0.751000
C71 C 0.273500 0.316100 0.850400
C72 C 1.175600 0.607100 0.387100
N73 N 0.005900 0.157500 0.405200
N74 N 0.994100 0.842500 0.594800
N75 N 0.994100 0.657500 0.094800
N76 N 0.005900 0.342500 0.905200
O77 O 0.940000 0.737300 0.298900
O78 O 0.907600 0.488400 0.341000
O79 O 0.211100 0.512700 0.963900
O80 O 0.060000 0.262700 0.701100
O81 O 0.907600 1.011600 0.841000
O82 O 0.940000 0.762700 0.798900
O83 O 0.788900 1.012700 0.536100
O84 O 0.092400 0.511600 0.659000
O85 O 0.092400 -0.011600 0.159000
O86 O 0.060000 0.237300 0.201100
O87 O 0.788900 0.487300 0.036100
O88 O 0.211100 -0.012700 0.463900

#END
