
#######################################################################
#
#                 Cambridge Crystallographic Data Centre
#                                CCDC 
#
#######################################################################
#
# If this CIF has been generated from an entry in the Cambridge 
# Structural Database, then it will include bibliographic, chemical, 
# crystal, experimental, refinement or atomic coordinate data resulting 
# from the CCDC's data processing and validation procedures.
#
#######################################################################

data_ACUDAD
_symmetry_cell_setting           triclinic
_symmetry_space_group_name_H-M   'P -1'
_symmetry_Int_Tables_number      2
_space_group_name_Hall           '-P 1'
loop_
_symmetry_equiv_pos_site_id
_symmetry_equiv_pos_as_xyz
1 x,y,z
2 -x,-y,-z
_cell_length_a                   11.4424(19)
_cell_length_b                   11.972(2)
_cell_length_c                   13.962(2)
_cell_angle_alpha                106.838(3)
_cell_angle_beta                 92.871(3)
_cell_angle_gamma                100.803(3)
_cell_volume                     1787.07
loop_
_atom_site_label
_atom_site_type_symbol
_atom_site_fract_x
_atom_site_fract_y
_atom_site_fract_z
Ag1 Ag 0.60281(2) 0.74256(2) -0.28757(2)
C1 C 0.3967(2) 0.5092(2) -0.2579(2)
C2 C 0.3030(2) 0.4093(2) -0.2409(2)
H1 H 0.2516 0.3653 -0.3028
H2 H 0.3418 0.3543 -0.2187
C3 C 0.1431(2) 0.3772(2) -0.1463(2)
H3 H 0.1787 0.3224 -0.1209
H4 H 0.0918 0.3315 -0.2079
C4 C 0.0707(2) 0.4406(2) -0.06944(19)
C5 C 0.0695(2) 0.5609(2) -0.05311(19)
H5 H 0.1171 0.6026 -0.0888
C6 C -0.0003(2) 0.3791(2) -0.01433(19)
C7 C -0.0007(2) 0.2496(2) -0.0257(2)
H6 H -0.0553 0.2214 0.0173
H7 H 0.0788 0.2413 -0.0057
C8 C -0.0179(2) 0.0623(2) -0.1512(2)
H8 H 0.0341 0.0484 -0.2043
H9 H 0.0206 0.0513 -0.0922
C9 C -0.1393(2) -0.0267(2) -0.18554(19)
C10 C 0.4685(2) 0.3406(2) -0.3802(2)
H10 H 0.4167 0.2751 -0.3720
C11 C 0.5592(2) 0.3380(3) -0.4393(2)
H11 H 0.5820 0.2708 -0.4798
C12 C 0.6106(2) 0.4567(3) -0.4266(2)
H12 H 0.6752 0.4815 -0.4588
C13 C 0.2252(3) 0.5765(3) -0.3309(2)
H13 H 0.1660 0.5076 -0.3435
C14 C 0.2145(3) 0.6774(3) -0.3529(3)
H14 H 0.1471 0.6917 -0.3835
C15 C 0.3251(3) 0.7550(3) -0.3205(3)
H15 H 0.3431 0.8318 -0.3260
C16 C 0.6094(3) 0.5909(3) -0.0496(3)
H16 H 0.6755 0.5808 -0.0141
C17 C 0.5422(3) 0.6761(3) -0.0095(3)
H17 H 0.5540 0.7311 0.0545
C18 C 0.4561(3) 0.6606(3) -0.0850(2)
H18 H 0.3949 0.7023 -0.0823
C19 C -0.2691(3) 0.0202(3) 0.0390(3)
H19 H -0.2715 0.0192 0.1052
C20 C -0.3513(3) 0.0613(3) -0.0111(3)
H20 H -0.4160 0.0924 0.0141
C21 C -0.3166(2) 0.0464(2) -0.1052(3)
H21 H -0.3532 0.0660 -0.1573
C22 C -0.0181(2) -0.1884(2) -0.2211(2)
H22 H 0.0559 -0.1435 -0.2257
C23 C -0.0456(3) -0.3084(2) -0.2334(2)
H23 H 0.0056 -0.3616 -0.2476
C24 C -0.1658(3) -0.3339(2) -0.2203(2)
H24 H -0.2088 -0.4096 -0.2246
C25 C -0.1558(3) 0.0609(2) -0.3294(2)
H25 H -0.0851 0.1186 -0.3128
C26 C -0.2382(3) 0.0389(3) -0.4090(2)
H26 H -0.2357 0.0778 -0.4579
C27 C -0.3272(3) -0.0537(3) -0.4025(2)
H27 H -0.3958 -0.0873 -0.4479
N1 N 0.55698(19) 0.5297(2) -0.36370(18)
N2 N 0.46802(18) 0.45681(18) -0.33554(16)
N3 N 0.4016(2) 0.7061(2) -0.2808(2)
N4 N 0.33817(19) 0.59506(19) -0.28701(17)
N5 N 0.47559(19) 0.57289(18) -0.16520(17)
N6 N 0.5692(2) 0.5263(2) -0.14352(19)
N7 N -0.21883(18) -0.00237(18) -0.10801(17)
N8 N -0.1867(2) -0.0175(2) -0.01843(18)
N9 N -0.2121(2) -0.23687(19) -0.20072(19)
N10 N -0.11936(19) -0.14771(17) -0.20116(17)
N11 N -0.3020(2) -0.0883(2) -0.32361(19)
N12 N -0.19514(19) -0.01639(18) -0.27823(17)
O1 O 0.23512(15) 0.46417(14) -0.16604(14)
O2 O -0.03738(15) 0.18055(14) -0.12838(13)
C6A C 0.0003(2) 0.6209(2) 0.01433(19)
C4A C -0.0707(2) 0.5594(2) 0.06944(19)
C3A C -0.1431(2) 0.6228(2) 0.1463(2)
H3A H -0.1787 0.6776 0.1209
H4A H -0.0918 0.6685 0.2079
O1A O -0.23512(15) 0.53583(14) 0.16604(14)
C2A C -0.3030(2) 0.5907(2) 0.2409(2)
C1A C -0.3967(2) 0.4908(2) 0.2579(2)
N2A N -0.46802(18) 0.54319(18) 0.33554(16)
C10A C -0.4685(2) 0.6594(2) 0.3802(2)
H10A H -0.4167 0.7249 0.3720
C11A C -0.5592(2) 0.6620(3) 0.4393(2)
H11A H -0.5820 0.7292 0.4798
C12A C -0.6106(2) 0.5433(3) 0.4266(2)
H12A H -0.6752 0.5185 0.4588
N1A N -0.55698(19) 0.4703(2) 0.36370(18)
N4A N -0.33817(19) 0.40494(19) 0.28701(17)
C13A C -0.2252(3) 0.4235(3) 0.3309(2)
H13A H -0.1660 0.4924 0.3435
C14A C -0.2145(3) 0.3226(3) 0.3529(3)
H14A H -0.1471 0.3083 0.3835
C15A C -0.3251(3) 0.2450(3) 0.3205(3)
H15A H -0.3431 0.1682 0.3260
N3A N -0.4016(2) 0.2939(2) 0.2808(2)
N5A N -0.47559(19) 0.42711(18) 0.16520(17)
C18A C -0.4561(3) 0.3394(3) 0.0850(2)
C17A C -0.5422(3) 0.3239(3) 0.0095(3)
C16A C -0.6094(3) 0.4091(3) 0.0496(3)
H16A H -0.6755 0.4192 0.0141
N6A N -0.5692(2) 0.4737(2) 0.14352(19)
H17A H -0.5540 0.2689 -0.0545
H18A H -0.3949 0.2977 0.0823
H1A H -0.2516 0.6347 0.3028
H2A H -0.3418 0.6457 0.2187
C5A C -0.0695(2) 0.4391(2) 0.05311(19)
H5A H -0.1171 0.3974 0.0888
C7A C 0.0007(2) 0.7504(2) 0.0257(2)
H6A H 0.0553 0.7786 -0.0173
H7A H -0.0788 0.7587 0.0057
O2A O 0.03738(15) 0.81945(14) 0.12838(13)
C8A C 0.0179(2) 0.9377(2) 0.1512(2)
H8A H -0.0341 0.9516 0.2043
H9A H -0.0206 0.9487 0.0922
C9A C 0.1393(2) 1.0267(2) 0.18554(19)
N7A N 0.21883(18) 1.00237(18) 0.10801(17)
C21A C 0.3166(2) 0.9536(2) 0.1052(3)
C20A C 0.3513(3) 0.9387(3) 0.0111(3)
C19A C 0.2691(3) 0.9798(3) -0.0390(3)
H19A H 0.2715 0.9808 -0.1052
N8A N 0.1867(2) 1.0175(2) 0.01843(18)
H20A H 0.4160 0.9076 -0.0141
H21A H 0.3532 0.9340 0.1573
N10A N 0.11936(19) 1.14771(17) 0.20116(17)
C22A C 0.0181(2) 1.1884(2) 0.2211(2)
H22A H -0.0559 1.1435 0.2257
C23A C 0.0456(3) 1.3084(2) 0.2334(2)
H23A H -0.0056 1.3616 0.2476
C24A C 0.1658(3) 1.3339(2) 0.2203(2)
H24A H 0.2088 1.4096 0.2246
N9A N 0.2121(2) 1.23687(19) 0.20072(19)
N12A N 0.19514(19) 1.01639(18) 0.27823(17)
C25A C 0.1558(3) 0.9391(2) 0.3294(2)
H25A H 0.0851 0.8814 0.3128
C26A C 0.2382(3) 0.9611(3) 0.4090(2)
H26A H 0.2357 0.9222 0.4579
C27A C 0.3272(3) 1.0537(3) 0.4025(2)
H27A H 0.3958 1.0873 0.4479
N11A N 0.3020(2) 1.0883(2) 0.32361(19)
Ag1A Ag -0.60281(2) 0.25744(2) 0.28757(2)
N9 N 0.7879(2) 0.76313(19) -0.20072(19)
N11 N 0.6980(2) 0.9117(2) -0.32361(19)
Ag1 Ag -0.39719(2) -0.25744(2) -0.28757(2)
Ag1A Ag 0.39719(2) 1.25744(2) 0.28757(2)
N9A N -0.7879(2) 0.23687(19) 0.20072(19)
N11A N -0.6980(2) 0.0883(2) 0.32361(19)
Ag1 Ag 0.60281(2) 0.74256(2) 0.71243(2)
C1 C 0.3967(2) 0.5092(2) 0.7421(2)
C2 C 0.3030(2) 0.4093(2) 0.7591(2)
H1 H 0.2516 0.3653 0.6972
H2 H 0.3418 0.3543 0.7813
C3 C 0.1431(2) 0.3772(2) 0.8537(2)
H3 H 0.1787 0.3224 0.8791
H4 H 0.0918 0.3315 0.7921
C4 C 0.0707(2) 0.4406(2) 0.93056(19)
C5 C 0.0695(2) 0.5609(2) 0.94689(19)
H5 H 0.1171 0.6026 0.9112
C6 C -0.0003(2) 0.3791(2) 0.98567(19)
C7 C -0.0007(2) 0.2496(2) 0.9743(2)
H6 H -0.0553 0.2214 1.0173
H7 H 0.0788 0.2413 0.9943
C8 C -0.0179(2) 0.0623(2) 0.8488(2)
H8 H 0.0341 0.0484 0.7957
H9 H 0.0206 0.0513 0.9078
C9 C -0.1393(2) -0.0267(2) 0.81446(19)
C10 C 0.4685(2) 0.3406(2) 0.6198(2)
H10 H 0.4167 0.2751 0.6280
C11 C 0.5592(2) 0.3380(3) 0.5607(2)
H11 H 0.5820 0.2708 0.5202
C12 C 0.6106(2) 0.4567(3) 0.5734(2)
H12 H 0.6752 0.4815 0.5412
C13 C 0.2252(3) 0.5765(3) 0.6691(2)
H13 H 0.1660 0.5076 0.6565
C14 C 0.2145(3) 0.6774(3) 0.6471(3)
H14 H 0.1471 0.6917 0.6165
C15 C 0.3251(3) 0.7550(3) 0.6795(3)
H15 H 0.3431 0.8318 0.6740
C16 C 0.6094(3) 0.5909(3) 0.9504(3)
H16 H 0.6755 0.5808 0.9859
C17 C 0.5422(3) 0.6761(3) 0.9905(3)
H17 H 0.5540 0.7311 1.0545
C18 C 0.4561(3) 0.6606(3) 0.9150(2)
H18 H 0.3949 0.7023 0.9177
C19 C -0.2691(3) 0.0202(3) 1.0390(3)
H19 H -0.2715 0.0192 1.1052
C20 C -0.3513(3) 0.0613(3) 0.9889(3)
H20 H -0.4160 0.0924 1.0141
C21 C -0.3166(2) 0.0464(2) 0.8948(3)
H21 H -0.3532 0.0660 0.8427
C22 C -0.0181(2) -0.1884(2) 0.7789(2)
H22 H 0.0559 -0.1435 0.7743
C23 C -0.0456(3) -0.3084(2) 0.7666(2)
H23 H 0.0056 -0.3616 0.7524
C24 C -0.1658(3) -0.3339(2) 0.7797(2)
H24 H -0.2088 -0.4096 0.7754
C25 C -0.1558(3) 0.0609(2) 0.6706(2)
H25 H -0.0851 0.1186 0.6872
C26 C -0.2382(3) 0.0389(3) 0.5910(2)
H26 H -0.2357 0.0778 0.5421
C27 C -0.3272(3) -0.0537(3) 0.5975(2)
H27 H -0.3958 -0.0873 0.5521
N1 N 0.55698(19) 0.5297(2) 0.63630(18)
N2 N 0.46802(18) 0.45681(18) 0.66446(16)
N3 N 0.4016(2) 0.7061(2) 0.7192(2)
N4 N 0.33817(19) 0.59506(19) 0.71299(17)
N5 N 0.47559(19) 0.57289(18) 0.83480(17)
N6 N 0.5692(2) 0.5263(2) 0.85648(19)
N7 N -0.21883(18) -0.00237(18) 0.89199(17)
N8 N -0.1867(2) -0.0175(2) 0.98157(18)
N9 N -0.2121(2) -0.23687(19) 0.79928(19)
N10 N -0.11936(19) -0.14771(17) 0.79884(17)
N11 N -0.3020(2) -0.0883(2) 0.67639(19)
N12 N -0.19514(19) -0.01639(18) 0.72177(17)
O1 O 0.23512(15) 0.46417(14) 0.83396(14)
O2 O -0.03738(15) 0.18055(14) 0.87162(13)
C6A C 0.0003(2) 0.6209(2) 1.01433(19)
C4A C -0.0707(2) 0.5594(2) 1.06944(19)
C3A C -0.1431(2) 0.6228(2) 1.1463(2)
H3A H -0.1787 0.6776 1.1209
H4A H -0.0918 0.6685 1.2079
O1A O -0.23512(15) 0.53583(14) 1.16604(14)
C2A C -0.3030(2) 0.5907(2) 1.2409(2)
C1A C -0.3967(2) 0.4908(2) 1.2579(2)
N2A N -0.46802(18) 0.54319(18) 1.33554(16)
C10A C -0.4685(2) 0.6594(2) 1.3802(2)
H10A H -0.4167 0.7249 1.3720
C11A C -0.5592(2) 0.6620(3) 1.4393(2)
H11A H -0.5820 0.7292 1.4798
C12A C -0.6106(2) 0.5433(3) 1.4266(2)
H12A H -0.6752 0.5185 1.4588
N1A N -0.55698(19) 0.4703(2) 1.36370(18)
N4A N -0.33817(19) 0.40494(19) 1.28701(17)
C13A C -0.2252(3) 0.4235(3) 1.3309(2)
H13A H -0.1660 0.4924 1.3435
C14A C -0.2145(3) 0.3226(3) 1.3529(3)
H14A H -0.1471 0.3083 1.3835
C15A C -0.3251(3) 0.2450(3) 1.3205(3)
H15A H -0.3431 0.1682 1.3260
N3A N -0.4016(2) 0.2939(2) 1.2808(2)
N5A N -0.47559(19) 0.42711(18) 1.16520(17)
C18A C -0.4561(3) 0.3394(3) 1.0850(2)
C17A C -0.5422(3) 0.3239(3) 1.0095(3)
C16A C -0.6094(3) 0.4091(3) 1.0496(3)
H16A H -0.6755 0.4192 1.0141
N6A N -0.5692(2) 0.4737(2) 1.14352(19)
H17A H -0.5540 0.2689 0.9455
H18A H -0.3949 0.2977 1.0823
H1A H -0.2516 0.6347 1.3028
H2A H -0.3418 0.6457 1.2187
C5A C -0.0695(2) 0.4391(2) 1.05311(19)
H5A H -0.1171 0.3974 1.0888
C7A C 0.0007(2) 0.7504(2) 1.0257(2)
H6A H 0.0553 0.7786 0.9827
H7A H -0.0788 0.7587 1.0057
O2A O 0.03738(15) 0.81945(14) 1.12838(13)
C8A C 0.0179(2) 0.9377(2) 1.1512(2)
H8A H -0.0341 0.9516 1.2043
H9A H -0.0206 0.9487 1.0922
C9A C 0.1393(2) 1.0267(2) 1.18554(19)
N7A N 0.21883(18) 1.00237(18) 1.10801(17)
C21A C 0.3166(2) 0.9536(2) 1.1052(3)
C20A C 0.3513(3) 0.9387(3) 1.0111(3)
C19A C 0.2691(3) 0.9798(3) 0.9610(3)
H19A H 0.2715 0.9808 0.8948
N8A N 0.1867(2) 1.0175(2) 1.01843(18)
H20A H 0.4160 0.9076 0.9859
H21A H 0.3532 0.9340 1.1573
N10A N 0.11936(19) 1.14771(17) 1.20116(17)
C22A C 0.0181(2) 1.1884(2) 1.2211(2)
H22A H -0.0559 1.1435 1.2257
C23A C 0.0456(3) 1.3084(2) 1.2334(2)
H23A H -0.0056 1.3616 1.2476
C24A C 0.1658(3) 1.3339(2) 1.2203(2)
H24A H 0.2088 1.4096 1.2246
N9A N 0.2121(2) 1.23687(19) 1.20072(19)
N12A N 0.19514(19) 1.01639(18) 1.27823(17)
C25A C 0.1558(3) 0.9391(2) 1.3294(2)
H25A H 0.0851 0.8814 1.3128
C26A C 0.2382(3) 0.9611(3) 1.4090(2)
H26A H 0.2357 0.9222 1.4579
C27A C 0.3272(3) 1.0537(3) 1.4025(2)
H27A H 0.3958 1.0873 1.4479
N11A N 0.3020(2) 1.0883(2) 1.32361(19)
Ag1A Ag -0.60281(2) 0.25744(2) 1.28757(2)
N9 N 0.7879(2) 0.76313(19) 0.79928(19)
N11 N 0.6980(2) 0.9117(2) 0.67639(19)
Ag1 Ag -0.39719(2) -0.25744(2) 0.71243(2)
Ag1A Ag 0.39719(2) 1.25744(2) 1.28757(2)
N9A N -0.7879(2) 0.23687(19) 1.20072(19)
N11A N -0.6980(2) 0.0883(2) 1.32361(19)
Ag1 Ag 1.60281(2) 0.74256(2) -0.28757(2)
C1 C 1.3967(2) 0.5092(2) -0.2579(2)
C2 C 1.3030(2) 0.4093(2) -0.2409(2)
H1 H 1.2516 0.3653 -0.3028
H2 H 1.3418 0.3543 -0.2187
C3 C 1.1431(2) 0.3772(2) -0.1463(2)
H3 H 1.1787 0.3224 -0.1209
H4 H 1.0918 0.3315 -0.2079
C4 C 1.0707(2) 0.4406(2) -0.06944(19)
C5 C 1.0695(2) 0.5609(2) -0.05311(19)
H5 H 1.1171 0.6026 -0.0888
C6 C 0.9997(2) 0.3791(2) -0.01433(19)
C7 C 0.9993(2) 0.2496(2) -0.0257(2)
H6 H 0.9447 0.2214 0.0173
H7 H 1.0788 0.2413 -0.0057
C8 C 0.9821(2) 0.0623(2) -0.1512(2)
H8 H 1.0341 0.0484 -0.2043
H9 H 1.0206 0.0513 -0.0922
C9 C 0.8607(2) -0.0267(2) -0.18554(19)
C10 C 1.4685(2) 0.3406(2) -0.3802(2)
H10 H 1.4167 0.2751 -0.3720
C11 C 1.5592(2) 0.3380(3) -0.4393(2)
H11 H 1.5820 0.2708 -0.4798
C12 C 1.6106(2) 0.4567(3) -0.4266(2)
H12 H 1.6752 0.4815 -0.4588
C13 C 1.2252(3) 0.5765(3) -0.3309(2)
H13 H 1.1660 0.5076 -0.3435
C14 C 1.2145(3) 0.6774(3) -0.3529(3)
H14 H 1.1471 0.6917 -0.3835
C15 C 1.3251(3) 0.7550(3) -0.3205(3)
H15 H 1.3431 0.8318 -0.3260
C16 C 1.6094(3) 0.5909(3) -0.0496(3)
H16 H 1.6755 0.5808 -0.0141
C17 C 1.5422(3) 0.6761(3) -0.0095(3)
H17 H 1.5540 0.7311 0.0545
C18 C 1.4561(3) 0.6606(3) -0.0850(2)
H18 H 1.3949 0.7023 -0.0823
C19 C 0.7309(3) 0.0202(3) 0.0390(3)
H19 H 0.7285 0.0192 0.1052
C20 C 0.6487(3) 0.0613(3) -0.0111(3)
H20 H 0.5840 0.0924 0.0141
C21 C 0.6834(2) 0.0464(2) -0.1052(3)
H21 H 0.6468 0.0660 -0.1573
C22 C 0.9819(2) -0.1884(2) -0.2211(2)
H22 H 1.0559 -0.1435 -0.2257
C23 C 0.9544(3) -0.3084(2) -0.2334(2)
H23 H 1.0056 -0.3616 -0.2476
C24 C 0.8342(3) -0.3339(2) -0.2203(2)
H24 H 0.7912 -0.4096 -0.2246
C25 C 0.8442(3) 0.0609(2) -0.3294(2)
H25 H 0.9149 0.1186 -0.3128
C26 C 0.7618(3) 0.0389(3) -0.4090(2)
H26 H 0.7643 0.0778 -0.4579
C27 C 0.6728(3) -0.0537(3) -0.4025(2)
H27 H 0.6042 -0.0873 -0.4479
N1 N 1.55698(19) 0.5297(2) -0.36370(18)
N2 N 1.46802(18) 0.45681(18) -0.33554(16)
N3 N 1.4016(2) 0.7061(2) -0.2808(2)
N4 N 1.33817(19) 0.59506(19) -0.28701(17)
N5 N 1.47559(19) 0.57289(18) -0.16520(17)
N6 N 1.5692(2) 0.5263(2) -0.14352(19)
N7 N 0.78117(18) -0.00237(18) -0.10801(17)
N8 N 0.8133(2) -0.0175(2) -0.01843(18)
N9 N 0.7879(2) -0.23687(19) -0.20072(19)
N10 N 0.88064(19) -0.14771(17) -0.20116(17)
N11 N 0.6980(2) -0.0883(2) -0.32361(19)
N12 N 0.80486(19) -0.01639(18) -0.27823(17)
O1 O 1.23512(15) 0.46417(14) -0.16604(14)
O2 O 0.96262(15) 0.18055(14) -0.12838(13)
C6A C 1.0003(2) 0.6209(2) 0.01433(19)
C4A C 0.9293(2) 0.5594(2) 0.06944(19)
C3A C 0.8569(2) 0.6228(2) 0.1463(2)
H3A H 0.8213 0.6776 0.1209
H4A H 0.9082 0.6685 0.2079
O1A O 0.76488(15) 0.53583(14) 0.16604(14)
C2A C 0.6970(2) 0.5907(2) 0.2409(2)
C1A C 0.6033(2) 0.4908(2) 0.2579(2)
N2A N 0.53198(18) 0.54319(18) 0.33554(16)
C10A C 0.5315(2) 0.6594(2) 0.3802(2)
H10A H 0.5833 0.7249 0.3720
C11A C 0.4408(2) 0.6620(3) 0.4393(2)
H11A H 0.4180 0.7292 0.4798
C12A C 0.3894(2) 0.5433(3) 0.4266(2)
H12A H 0.3248 0.5185 0.4588
N1A N 0.44302(19) 0.4703(2) 0.36370(18)
N4A N 0.66183(19) 0.40494(19) 0.28701(17)
C13A C 0.7748(3) 0.4235(3) 0.3309(2)
H13A H 0.8340 0.4924 0.3435
C14A C 0.7855(3) 0.3226(3) 0.3529(3)
H14A H 0.8529 0.3083 0.3835
C15A C 0.6749(3) 0.2450(3) 0.3205(3)
H15A H 0.6569 0.1682 0.3260
N3A N 0.5984(2) 0.2939(2) 0.2808(2)
N5A N 0.52441(19) 0.42711(18) 0.16520(17)
C18A C 0.5439(3) 0.3394(3) 0.0850(2)
C17A C 0.4578(3) 0.3239(3) 0.0095(3)
C16A C 0.3906(3) 0.4091(3) 0.0496(3)
H16A H 0.3245 0.4192 0.0141
N6A N 0.4308(2) 0.4737(2) 0.14352(19)
H17A H 0.4460 0.2689 -0.0545
H18A H 0.6051 0.2977 0.0823
H1A H 0.7484 0.6347 0.3028
H2A H 0.6582 0.6457 0.2187
C5A C 0.9305(2) 0.4391(2) 0.05311(19)
H5A H 0.8829 0.3974 0.0888
C7A C 1.0007(2) 0.7504(2) 0.0257(2)
H6A H 1.0553 0.7786 -0.0173
H7A H 0.9212 0.7587 0.0057
O2A O 1.03738(15) 0.81945(14) 0.12838(13)
C8A C 1.0179(2) 0.9377(2) 0.1512(2)
H8A H 0.9659 0.9516 0.2043
H9A H 0.9794 0.9487 0.0922
C9A C 1.1393(2) 1.0267(2) 0.18554(19)
N7A N 1.21883(18) 1.00237(18) 0.10801(17)
C21A C 1.3166(2) 0.9536(2) 0.1052(3)
C20A C 1.3513(3) 0.9387(3) 0.0111(3)
C19A C 1.2691(3) 0.9798(3) -0.0390(3)
H19A H 1.2715 0.9808 -0.1052
N8A N 1.1867(2) 1.0175(2) 0.01843(18)
H20A H 1.4160 0.9076 -0.0141
H21A H 1.3532 0.9340 0.1573
N10A N 1.11936(19) 1.14771(17) 0.20116(17)
C22A C 1.0181(2) 1.1884(2) 0.2211(2)
H22A H 0.9441 1.1435 0.2257
C23A C 1.0456(3) 1.3084(2) 0.2334(2)
H23A H 0.9944 1.3616 0.2476
C24A C 1.1658(3) 1.3339(2) 0.2203(2)
H24A H 1.2088 1.4096 0.2246
N9A N 1.2121(2) 1.23687(19) 0.20072(19)
N12A N 1.19514(19) 1.01639(18) 0.27823(17)
C25A C 1.1558(3) 0.9391(2) 0.3294(2)
H25A H 1.0851 0.8814 0.3128
C26A C 1.2382(3) 0.9611(3) 0.4090(2)
H26A H 1.2357 0.9222 0.4579
C27A C 1.3272(3) 1.0537(3) 0.4025(2)
H27A H 1.3958 1.0873 0.4479
N11A N 1.3020(2) 1.0883(2) 0.32361(19)
Ag1A Ag 0.39719(2) 0.25744(2) 0.28757(2)
N9 N 1.7879(2) 0.76313(19) -0.20072(19)
N11 N 1.6980(2) 0.9117(2) -0.32361(19)
Ag1 Ag 0.60281(2) -0.25744(2) -0.28757(2)
Ag1A Ag 1.39719(2) 1.25744(2) 0.28757(2)
N9A N 0.2121(2) 0.23687(19) 0.20072(19)
N11A N 0.3020(2) 0.0883(2) 0.32361(19)
Ag1 Ag 1.60281(2) 0.74256(2) 0.71243(2)
C1 C 1.3967(2) 0.5092(2) 0.7421(2)
C2 C 1.3030(2) 0.4093(2) 0.7591(2)
H1 H 1.2516 0.3653 0.6972
H2 H 1.3418 0.3543 0.7813
C3 C 1.1431(2) 0.3772(2) 0.8537(2)
H3 H 1.1787 0.3224 0.8791
H4 H 1.0918 0.3315 0.7921
C4 C 1.0707(2) 0.4406(2) 0.93056(19)
C5 C 1.0695(2) 0.5609(2) 0.94689(19)
H5 H 1.1171 0.6026 0.9112
C6 C 0.9997(2) 0.3791(2) 0.98567(19)
C7 C 0.9993(2) 0.2496(2) 0.9743(2)
H6 H 0.9447 0.2214 1.0173
H7 H 1.0788 0.2413 0.9943
C8 C 0.9821(2) 0.0623(2) 0.8488(2)
H8 H 1.0341 0.0484 0.7957
H9 H 1.0206 0.0513 0.9078
C9 C 0.8607(2) -0.0267(2) 0.81446(19)
C10 C 1.4685(2) 0.3406(2) 0.6198(2)
H10 H 1.4167 0.2751 0.6280
C11 C 1.5592(2) 0.3380(3) 0.5607(2)
H11 H 1.5820 0.2708 0.5202
C12 C 1.6106(2) 0.4567(3) 0.5734(2)
H12 H 1.6752 0.4815 0.5412
C13 C 1.2252(3) 0.5765(3) 0.6691(2)
H13 H 1.1660 0.5076 0.6565
C14 C 1.2145(3) 0.6774(3) 0.6471(3)
H14 H 1.1471 0.6917 0.6165
C15 C 1.3251(3) 0.7550(3) 0.6795(3)
H15 H 1.3431 0.8318 0.6740
C16 C 1.6094(3) 0.5909(3) 0.9504(3)
H16 H 1.6755 0.5808 0.9859
C17 C 1.5422(3) 0.6761(3) 0.9905(3)
H17 H 1.5540 0.7311 1.0545
C18 C 1.4561(3) 0.6606(3) 0.9150(2)
H18 H 1.3949 0.7023 0.9177
C19 C 0.7309(3) 0.0202(3) 1.0390(3)
H19 H 0.7285 0.0192 1.1052
C20 C 0.6487(3) 0.0613(3) 0.9889(3)
H20 H 0.5840 0.0924 1.0141
C21 C 0.6834(2) 0.0464(2) 0.8948(3)
H21 H 0.6468 0.0660 0.8427
C22 C 0.9819(2) -0.1884(2) 0.7789(2)
H22 H 1.0559 -0.1435 0.7743
C23 C 0.9544(3) -0.3084(2) 0.7666(2)
H23 H 1.0056 -0.3616 0.7524
C24 C 0.8342(3) -0.3339(2) 0.7797(2)
H24 H 0.7912 -0.4096 0.7754
C25 C 0.8442(3) 0.0609(2) 0.6706(2)
H25 H 0.9149 0.1186 0.6872
C26 C 0.7618(3) 0.0389(3) 0.5910(2)
H26 H 0.7643 0.0778 0.5421
C27 C 0.6728(3) -0.0537(3) 0.5975(2)
H27 H 0.6042 -0.0873 0.5521
N1 N 1.55698(19) 0.5297(2) 0.63630(18)
N2 N 1.46802(18) 0.45681(18) 0.66446(16)
N3 N 1.4016(2) 0.7061(2) 0.7192(2)
N4 N 1.33817(19) 0.59506(19) 0.71299(17)
N5 N 1.47559(19) 0.57289(18) 0.83480(17)
N6 N 1.5692(2) 0.5263(2) 0.85648(19)
N7 N 0.78117(18) -0.00237(18) 0.89199(17)
N8 N 0.8133(2) -0.0175(2) 0.98157(18)
N9 N 0.7879(2) -0.23687(19) 0.79928(19)
N10 N 0.88064(19) -0.14771(17) 0.79884(17)
N11 N 0.6980(2) -0.0883(2) 0.67639(19)
N12 N 0.80486(19) -0.01639(18) 0.72177(17)
O1 O 1.23512(15) 0.46417(14) 0.83396(14)
O2 O 0.96262(15) 0.18055(14) 0.87162(13)
C6A C 1.0003(2) 0.6209(2) 1.01433(19)
C4A C 0.9293(2) 0.5594(2) 1.06944(19)
C3A C 0.8569(2) 0.6228(2) 1.1463(2)
H3A H 0.8213 0.6776 1.1209
H4A H 0.9082 0.6685 1.2079
O1A O 0.76488(15) 0.53583(14) 1.16604(14)
C2A C 0.6970(2) 0.5907(2) 1.2409(2)
C1A C 0.6033(2) 0.4908(2) 1.2579(2)
N2A N 0.53198(18) 0.54319(18) 1.33554(16)
C10A C 0.5315(2) 0.6594(2) 1.3802(2)
H10A H 0.5833 0.7249 1.3720
C11A C 0.4408(2) 0.6620(3) 1.4393(2)
H11A H 0.4180 0.7292 1.4798
C12A C 0.3894(2) 0.5433(3) 1.4266(2)
H12A H 0.3248 0.5185 1.4588
N1A N 0.44302(19) 0.4703(2) 1.36370(18)
N4A N 0.66183(19) 0.40494(19) 1.28701(17)
C13A C 0.7748(3) 0.4235(3) 1.3309(2)
H13A H 0.8340 0.4924 1.3435
C14A C 0.7855(3) 0.3226(3) 1.3529(3)
H14A H 0.8529 0.3083 1.3835
C15A C 0.6749(3) 0.2450(3) 1.3205(3)
H15A H 0.6569 0.1682 1.3260
N3A N 0.5984(2) 0.2939(2) 1.2808(2)
N5A N 0.52441(19) 0.42711(18) 1.16520(17)
C18A C 0.5439(3) 0.3394(3) 1.0850(2)
C17A C 0.4578(3) 0.3239(3) 1.0095(3)
C16A C 0.3906(3) 0.4091(3) 1.0496(3)
H16A H 0.3245 0.4192 1.0141
N6A N 0.4308(2) 0.4737(2) 1.14352(19)
H17A H 0.4460 0.2689 0.9455
H18A H 0.6051 0.2977 1.0823
H1A H 0.7484 0.6347 1.3028
H2A H 0.6582 0.6457 1.2187
C5A C 0.9305(2) 0.4391(2) 1.05311(19)
H5A H 0.8829 0.3974 1.0888
C7A C 1.0007(2) 0.7504(2) 1.0257(2)
H6A H 1.0553 0.7786 0.9827
H7A H 0.9212 0.7587 1.0057
O2A O 1.03738(15) 0.81945(14) 1.12838(13)
C8A C 1.0179(2) 0.9377(2) 1.1512(2)
H8A H 0.9659 0.9516 1.2043
H9A H 0.9794 0.9487 1.0922
C9A C 1.1393(2) 1.0267(2) 1.18554(19)
N7A N 1.21883(18) 1.00237(18) 1.10801(17)
C21A C 1.3166(2) 0.9536(2) 1.1052(3)
C20A C 1.3513(3) 0.9387(3) 1.0111(3)
C19A C 1.2691(3) 0.9798(3) 0.9610(3)
H19A H 1.2715 0.9808 0.8948
N8A N 1.1867(2) 1.0175(2) 1.01843(18)
H20A H 1.4160 0.9076 0.9859
H21A H 1.3532 0.9340 1.1573
N10A N 1.11936(19) 1.14771(17) 1.20116(17)
C22A C 1.0181(2) 1.1884(2) 1.2211(2)
H22A H 0.9441 1.1435 1.2257
C23A C 1.0456(3) 1.3084(2) 1.2334(2)
H23A H 0.9944 1.3616 1.2476
C24A C 1.1658(3) 1.3339(2) 1.2203(2)
H24A H 1.2088 1.4096 1.2246
N9A N 1.2121(2) 1.23687(19) 1.20072(19)
N12A N 1.19514(19) 1.01639(18) 1.27823(17)
C25A C 1.1558(3) 0.9391(2) 1.3294(2)
H25A H 1.0851 0.8814 1.3128
C26A C 1.2382(3) 0.9611(3) 1.4090(2)
H26A H 1.2357 0.9222 1.4579
C27A C 1.3272(3) 1.0537(3) 1.4025(2)
H27A H 1.3958 1.0873 1.4479
N11A N 1.3020(2) 1.0883(2) 1.32361(19)
Ag1A Ag 0.39719(2) 0.25744(2) 1.28757(2)
N9 N 1.7879(2) 0.76313(19) 0.79928(19)
N11 N 1.6980(2) 0.9117(2) 0.67639(19)
Ag1 Ag 0.60281(2) -0.25744(2) 0.71243(2)
Ag1A Ag 1.39719(2) 1.25744(2) 1.28757(2)
N9A N 0.2121(2) 0.23687(19) 1.20072(19)
N11A N 0.3020(2) 0.0883(2) 1.32361(19)
B1 B 0.2716(5) 0.0714(3) 0.6962(3)
F1 F 0.2049(3) 0.1316(2) 0.65328(19)
F2 F 0.3599(2) 0.0409(3) 0.6384(2)
F3 F 0.3136(4) 0.1408(2) 0.79155(19)
F4 F 0.19994(18) -0.03171(16) 0.69956(19)
B1 B 0.7284(5) 0.9286(3) 0.3038(3)
F1 F 0.7951(3) 0.8684(2) 0.34672(19)
F2 F 0.6401(2) 0.9591(3) 0.3616(2)
F3 F 0.6864(4) 0.8592(2) 0.20845(19)
F4 F 0.80006(18) 1.03171(16) 0.30044(19)
C28 C 0.8768(4) 0.7454(3) 0.5180(3)
C29 C 0.9798(4) 0.8300(3) 0.5101(3)
H28 H 1.0209 0.8723 0.5760
H29 H 0.9548 0.8857 0.4801
H30 H 1.0325 0.7887 0.4689
N13 N 0.7978(4) 0.6787(4) 0.5241(3)
C28 C 0.1232(4) 0.2546(3) 0.4820(3)
C29 C 0.0202(4) 0.1700(3) 0.4899(3)
H28 H -0.0209 0.1277 0.4240
H29 H 0.0452 0.1143 0.5199
H30 H -0.0325 0.2113 0.5311
N13 N 0.2022(4) 0.3213(4) 0.4759(3)
C30 C 0.8421(4) 0.3576(3) 0.7227(3)
C31 C 0.7480(5) 0.3317(4) 0.7879(4)
H31 H 0.6986 0.2540 0.7559
H32 H 0.6996 0.3907 0.7980
H33 H 0.7852 0.3338 0.8517
N14 N 0.9106(4) 0.3744(3) 0.6715(4)
C30 C 0.1579(4) 0.6424(3) 0.2773(3)
C31 C 0.2520(5) 0.6683(4) 0.2121(4)
H31 H 0.3014 0.7460 0.2441
H32 H 0.3004 0.6093 0.2020
H33 H 0.2148 0.6662 0.1483
N14 N 0.0894(4) 0.6256(3) 0.3285(4)

#END
