
#######################################################################
#
#                 Cambridge Crystallographic Data Centre
#                                CCDC 
#
#######################################################################
#
# If this CIF has been generated from an entry in the Cambridge 
# Structural Database, then it will include bibliographic, chemical, 
# crystal, experimental, refinement or atomic coordinate data resulting 
# from the CCDC's data processing and validation procedures.
#
#######################################################################

data_ACULER
_symmetry_cell_setting           monoclinic
_symmetry_space_group_name_H-M   'P 21/c'
_symmetry_Int_Tables_number      14
_space_group_name_Hall           '-P 2ybc'
loop_
_symmetry_equiv_pos_site_id
_symmetry_equiv_pos_as_xyz
1 x,y,z
2 -x,1/2+y,1/2-z
3 -x,-y,-z
4 x,1/2-y,1/2+z
_cell_length_a                   11.312(2)
_cell_length_b                   7.372(1)
_cell_length_c                   21.323(3)
_cell_angle_alpha                90
_cell_angle_beta                 94.45(1)
_cell_angle_gamma                90
_cell_volume                     1772.81
loop_
_atom_site_label
_atom_site_type_symbol
_atom_site_fract_x
_atom_site_fract_y
_atom_site_fract_z
N1 N 0.8008(6) 0.6063(8) 0.1591(3)
N2 N 1.0323(5) 0.1535(8) 0.1465(3)
N3 N 0.3327(4) 0.6789(6) 0.4444(2)
C1 C 0.8524(4) 0.2843(7) 0.1984(2)
C2 C 0.7917(4) 0.1882(6) 0.2391(2)
C3 C 0.8226(5) 0.4645(8) 0.1780(3)
C4 C 0.9512(5) 0.2109(8) 0.1691(3)
C5 C 0.8252(6) -0.0079(8) 0.2502(3)
C6 C 0.7002(4) 0.4348(6) 0.2978(2)
C7 C 0.6966(4) 0.2630(7) 0.2738(2)
C8 C 0.5994(5) 0.1488(7) 0.2868(3)
C9 C 0.5114(5) 0.2053(7) 0.3208(3)
C10 C 0.4212(4) 0.4459(7) 0.3829(2)
C11 C 0.4238(5) 0.6173(7) 0.4081(2)
C12 C 0.5202(5) 0.7321(7) 0.3949(2)
C13 C 0.6091(5) 0.6734(7) 0.3599(3)
C14 C 0.6079(4) 0.4986(6) 0.3344(2)
C15 C 0.5130(4) 0.3825(6) 0.3453(2)
C16 C 0.3524(5) 0.8485(9) 0.4783(3)
C17 C 0.2428(6) 0.9176(9) 0.5057(3)
C18 C 0.1888(6) 0.779(1) 0.5474(3)
C19 C 0.0762(6) 0.847(1) 0.5748(3)
C20 C 0.1657(6) 0.611(1) 0.5089(3)
C21 C 0.2722(6) 0.540(1) 0.4791(3)
H1 H 0.76944 0.51623 0.29302
H2 H 0.59791 0.02346 0.27154
H3 H 0.43669 0.13626 0.33005
H4 H 0.34917 0.35739 0.38704
H5 H 0.52134 0.85048 0.41296
H6 H 0.67656 0.76009 0.35085
H7 H 0.42163 0.81104 0.50846
H8 H 0.37919 0.93307 0.44886
H9 H 0.26354 1.02095 0.52821
H10 H 0.18871 0.94430 0.46893
H11 H 0.13937 0.51786 0.53300
H12 H 0.11242 0.68003 0.47518
H13 H 0.33681 0.50635 0.51622
H14 H 0.23202 0.50468 0.44276
H15 H 0.88744 -0.03384 0.23019
H16 H 0.81709 -0.03673 0.29337
H17 H 0.76033 -0.07397 0.24498
H18 H 0.05251 0.78168 0.61047
H19 H 0.10306 0.97629 0.59305
H20 H 0.01062 0.84662 0.53816
N1 N 0.1992(6) 0.1063(8) 0.3409(3)
N2 N -0.0323(5) -0.3465(8) 0.3535(3)
N3 N 0.6673(4) 0.1789(6) 0.0556(2)
C1 C 0.1476(4) -0.2157(7) 0.3016(2)
C2 C 0.2083(4) -0.3118(6) 0.2609(2)
C3 C 0.1774(5) -0.0355(8) 0.3220(3)
C4 C 0.0488(5) -0.2891(8) 0.3309(3)
C5 C 0.1748(6) -0.5079(8) 0.2498(3)
C6 C 0.2998(4) -0.0652(6) 0.2022(2)
C7 C 0.3034(4) -0.2370(7) 0.2262(2)
C8 C 0.4006(5) -0.3512(7) 0.2132(3)
C9 C 0.4886(5) -0.2947(7) 0.1792(3)
C10 C 0.5788(4) -0.0541(7) 0.1171(2)
C11 C 0.5762(5) 0.1173(7) 0.0919(2)
C12 C 0.4798(5) 0.2321(7) 0.1051(2)
C13 C 0.3909(5) 0.1734(7) 0.1401(3)
C14 C 0.3921(4) -0.0014(6) 0.1656(2)
C15 C 0.4870(4) -0.1175(6) 0.1547(2)
C16 C 0.6476(5) 0.3485(9) 0.0217(3)
C17 C 0.7572(6) 0.4176(9) -0.0057(3)
C18 C 0.8112(6) 0.279(1) -0.0474(3)
C19 C 0.9238(6) 0.347(1) -0.0748(3)
C20 C 0.8343(6) 0.111(1) -0.0089(3)
C21 C 0.7278(6) 0.040(1) 0.0209(3)
H1 H 0.23056 0.01623 0.20698
H2 H 0.40209 -0.47654 0.22846
H3 H 0.56331 -0.36374 0.16995
H4 H 0.65083 -0.14261 0.11296
H5 H 0.47866 0.35048 0.08704
H6 H 0.32344 0.26009 0.14915
H7 H 0.57837 0.31104 -0.00846
H8 H 0.62081 0.43307 0.05114
H9 H 0.73646 0.52095 -0.02821
H10 H 0.81129 0.44430 0.03107
H11 H 0.86063 0.01786 -0.03300
H12 H 0.88758 0.18003 0.02482
H13 H 0.66319 0.00635 -0.01622
H14 H 0.76798 0.00468 0.05724
H15 H 0.11256 -0.53384 0.26981
H16 H 0.18291 -0.53673 0.20663
H17 H 0.23967 -0.57397 0.25502
H18 H 0.94749 0.28168 -0.11047
H19 H 0.89694 0.47629 -0.09305
H20 H 0.98938 0.34662 -0.03816
N1 N 0.1992(6) 0.3937(8) 0.8409(3)
N2 N -0.0323(5) 0.8465(8) 0.8535(3)
N3 N 0.6673(4) 0.3211(6) 0.5556(2)
C1 C 0.1476(4) 0.7157(7) 0.8016(2)
C2 C 0.2083(4) 0.8118(6) 0.7609(2)
C3 C 0.1774(5) 0.5355(8) 0.8220(3)
C4 C 0.0488(5) 0.7891(8) 0.8309(3)
C5 C 0.1748(6) 1.0079(8) 0.7498(3)
C6 C 0.2998(4) 0.5652(6) 0.7022(2)
C7 C 0.3034(4) 0.7370(7) 0.7262(2)
C8 C 0.4006(5) 0.8512(7) 0.7132(3)
C9 C 0.4886(5) 0.7947(7) 0.6792(3)
C10 C 0.5788(4) 0.5541(7) 0.6171(2)
C11 C 0.5762(5) 0.3827(7) 0.5919(2)
C12 C 0.4798(5) 0.2679(7) 0.6051(2)
C13 C 0.3909(5) 0.3266(7) 0.6401(3)
C14 C 0.3921(4) 0.5014(6) 0.6656(2)
C15 C 0.4870(4) 0.6175(6) 0.6547(2)
C16 C 0.6476(5) 0.1515(9) 0.5217(3)
C17 C 0.7572(6) 0.0824(9) 0.4943(3)
C18 C 0.8112(6) 0.221(1) 0.4526(3)
C19 C 0.9238(6) 0.153(1) 0.4252(3)
C20 C 0.8343(6) 0.389(1) 0.4911(3)
C21 C 0.7278(6) 0.460(1) 0.5209(3)
H1 H 0.23056 0.48377 0.70698
H2 H 0.40209 0.97654 0.72846
H3 H 0.56331 0.86374 0.66995
H4 H 0.65083 0.64261 0.61296
H5 H 0.47866 0.14952 0.58704
H6 H 0.32344 0.23991 0.64915
H7 H 0.57837 0.18896 0.49154
H8 H 0.62081 0.06693 0.55114
H9 H 0.73646 -0.02095 0.47179
H10 H 0.81129 0.05570 0.53107
H11 H 0.86063 0.48214 0.46700
H12 H 0.88758 0.31997 0.52482
H13 H 0.66319 0.49365 0.48378
H14 H 0.76798 0.49532 0.55724
H15 H 0.11256 1.03384 0.76981
H16 H 0.18291 1.03673 0.70663
H17 H 0.23967 1.07397 0.75502
H18 H 0.94749 0.21832 0.38953
H19 H 0.89694 0.02371 0.40695
H20 H 0.98938 0.15338 0.46184
N1 N 0.8008(6) 0.8937(8) 0.6591(3)
N2 N 1.0323(5) 1.3465(8) 0.6465(3)
N3 N 0.3327(4) 0.8211(6) 0.9444(2)
C1 C 0.8524(4) 1.2157(7) 0.6984(2)
C2 C 0.7917(4) 1.3118(6) 0.7391(2)
C3 C 0.8226(5) 1.0355(8) 0.6780(3)
C4 C 0.9512(5) 1.2891(8) 0.6691(3)
C5 C 0.8252(6) 1.5079(8) 0.7502(3)
C6 C 0.7002(4) 1.0652(6) 0.7978(2)
C7 C 0.6966(4) 1.2370(7) 0.7738(2)
C8 C 0.5994(5) 1.3512(7) 0.7868(3)
C9 C 0.5114(5) 1.2947(7) 0.8208(3)
C10 C 0.4212(4) 1.0541(7) 0.8829(2)
C11 C 0.4238(5) 0.8827(7) 0.9081(2)
C12 C 0.5202(5) 0.7679(7) 0.8949(2)
C13 C 0.6091(5) 0.8266(7) 0.8599(3)
C14 C 0.6079(4) 1.0014(6) 0.8344(2)
C15 C 0.5130(4) 1.1175(6) 0.8453(2)
C16 C 0.3524(5) 0.6515(9) 0.9783(3)
C17 C 0.2428(6) 0.5824(9) 1.0057(3)
C18 C 0.1888(6) 0.721(1) 1.0474(3)
C19 C 0.0762(6) 0.653(1) 1.0748(3)
C20 C 0.1657(6) 0.889(1) 1.0089(3)
C21 C 0.2722(6) 0.960(1) 0.9791(3)
H1 H 0.76944 0.98377 0.79302
H2 H 0.59791 1.47654 0.77154
H3 H 0.43669 1.36374 0.83005
H4 H 0.34917 1.14261 0.88704
H5 H 0.52134 0.64952 0.91296
H6 H 0.67656 0.73991 0.85085
H7 H 0.42163 0.68896 1.00846
H8 H 0.37919 0.56693 0.94886
H9 H 0.26354 0.47905 1.02821
H10 H 0.18871 0.55570 0.96893
H11 H 0.13937 0.98214 1.03300
H12 H 0.11242 0.81997 0.97518
H13 H 0.33681 0.99365 1.01622
H14 H 0.23202 0.99532 0.94276
H15 H 0.88744 1.53384 0.73019
H16 H 0.81709 1.53673 0.79337
H17 H 0.76033 1.57397 0.74498
H18 H 0.05251 0.71832 1.11047
H19 H 0.10306 0.52371 1.09305
H20 H 0.01062 0.65338 1.03816

#END
