./ACUNAO_from_POSCAR.cif_generated_by_CrystalShift
_symmetry_cell_setting triclinic
_symmetry_space_group_name_H-M 'P 1'
loop_
_symmetry_equiv_pos_site_id
_symmetry_equiv_pos_as_xyz
1 x,y,z
_cell_length_a 8.814000
_cell_length_b 9.514000
_cell_length_c 17.606000
_cell_angle_alpha 90.000000
_cell_angle_beta 99.850000
_cell_angle_gamma 90.000000
_cell_volume 1454.612435
loop_
_atom_site_label
_atom_site_type_symbol
_atom_site_fract_x
_atom_site_fract_y
_atom_site_fract_z
H1 H 0.598900 0.868300 1.003900
H2 H 0.428600 0.834500 0.970000
H3 H 0.493300 0.643400 0.947800
H4 H 0.586100 0.757600 0.912600
H5 H 0.697300 0.558900 1.015000
H6 H 0.741200 0.582300 0.934300
H7 H 1.075600 0.778200 1.183500
H8 H 1.223400 0.899400 1.106100
H9 H 1.142800 0.899000 0.971300
H10 H 0.968000 0.446300 1.073900
H11 H 0.947900 0.311400 1.325100
H12 H 1.401100 0.131700 0.996100
H13 H 1.488300 0.247000 0.958500
H14 H 1.571400 0.165500 1.030000
H15 H 1.506700 0.356600 1.052200
H16 H 1.413900 0.242400 1.087400
H17 H 1.302700 0.441100 0.985000
H18 H 1.258800 0.417700 1.065700
H19 H 0.924400 0.221800 0.816500
H20 H 0.776600 0.100600 0.893900
H21 H 0.857200 0.101000 1.028700
H22 H 1.032000 0.553700 0.926100
H23 H 1.052100 0.688600 0.674900
H24 H 0.447900 0.188600 0.825100
H25 H 0.468000 0.053700 0.573900
H26 H 0.642800 -0.399000 0.471300
H27 H 0.723400 -0.399400 0.606100
H28 H 0.575600 -0.278200 0.683500
H29 H 0.241200 -0.082300 0.434300
H30 H 0.197300 -0.058900 0.515000
H31 H 0.086100 -0.257600 0.412600
H32 H -0.006700 -0.143400 0.447800
H33 H -0.071400 -0.334500 0.470000
H34 H 0.011700 -0.253000 0.541500
H35 H 0.098900 -0.368300 0.503900
H36 H 0.598900 0.868300 0.003900
H37 H 0.511700 0.753000 0.041500
H38 H 0.428600 0.834500 -0.030000
H39 H 0.493300 0.643400 -0.052200
H40 H 0.586100 0.757600 -0.087400
H41 H 0.697300 0.558900 0.015000
H42 H 0.741200 0.582300 -0.065700
H43 H 1.075600 0.778200 0.183500
H44 H 1.223400 0.899400 0.106100
H45 H 1.142800 0.899000 -0.028700
H46 H 0.968000 0.446300 0.073900
H47 H 0.947900 0.311400 0.325100
H48 H 1.401100 0.131700 -0.003900
H49 H 1.488300 0.247000 -0.041500
H50 H 1.571400 0.165500 0.030000
H51 H 1.506700 0.356600 0.052200
H52 H 1.413900 0.242400 0.087400
H53 H 1.302700 0.441100 -0.015000
H54 H 1.258800 0.417700 0.065700
H55 H 0.924400 0.221800 -0.183500
H56 H 0.776600 0.100600 -0.106100
H57 H 0.857200 0.101000 0.028700
H58 H 1.032000 0.553700 -0.073900
H59 H 0.552100 -0.188600 0.174900
H60 H 0.532000 -0.053700 0.426100
H61 H 0.357200 0.399000 0.528700
H62 H 0.276600 0.399400 0.393900
H63 H 0.424400 0.278200 0.316500
H64 H 0.758800 0.082300 0.565700
H65 H 0.802700 0.058900 0.485000
H66 H 0.913900 0.257600 0.587400
H67 H 1.006700 0.143400 0.552200
H68 H 1.071400 0.334500 0.530000
H69 H 0.988300 0.253000 0.458500
H70 H 0.901100 0.368300 0.496100
H71 H 1.052100 0.688600 -0.325100
H72 H -0.401100 0.868300 1.003900
H73 H -0.488300 0.753000 1.041500
H74 H -0.571400 0.834500 0.970000
H75 H -0.506700 0.643400 0.947800
H76 H -0.413900 0.757600 0.912600
H77 H -0.302700 0.558900 1.015000
H78 H -0.258800 0.582300 0.934300
H79 H 0.075600 0.778200 1.183500
H80 H 0.223400 0.899400 1.106100
H81 H 0.142800 0.899000 0.971300
H82 H -0.032000 0.446300 1.073900
H83 H -0.052100 0.311400 1.325100
H84 H 0.401100 0.131700 0.996100
H85 H 0.488300 0.247000 0.958500
H86 H 0.571400 0.165500 1.030000
H87 H 0.506700 0.356600 1.052200
H88 H 0.413900 0.242400 1.087400
H89 H 0.302700 0.441100 0.985000
H90 H 0.258800 0.417700 1.065700
H91 H -0.075600 0.221800 0.816500
H92 H -0.223400 0.100600 0.893900
H93 H -0.142800 0.101000 1.028700
H94 H 0.447900 1.188600 0.825100
H95 H 0.468000 1.053700 0.573900
H96 H 0.642800 0.601000 0.471300
H97 H 0.723400 0.600600 0.606100
H98 H 0.575600 0.721800 0.683500
H99 H 0.241200 0.917700 0.434300
H100 H 0.197300 0.941100 0.515000
H101 H 0.086100 0.742400 0.412600
H102 H -0.006700 0.856600 0.447800
H103 H -0.071400 0.665500 0.470000
H104 H 0.011700 0.747000 0.541500
H105 H 0.098900 0.631700 0.503900
H106 H 0.032000 0.553700 0.926100
H107 H 0.052100 0.688600 0.674900
H108 H -0.401100 0.868300 0.003900
H109 H -0.488300 0.753000 0.041500
H110 H -0.571400 0.834500 -0.030000
H111 H -0.506700 0.643400 -0.052200
H112 H -0.413900 0.757600 -0.087400
H113 H -0.302700 0.558900 0.015000
H114 H -0.258800 0.582300 -0.065700
H115 H 0.075600 0.778200 0.183500
H116 H 0.223400 0.899400 0.106100
H117 H 0.142800 0.899000 -0.028700
H118 H -0.032000 0.446300 0.073900
H119 H -0.052100 0.311400 0.325100
H120 H 0.401100 0.131700 -0.003900
H121 H 0.488300 0.247000 -0.041500
H122 H 0.571400 0.165500 0.030000
H123 H 0.506700 0.356600 0.052200
H124 H 0.413900 0.242400 0.087400
H125 H 0.302700 0.441100 -0.015000
H126 H 0.258800 0.417700 0.065700
H127 H -0.075600 0.221800 -0.183500
H128 H -0.223400 0.100600 -0.106100
H129 H 0.552100 0.811400 0.174900
H130 H 0.532000 0.946300 0.426100
H131 H 0.357200 1.399000 0.528700
H132 H 0.276600 1.399400 0.393900
H133 H 0.424400 1.278200 0.316500
H134 H 0.758800 1.082300 0.565700
H135 H 0.802700 1.058900 0.485000
H136 H 0.913900 1.257600 0.587400
H137 H 1.006700 1.143400 0.552200
H138 H 1.071400 1.334500 0.530000
H139 H 0.988300 1.253000 0.458500
H140 H 0.901100 1.368300 0.496100
H141 H -0.142800 0.101000 0.028700
H142 H 0.032000 0.553700 -0.073900
H143 H 0.052100 0.688600 -0.325100
H144 H 0.511700 0.753000 1.041500
C145 C 0.971700 0.744100 0.770400
C146 C 0.533300 0.206100 0.653280
C147 C 0.466700 -0.206100 0.346720
C148 C 0.471700 -0.244100 0.270400
C149 C -0.033300 0.706100 -0.153280
C150 C -0.028300 0.744100 -0.229600
C151 C 0.044900 0.659600 -0.274200
C152 C 0.107400 0.533800 -0.246610
C153 C 0.098200 0.490400 -0.172310
C154 C 0.032200 0.579300 -0.126090
C155 C 0.084000 0.293900 -0.095120
C156 C -0.046700 0.221300 -0.129000
C157 C -0.132400 0.148800 -0.083600
C158 C -0.084900 0.148800 -0.004100
C159 C -0.050300 0.780600 -0.027120
C160 C 0.138200 0.294700 -0.015530
C161 C 0.282100 0.372300 0.021000
C162 C 0.425500 0.290000 0.041300
C163 C 0.475900 0.204300 0.005800
C164 C 0.528300 0.244100 0.729600
C165 C 0.455100 0.159600 0.774200
C166 C 0.524100 0.795700 0.994200
C167 C 0.975900 1.295700 0.505800
C168 C 0.925500 1.210000 0.541300
C169 C 0.782100 1.127700 0.521000
C170 C 0.638200 1.205300 0.484470
C171 C 0.449700 0.719400 0.472880
C172 C 0.415100 1.351200 0.495900
C173 C 0.367600 1.351200 0.416400
C174 C 0.453300 1.278700 0.371000
C175 C 0.584000 1.206100 0.404880
C176 C 0.574500 0.710000 0.958700
C177 C 0.717900 0.627700 0.979000
C178 C 0.861800 0.705300 1.015530
C179 C 1.050300 0.219400 1.027120
C180 C 1.084900 0.851200 1.004100
C181 C 1.132400 0.851200 1.083600
C182 C 0.544900 -0.159600 0.225800
C183 C 0.607400 -0.033800 0.253390
C184 C 0.033300 0.293900 0.153280
C185 C 0.028300 0.255900 0.229600
C186 C -0.044900 0.340400 0.274200
C187 C -0.107400 0.466200 0.246610
C188 C -0.098200 0.509600 0.172310
C189 C -0.032200 0.420700 0.126090
C190 C -0.084000 0.706100 0.095120
C191 C 0.046700 0.778700 0.129000
C192 C 0.132400 0.851200 0.083600
C193 C 0.084900 0.851200 0.004100
C194 C 0.050300 0.219400 0.027120
C195 C -0.138200 0.705300 0.015530
C196 C -0.282100 0.627700 -0.021000
C197 C -0.425500 0.710000 -0.041300
C198 C -0.475900 0.795700 -0.005800
C199 C 0.532200 0.920700 0.373910
C200 C 0.598200 1.009600 0.327690
C201 C 0.607400 0.966200 0.253390
C202 C 0.544900 0.840400 0.225800
C203 C 0.471700 0.755900 0.270400
C204 C 0.466700 0.793900 0.346720
C205 C 0.524100 0.795700 -0.005800
C206 C 0.574500 0.710000 -0.041300
C207 C 1.046700 0.778700 1.129000
C208 C 0.916000 0.706100 1.095120
C209 C 0.967800 0.420700 1.126090
C210 C 0.901800 0.509600 1.172310
C211 C 0.892600 0.466200 1.246610
C212 C 0.955100 0.340400 1.274200
C213 C 1.028300 0.255900 1.229600
C214 C 1.033300 0.293900 1.153280
C215 C 0.717900 0.627700 -0.021000
C216 C 0.861800 0.705300 0.015530
C217 C 1.050300 0.219400 0.027120
C218 C 1.084900 0.851200 0.004100
C219 C -0.033300 0.706100 0.846720
C220 C -0.028300 0.744100 0.770400
C221 C 0.044900 0.659600 0.725800
C222 C 0.107400 0.533800 0.753390
C223 C 0.098200 0.490400 0.827690
C224 C 0.032200 0.579300 0.873910
C225 C 0.084000 0.293900 0.904880
C226 C -0.046700 0.221300 0.871000
C227 C -0.132400 0.148800 0.916400
C228 C -0.084900 0.148800 0.995900
C229 C -0.050300 0.780600 0.972880
C230 C 0.138200 0.294700 0.984470
C231 C 0.282100 0.372300 1.021000
C232 C 0.425500 0.290000 1.041300
C233 C 0.475900 0.204300 1.005800
C234 C 0.392600 0.033800 0.746610
C235 C 0.401800 -0.009600 0.672310
C236 C 0.024100 0.704300 0.494200
C237 C 0.074500 0.790000 0.458700
C238 C 0.217900 0.872300 0.479000
C239 C 0.361800 0.794700 0.515530
C240 C 0.550300 1.280600 0.527120
C241 C 0.584900 0.648800 0.504100
C242 C 0.632400 0.648800 0.583600
C243 C 0.546700 0.721300 0.629000
C244 C 0.416000 0.793900 0.595120
C245 C 0.467800 1.079300 0.626090
C246 C 0.467800 0.079300 0.626090
C247 C 0.416000 -0.206100 0.595120
C248 C 0.546700 -0.278700 0.629000
C249 C 0.632400 -0.351200 0.583600
C250 C 0.584900 -0.351200 0.504100
C251 C 0.550300 0.280600 0.527120
C252 C 1.132400 0.851200 0.083600
C253 C 1.046700 0.778700 0.129000
C254 C 0.033300 0.293900 1.153280
C255 C 0.028300 0.255900 1.229600
C256 C -0.044900 0.340400 1.274200
C257 C -0.107400 0.466200 1.246610
C258 C -0.098200 0.509600 1.172310
C259 C -0.032200 0.420700 1.126090
C260 C -0.084000 0.706100 1.095120
C261 C 0.046700 0.778700 1.129000
C262 C 0.132400 0.851200 1.083600
C263 C 0.084900 0.851200 1.004100
C264 C 0.050300 0.219400 1.027120
C265 C -0.138200 0.705300 1.015530
C266 C -0.282100 0.627700 0.979000
C267 C -0.425500 0.710000 0.958700
C268 C -0.475900 0.795700 0.994200
C269 C 0.401800 0.990400 0.672310
C270 C 0.392600 1.033800 0.746610
C271 C 0.455100 1.159600 0.774200
C272 C 0.528300 1.244100 0.729600
C273 C 0.533300 1.206100 0.653280
C274 C 0.916000 0.706100 0.095120
C275 C 0.967800 0.420700 0.126090
C276 C 0.361800 -0.205300 0.515530
C277 C 0.217900 -0.127700 0.479000
C278 C 0.074500 -0.210000 0.458700
C279 C 0.901800 0.509600 0.172310
C280 C 0.024100 -0.295700 0.494200
C281 C 1.475900 0.204300 1.005800
C282 C 1.425500 0.290000 1.041300
C283 C 1.282100 0.372300 1.021000
C284 C 1.138200 0.294700 0.984470
C285 C 0.949700 0.780600 0.972880
C286 C 0.915100 0.148800 0.995900
C287 C 0.892600 0.466200 0.246610
C288 C 0.955100 0.340400 0.274200
C289 C 0.966700 0.706100 -0.153280
C290 C 0.971700 0.744100 -0.229600
C291 C 1.044900 0.659600 -0.274200
C292 C 1.107400 0.533800 -0.246610
C293 C 1.098200 0.490400 -0.172310
C294 C 1.032200 0.579300 -0.126090
C295 C 1.084000 0.293900 -0.095120
C296 C 0.953300 0.221300 -0.129000
C297 C 0.867600 0.148800 -0.083600
C298 C 0.915100 0.148800 -0.004100
C299 C 0.949700 0.780600 -0.027120
C300 C 1.138200 0.294700 -0.015530
C301 C 1.282100 0.372300 0.021000
C302 C 1.425500 0.290000 0.041300
C303 C 1.475900 0.204300 0.005800
C304 C 0.867600 0.148800 0.916400
C305 C 0.975900 0.295700 0.505800
C306 C 0.925500 0.210000 0.541300
C307 C 0.782100 0.127700 0.521000
C308 C 0.638200 0.205300 0.484470
C309 C 0.449700 -0.280600 0.472880
C310 C 0.415100 0.351200 0.495900
C311 C 0.367600 0.351200 0.416400
C312 C 0.453300 0.278700 0.371000
C313 C 0.584000 0.206100 0.404880
C314 C 0.532200 -0.079300 0.373910
C315 C 0.598200 0.009600 0.327690
C316 C 0.953300 0.221300 0.871000
C317 C 1.084000 0.293900 0.904880
C318 C 1.032200 0.579300 0.873910
C319 C 1.098200 0.490400 0.827690
C320 C 1.107400 0.533800 0.753390
C321 C 1.044900 0.659600 0.725800
C322 C 1.028300 0.255900 0.229600
C323 C 1.033300 0.293900 0.153280
C324 C 0.966700 0.706100 0.846720
N325 N 1.096600 0.125500 0.262800
N326 N 1.180100 0.445000 -0.298320
N327 N 0.903400 0.874500 -0.262800
N328 N 0.596600 0.374500 0.762800
N329 N 0.596600 1.374500 0.762800
N330 N 0.319900 0.945000 0.798320
N331 N -0.180100 0.555000 1.298320
N332 N 0.096600 0.125500 1.262800
N333 N 0.180100 0.445000 0.701680
N334 N -0.096600 0.874500 0.737200
N335 N 1.096600 0.125500 1.262800
N336 N 0.819900 0.555000 1.298320
N337 N 0.403400 0.625500 0.237200
N338 N 0.680100 1.055000 0.201680
N339 N -0.180100 0.555000 0.298320
N340 N 0.096600 0.125500 0.262800
N341 N 0.180100 0.445000 -0.298320
N342 N -0.096600 0.874500 -0.262800
N343 N 0.680100 0.055000 0.201680
N344 N 0.403400 -0.374500 0.237200
N345 N 0.319900 -0.055000 0.798320
N346 N 0.819900 0.555000 0.298320
N347 N 1.180100 0.445000 0.701680
N348 N 0.903400 0.874500 0.737200
O349 O 0.665300 0.133000 0.355780
O350 O 0.399500 -0.293100 0.392170
O351 O 0.899500 0.793100 0.892170
O352 O 1.165300 0.367000 0.855780
O353 O 0.793900 0.924700 0.760780
O354 O 0.961500 0.928800 0.687140
O355 O 1.245100 0.501400 0.655330
O356 O 1.164500 0.317400 0.705110
O357 O 0.293900 -0.424700 0.260780
O358 O 0.461500 -0.428800 0.187140
O359 O 0.745100 -0.001400 0.155330
O360 O 0.664500 0.182600 0.205110
O361 O 0.835500 0.682600 0.294890
O362 O 0.754900 0.498600 0.344670
O363 O 1.038500 0.071200 0.312860
O364 O 1.206100 0.075300 0.239220
O365 O 0.834700 0.633000 0.144220
O366 O 1.100500 0.206900 0.107830
O367 O 0.600500 1.293100 0.607830
O368 O 1.164500 0.317400 -0.294890
O369 O 1.245100 0.501400 -0.344670
O370 O 0.961500 0.928800 -0.312860
O371 O 0.793900 0.924700 -0.239220
O372 O 1.165300 0.367000 -0.144220
O373 O 0.899500 0.793100 -0.107830
O374 O 0.334700 0.867000 0.644220
O375 O 0.538500 1.428800 0.812860
O376 O 0.254900 1.001400 0.844670
O377 O 0.335500 0.817400 0.794890
O378 O -0.164500 0.682600 1.294890
O379 O -0.245100 0.498600 1.344670
O380 O 0.038500 0.071200 1.312860
O381 O 0.206100 0.075300 1.239220
O382 O -0.165300 0.633000 1.144220
O383 O 0.100500 0.206900 1.107830
O384 O 0.399500 0.706900 0.392170
O385 O 0.665300 1.133000 0.355780
O386 O 1.100500 0.206900 1.107830
O387 O 0.834700 0.633000 1.144220
O388 O 1.206100 0.075300 1.239220
O389 O 1.038500 0.071200 1.312860
O390 O 0.754900 0.498600 1.344670
O391 O 0.835500 0.682600 1.294890
O392 O 0.164500 0.317400 0.705110
O393 O 0.245100 0.501400 0.655330
O394 O -0.038500 0.928800 0.687140
O395 O -0.206100 0.924700 0.760780
O396 O 0.165300 0.367000 0.855780
O397 O -0.100500 0.793100 0.892170
O398 O 0.293900 0.575300 0.260780
O399 O 0.461500 0.571200 0.187140
O400 O 0.745100 0.998600 0.155330
O401 O 0.664500 1.182600 0.205110
O402 O -0.164500 0.682600 0.294890
O403 O -0.245100 0.498600 0.344670
O404 O 0.038500 0.071200 0.312860
O405 O 0.206100 0.075300 0.239220
O406 O -0.165300 0.633000 0.144220
O407 O 0.100500 0.206900 0.107830
O408 O -0.100500 0.793100 -0.107830
O409 O 0.165300 0.367000 -0.144220
O410 O -0.206100 0.924700 -0.239220
O411 O 0.164500 0.317400 -0.294890
O412 O 0.245100 0.501400 -0.344670
O413 O 0.706100 1.424700 0.739220
O414 O 0.335500 -0.182600 0.794890
O415 O 0.254900 0.001400 0.844670
O416 O 0.538500 0.428800 0.812860
O417 O 0.706100 0.424700 0.739220
O418 O 0.334700 -0.133000 0.644220
O419 O -0.038500 0.928800 -0.312860
O420 O 0.600500 0.293100 0.607830

#END
