./ACUSUO_from_POSCAR.cif_generated_by_CrystalShift
_symmetry_cell_setting triclinic
_symmetry_space_group_name_H-M 'P 1'
loop_
_symmetry_equiv_pos_site_id
_symmetry_equiv_pos_as_xyz
1 x,y,z
_cell_length_a 10.589100
_cell_length_b 10.190700
_cell_length_c 20.747300
_cell_angle_alpha 90.000000
_cell_angle_beta 103.072300
_cell_angle_gamma 90.000000
_cell_volume 2180.829435
loop_
_atom_site_label
_atom_site_type_symbol
_atom_site_fract_x
_atom_site_fract_y
_atom_site_fract_z
H1 H 0.638400 0.108900 0.791600
H2 H 0.753500 0.453700 0.559900
H3 H 0.860000 0.532100 0.533400
H4 H 0.784600 0.155300 0.520100
H5 H 0.762100 0.069200 0.414100
H6 H 0.981100 0.234600 0.274500
H7 H 0.845100 0.302500 0.271200
H8 H 0.851500 0.174400 0.228400
H9 H 1.023000 0.333000 0.376600
H10 H 1.048400 0.414400 0.483300
H11 H 1.020200 0.385400 0.597400
H12 H 0.962800 0.098700 0.672900
H13 H 1.075000 0.198900 0.664900
H14 H 0.997300 0.117600 0.602300
H15 H 0.354300 0.334200 0.610800
H16 H 0.420900 0.386800 0.554900
H17 H 0.297100 0.292900 0.535900
H18 H 0.456500 0.000000 0.608900
H19 H 0.391800 0.100200 0.649800
H20 H 0.316100 0.058300 0.577900
H21 H 0.554700 0.082100 0.519000
H22 H 0.539800 0.230700 0.498200
H23 H 0.419300 0.136500 0.480100
H24 H 0.829100 0.145100 0.733400
H25 H 0.794600 0.395400 0.667800
H26 H 1.015500 0.299400 0.759400
H27 H 1.020500 0.424200 0.714600
H28 H -0.047200 0.542500 0.005700
H29 H 0.093600 0.555200 0.051900
H30 H 0.058300 0.431300 0.006000
H31 H -0.138700 0.572100 0.109900
H32 H 0.005600 0.583200 0.151300
H33 H -0.086600 0.474800 0.170300
H34 H -0.200500 0.379100 0.031500
H35 H -0.161200 0.289400 0.094600
H36 H -0.100700 0.267200 0.031700
H37 H 0.232500 0.191200 0.186600
H38 H 0.450500 0.352100 0.189300
H39 H 0.551500 0.245200 0.076600
H40 H 0.304500 0.479900 0.012800
H41 H 0.219000 0.523700 -0.098800
H42 H 0.262300 0.388400 -0.290800
H43 H 0.405100 0.365600 -0.246800
H44 H 0.292100 0.264800 -0.242400
H45 H 0.468700 0.267100 -0.149300
H46 H 0.551900 0.223900 -0.035500
H47 H 0.609500 0.475800 0.080600
H48 H 0.608600 0.416800 0.152100
H49 H 0.488900 0.502600 0.112100
H50 H 0.286700 0.163100 0.022900
H51 H 0.393500 0.083900 0.073600
H52 H 0.257000 0.116800 0.091000
H53 H 0.566400 0.156900 0.181500
H54 H 0.448300 0.073600 0.194800
H55 H 0.574500 0.261100 0.288000
H56 H 0.626000 0.115600 0.290500
H57 H 0.477800 0.064500 0.349200
H58 H 0.288500 0.167400 0.341400
H59 H 0.364200 0.381100 0.279700
H60 H 0.190400 0.421900 0.310300
H61 H 1.001000 0.510700 0.811800
H62 H 0.864800 0.524900 0.764000
H63 H 0.908400 0.412100 0.883300
H64 H 0.746000 0.267700 0.862600
H65 H 0.641400 0.347000 0.739000
H66 H 0.361600 0.608900 0.208400
H67 H 0.140800 1.036900 0.389400
H68 H 0.246500 0.953700 0.440100
H69 H 0.140000 1.032100 0.466600
H70 H 0.215400 0.655300 0.479900
H71 H 0.237900 0.569200 0.585900
H72 H 0.018900 0.734600 0.725500
H73 H 0.154900 0.802500 0.728800
H74 H 0.148500 0.674400 0.771600
H75 H -0.023000 0.833000 0.623400
H76 H -0.048400 0.914400 0.516700
H77 H -0.020200 0.885400 0.402600
H78 H 0.037200 0.598700 0.327100
H79 H -0.075000 0.698900 0.335100
H80 H 0.002700 0.617600 0.397700
H81 H 0.645700 0.834200 0.389200
H82 H 0.579100 0.886800 0.445100
H83 H 0.702900 0.792900 0.464100
H84 H 0.543500 0.500000 0.391100
H85 H 0.608200 0.600200 0.350200
H86 H 0.683900 0.558300 0.422100
H87 H 0.445300 0.582100 0.481000
H88 H 1.047200 1.042500 0.994300
H89 H 0.906400 1.055200 0.948100
H90 H 0.941700 0.931300 0.994000
H91 H 1.138700 1.072100 0.890100
H92 H 0.994400 1.083200 0.848700
H93 H 1.086600 0.974800 0.829700
H94 H 1.200500 0.879100 0.968500
H95 H 1.161200 0.789400 0.905400
H96 H 1.100700 0.767200 0.968300
H97 H 0.767500 0.691200 0.813400
H98 H 0.549500 0.852100 0.810700
H99 H 0.448500 0.745200 0.923400
H100 H 0.695500 0.979900 0.987200
H101 H 0.781000 1.023700 1.098800
H102 H 0.737700 0.888400 1.290800
H103 H 0.594900 0.865600 1.246800
H104 H 0.707900 0.764800 1.242400
H105 H 0.531300 0.767100 1.149300
H106 H 0.448100 0.723900 1.035500
H107 H 0.390500 0.975800 0.919400
H108 H 0.391400 0.916800 0.847900
H109 H 0.511100 1.002600 0.887900
H110 H 0.713300 0.663100 0.977100
H111 H 0.606500 0.583900 0.926400
H112 H 0.743000 0.616800 0.909000
H113 H 0.433600 0.656900 0.818500
H114 H 0.551700 0.573600 0.805200
H115 H 0.425500 0.761100 0.712000
H116 H 0.374000 0.615600 0.709500
H117 H 0.522200 0.564500 0.650800
H118 H 0.711500 0.667400 0.658600
H119 H 0.635800 0.881100 0.720300
H120 H 0.809600 0.921900 0.689700
H121 H 0.460200 0.730700 0.501800
H122 H 0.580700 0.636500 0.519900
H123 H 0.170900 0.645100 0.266600
H124 H 0.205400 0.895400 0.332200
H125 H -0.015500 0.799400 0.240600
H126 H -0.020500 0.924200 0.285400
H127 H -0.001000 1.010700 0.188200
H128 H 0.135200 1.024900 0.236000
H129 H 0.091600 0.912100 0.116700
H130 H 0.254000 0.767700 0.137400
H131 H 0.358600 0.847000 0.261000
H132 H 0.859200 0.536900 0.610600
C133 C 0.599300 0.576800 0.393900
C134 C 0.624300 0.812200 0.430850
C135 C 0.194700 0.383700 0.157460
C136 C -0.022300 0.426800 0.087100
C137 C 0.010100 0.660900 0.356700
C138 C 0.071500 0.858400 0.419630
C139 C 0.080300 0.794000 0.486760
C140 C 0.010700 0.845700 0.530450
C141 C 0.025300 0.797600 0.594540
C142 C 0.111000 0.695500 0.615460
C143 C 0.025200 0.495200 0.032630
C144 C 0.110600 0.719200 0.729750
C145 C 0.180000 0.641900 0.572160
C146 C 0.165100 0.691100 0.509040
C147 C 0.156300 0.981200 0.429680
C148 C 0.538000 0.691000 0.422960
C149 C -0.063300 0.523100 0.134410
C150 C 0.325000 0.654300 0.347810
C151 C 0.230300 0.716100 0.289320
C152 C 0.148700 0.819300 0.315150
C153 C 0.034400 0.872900 0.262670
C154 C 0.074000 0.962400 0.211510
C155 C 0.131000 0.893500 0.161700
C156 C 0.228300 0.808300 0.173180
C157 C 0.308500 0.769300 0.240030
C158 C -0.130600 0.331700 0.059500
C159 C 0.276100 0.275700 0.195890
C160 C 0.701400 0.811200 0.729540
C161 C 0.656100 0.695900 0.685050
C162 C 0.543400 0.635100 0.680100
C163 C 0.449300 0.670800 0.721130
C164 C 0.504900 0.657300 0.795830
C165 C 0.674900 0.648600 0.930380
C166 C 0.445200 0.938200 0.892250
C167 C 0.516100 0.785100 1.049010
C168 C 0.565500 0.810300 1.116640
C169 C 0.687400 0.854900 1.249290
C170 C 0.405500 0.269300 0.173720
C171 C 0.665300 0.899400 1.134520
C172 C 0.713800 0.963900 1.086000
C173 C 0.663900 0.937700 1.020190
C174 C 0.564600 0.845500 1.000750
C175 C 0.513100 0.816900 0.927790
C176 C 0.486900 0.316900 0.072210
C177 C 0.594500 0.769300 0.826280
C178 C 0.723900 0.775700 0.804110
C179 C 1.130600 0.831700 0.940500
C180 C 1.063300 1.023100 0.865590
C181 C 0.435400 0.345500 -0.000750
C182 C 0.691500 0.269300 0.759970
C183 C 0.771700 0.308300 0.826820
C184 C 0.869000 0.393500 0.838300
C185 C 0.926000 0.462400 0.788490
C186 C 0.965600 0.372900 0.737330
C187 C 0.851300 0.319300 0.684850
C188 C 0.769700 0.216100 0.710680
C189 C 0.675000 0.154300 0.652190
C190 C 0.336100 0.437700 -0.020190
C191 C 0.462000 0.191000 0.577040
C192 C 0.497800 0.156700 0.512200
C193 C 0.400700 0.076800 0.606100
C194 C 0.375700 0.312200 0.569150
C195 C 0.286200 0.463900 -0.086000
C196 C 0.334700 0.399400 -0.134520
C197 C 0.989900 0.160900 0.643300
C198 C 0.928500 0.358400 0.580370
C199 C 0.919700 0.294000 0.513240
C200 C 0.989300 0.345700 0.469550
C201 C 0.974700 0.297600 0.405460
C202 C 0.889000 0.195500 0.384540
C203 C 0.312600 0.354900 -0.249290
C204 C 0.889400 0.219200 0.270250
C205 C 0.820000 0.141900 0.427840
C206 C 0.834900 0.191100 0.490960
C207 C 0.843700 0.481200 0.570320
C208 C 0.974800 0.995200 0.967370
C209 C 1.022300 0.926800 0.912900
C210 C 0.434500 0.310300 -0.116640
C211 C 0.805300 0.883700 0.842540
C212 C 0.483900 0.285100 -0.049010
C213 C 0.554800 0.438200 0.107750
C214 C 0.298600 0.311200 0.270460
C215 C 0.343900 0.195900 0.314950
C216 C 0.456600 0.135100 0.319900
C217 C 0.550700 0.170800 0.278870
C218 C 0.495100 0.157300 0.204170
C219 C 0.325100 0.148600 0.069620
C220 C 0.502200 0.656700 0.487800
N221 N 0.109700 0.764600 0.373730
N222 N 0.378000 0.272600 0.100270
N223 N 0.622000 0.772600 0.899730
N224 N 0.890300 0.264600 0.626270
O225 O 0.276100 0.430800 -0.198910
O226 O 0.685200 0.044700 0.632520
O227 O 0.579250 0.237800 0.626160
O228 O 0.597240 0.172600 0.767760
O229 O 0.868800 0.137900 0.322860
O230 O 0.920920 0.838100 0.875090
O231 O 0.723900 0.930800 1.198910
O232 O 0.819500 0.860900 0.717480
O233 O 0.402760 0.672600 0.232240
O234 O 0.420750 0.737800 0.373840
O235 O 0.131200 0.637900 0.677140
O236 O 0.772100 0.997200 0.842820
O237 O 0.079080 0.338100 0.124910
O238 O 0.314800 0.544700 0.367480
O239 O 0.180500 0.360900 0.282520
O240 O 0.227900 0.497200 0.157180

#END
