./ACUSIC_from_POSCAR.cif_generated_by_CrystalShift
_symmetry_cell_setting triclinic
_symmetry_space_group_name_H-M 'P 1'
loop_
_symmetry_equiv_pos_site_id
_symmetry_equiv_pos_as_xyz
1 x,y,z
_cell_length_a 29.342000
_cell_length_b 5.097500
_cell_length_c 10.899300
_cell_angle_alpha 90.000000
_cell_angle_beta 105.374000
_cell_angle_gamma 90.000000
_cell_volume 1571.881499
loop_
_atom_site_label
_atom_site_type_symbol
_atom_site_fract_x
_atom_site_fract_y
_atom_site_fract_z
H1 H 0.147500 0.985000 1.281400
H2 H 0.645700 0.290900 0.914900
H3 H 0.835700 0.232500 0.495900
H4 H 0.709200 0.194400 0.836100
H5 H 0.784800 0.278100 0.520500
H6 H 0.738900 -0.188700 0.960400
H7 H 0.705900 0.866800 0.457500
H8 H 0.696300 -0.326500 1.091800
H9 H 0.659400 0.761800 0.491900
H10 H 0.613000 -0.322700 1.002200
H11 H 0.708600 0.611800 0.544800
H12 H 1.014200 1.212400 0.362500
H13 H 0.684500 0.108400 1.192800
H14 H 0.985100 1.213500 0.215900
H15 H 0.647500 0.485000 1.281400
H16 H 0.664400 0.248200 1.379600
H17 H 0.979800 1.452300 0.306400
H18 H 0.588300 0.085800 1.343700
H19 H 0.583300 0.395800 1.360400
H20 H 0.898300 0.656700 0.345100
H21 H 0.559100 0.448200 1.139300
H22 H 0.524500 0.249900 1.184900
H23 H 0.866000 0.913900 0.306400
H24 H 0.553100 -0.103800 1.105500
H25 H 0.551300 0.114400 0.998900
H26 H 0.948700 0.614400 0.001100
H27 H 0.634000 0.413900 0.693600
H28 H 0.601700 0.156700 0.654900
H29 H 0.946900 0.396200 -0.105500
H30 H 0.975500 0.749900 -0.184900
H31 H 0.520200 0.952300 0.693600
H32 H 0.514900 0.713500 0.784100
H33 H 0.485800 0.712400 0.637500
H34 H 0.791400 0.111800 0.455200
H35 H 0.840600 0.261800 0.508100
H36 H 0.794100 0.366800 0.542500
H37 H 0.940900 0.948200 -0.139300
H38 H 0.916700 0.895800 -0.360400
H39 H 0.715200 -0.221900 0.479500
H40 H 0.664300 -0.267500 0.504100
H41 H 0.707800 -0.451700 0.572500
H42 H 0.911700 0.585800 -0.343700
H43 H 0.835600 0.748200 -0.379600
H44 H 0.852500 0.985000 -0.281400
H45 H 0.354300 0.290900 0.085100
H46 H 0.815500 0.608400 -0.192800
H47 H 0.290800 0.194400 0.163900
H48 H 0.887000 0.177300 -0.002200
H49 H 0.261100 -0.188700 0.039600
H50 H 0.803700 0.173500 -0.091800
H51 H 0.303700 -0.326500 -0.091800
H52 H 0.761100 0.311300 0.039600
H53 H 0.387000 -0.322700 -0.002200
H54 H 0.790800 0.694400 0.163900
H55 H 0.854300 0.790900 0.085100
H56 H 0.315500 0.108400 -0.192800
H57 H 0.207800 0.048300 0.572500
H58 H 0.352500 0.485000 -0.281400
H59 H 0.335600 0.248200 -0.379600
H60 H 0.164300 0.232500 0.504100
H61 H 0.411700 0.085800 -0.343700
H62 H 0.416700 0.395800 -0.360400
H63 H 0.215200 0.278100 0.479500
H64 H 0.440900 0.448200 -0.139300
H65 H 0.475500 0.249900 -0.184900
H66 H 0.294100 0.866800 0.542500
H67 H 0.446900 -0.103800 -0.105500
H68 H 0.448700 0.114400 0.001100
H69 H 0.340600 0.761800 0.508100
H70 H 0.366000 0.413900 0.306400
H71 H 0.398300 0.156700 0.345100
H72 H 0.291400 0.611800 0.455200
H73 H -0.014200 1.212400 0.637500
H74 H 0.479800 0.952300 0.306400
H75 H 0.485100 0.713500 0.215900
H76 H 0.514200 0.712400 0.362500
H77 H 0.208600 0.111800 0.544800
H78 H 0.159400 0.261800 0.491900
H79 H 0.205900 0.366800 0.457500
H80 H 0.014900 1.213500 0.784100
H81 H 0.020200 1.452300 0.693600
H82 H 0.284800 -0.221900 0.520500
H83 H 0.335700 -0.267500 0.495900
H84 H 0.292200 -0.451700 0.427500
H85 H 0.101700 0.656700 0.654900
H86 H 0.792200 0.048300 0.427500
H87 H 0.134000 0.913900 0.693600
H88 H 0.145700 0.790900 0.914900
H89 H 0.051300 0.614400 0.998900
H90 H 0.209200 0.694400 0.836100
H91 H 0.053100 0.396200 1.105500
H92 H 0.238900 0.311300 0.960400
H93 H 0.024500 0.749900 1.184900
H94 H 0.196300 0.173500 1.091800
H95 H 0.059100 0.948200 1.139300
H96 H 0.113000 0.177300 1.002200
H97 H 0.083300 0.895800 1.360400
H98 H 0.088300 0.585800 1.343700
H99 H 0.184500 0.608400 1.192800
H100 H 0.164400 0.748200 1.379600
C101 C 0.639590 0.158100 0.844900
C102 C 0.142280 0.797500 1.297300
C103 C 0.091180 0.758700 1.305000
C104 C 0.152410 0.634000 1.192800
C105 C 0.119090 0.523100 1.100400
C106 C 0.057080 0.772800 1.176500
C107 C 0.129920 0.346600 0.999300
C108 C 0.181460 0.280500 1.021100
C109 C 0.067070 0.564200 1.087800
C110 C 0.206980 0.366200 0.945200
C111 C 0.186610 0.547600 0.836000
C112 C 0.113040 0.789500 0.722400
C113 C 0.139590 0.658100 0.844900
C114 C 0.193700 0.284000 0.523000
C115 C 0.055570 1.123300 0.664300
C116 C 0.015660 1.262300 0.697800
C117 C 0.301500 -0.273000 0.457300
C118 C 0.288900 -0.088000 0.347200
C119 C 0.484340 0.762300 0.302200
C120 C 0.444430 0.623300 0.335700
C121 C 0.386960 0.289500 0.277600
C122 C 0.432930 0.064200 -0.087800
C123 C 0.211100 0.412000 0.652800
C124 C 0.198500 0.227000 0.542700
C125 C 0.442920 0.272800 -0.176500
C126 C 0.408820 0.258700 -0.305000
C127 C 0.357720 0.297500 -0.297300
C128 C 0.306300 0.784000 0.477000
C129 C 0.295400 0.953000 0.360700
C130 C 0.860410 0.658100 0.155100
C131 C 0.347590 0.134000 -0.192800
C132 C 0.813390 0.547600 0.164000
C133 C 0.380910 0.023100 -0.100400
C134 C 0.793020 0.366200 0.054800
C135 C 0.370080 -0.153400 0.000700
C136 C 0.818540 0.280500 -0.021100
C137 C 0.318540 -0.219500 -0.021100
C138 C 0.870080 0.346600 0.000700
C139 C 0.293020 -0.133800 0.054800
C140 C 0.880910 0.523100 -0.100400
C141 C 0.847590 0.634000 -0.192800
C142 C 0.313390 0.047600 0.164000
C143 C 0.857720 0.797500 -0.297300
C144 C 0.360410 0.158100 0.155100
C145 C 0.795400 0.453000 0.360700
C146 C 0.908820 0.758700 -0.305000
C147 C 0.806300 0.284000 0.477000
C148 C 0.698500 -0.273000 0.542700
C149 C 0.942920 0.772800 -0.176500
C150 C 0.711100 -0.088000 0.652800
C151 C 0.515660 0.762300 0.697800
C152 C 0.932930 0.564200 -0.087800
C153 C 0.555570 0.623300 0.664300
C154 C 0.613040 0.289500 0.722400
C155 C 0.886960 0.789500 0.277600
C156 C 0.567070 0.064200 1.087800
C157 C 0.557080 0.272800 1.176500
C158 C 0.944430 1.123300 0.335700
C159 C 0.984340 1.262300 0.302200
C160 C 0.591180 0.258700 1.305000
C161 C 0.642280 0.297500 1.297300
C162 C 0.652410 0.134000 1.192800
C163 C 0.619090 0.023100 1.100400
C164 C 0.629920 -0.153400 0.999300
C165 C 0.681460 -0.219500 1.021100
C166 C 0.788900 0.412000 0.347200
C167 C 0.801500 0.227000 0.457300
C168 C 0.706980 -0.133800 0.945200
C169 C 0.686610 0.047600 0.836000
C170 C 0.204600 0.453000 0.639300
C171 C 0.693700 0.784000 0.523000
C172 C 0.704600 0.953000 0.639300
O173 O 0.753800 0.544000 0.314900
O174 O 0.822600 0.405000 0.284700
O175 O 0.929710 1.172200 0.426940
O176 O 0.926610 0.927800 0.252400
O177 O 0.889250 0.454800 0.126260
O178 O 0.682200 0.875000 0.725000
O179 O 0.730500 1.137000 0.654000
O180 O 0.246200 0.544000 0.685100
O181 O 0.177400 0.405000 0.715300
O182 O 0.070290 1.172200 0.573060
O183 O 0.073390 0.927800 0.747600
O184 O 0.110750 0.454800 0.873740
O185 O 0.317800 0.875000 0.275000
O186 O 0.269500 1.137000 0.346000
O187 O 0.253800 0.044000 0.314900
O188 O 0.322600 -0.095000 0.284700
O189 O 0.429710 0.672200 0.426940
O190 O 0.426610 0.427800 0.252400
O191 O 0.389250 -0.045200 0.126260
O192 O 0.182200 0.375000 0.725000
O193 O 0.230500 0.637000 0.654000
O194 O 0.746200 0.044000 0.685100
O195 O 0.677400 -0.095000 0.715300
O196 O 0.570290 0.672200 0.573060
O197 O 0.573390 0.427800 0.747600
O198 O 0.610750 -0.045200 0.873740
O199 O 0.817800 0.375000 0.275000
O200 O 0.769500 0.637000 0.346000

#END
