./ADABAI_from_POSCAR.cif_generated_by_CrystalShift
_symmetry_cell_setting triclinic
_symmetry_space_group_name_H-M 'P 1'
loop_
_symmetry_equiv_pos_site_id
_symmetry_equiv_pos_as_xyz
1 x,y,z
_cell_length_a 13.162900
_cell_length_b 7.800300
_cell_length_c 16.960500
_cell_angle_alpha 90.000000
_cell_angle_beta 90.000000
_cell_angle_gamma 90.000000
_cell_volume 1741.412025
loop_
_atom_site_label
_atom_site_type_symbol
_atom_site_fract_x
_atom_site_fract_y
_atom_site_fract_z
H1 H 0.605400 1.108400 0.145300
H2 H 0.672100 0.847300 0.314200
H3 H 0.594900 0.961700 0.357200
H4 H 0.605400 0.391600 0.645300
H5 H 0.768500 0.381200 0.696500
H6 H 0.907400 0.472100 0.621100
H7 H 0.871800 0.601900 0.495400
H8 H 0.757900 0.683300 0.394200
H9 H 0.394600 0.608400 0.354700
H10 H 0.257900 -0.183300 0.605800
H11 H 0.231500 0.618800 0.303500
H12 H 0.094900 -0.461700 0.642800
H13 H 0.172100 -0.347300 0.685800
H14 H 0.055200 -0.300800 0.691900
H15 H 0.092600 0.527900 0.378900
H16 H 0.128200 0.398100 0.504600
H17 H 0.371800 -0.101900 0.504600
H18 H 0.444800 0.199200 0.691900
H19 H 0.407400 0.027900 0.378900
H20 H 0.327900 0.152700 0.685800
H21 H 0.268500 0.118800 0.303500
H22 H 0.405100 0.038300 0.642800
H23 H 0.105400 0.108400 0.354700
H24 H 0.242100 0.316700 0.605800
H25 H 0.944800 0.199200 0.808100
H26 H 0.827900 0.152700 0.814200
H27 H -0.257900 0.183300 0.394200
H28 H 0.905100 0.038300 0.857200
H29 H 0.894600 0.608400 1.145300
H30 H 0.731500 0.618800 1.196500
H31 H 0.592600 0.527900 1.121100
H32 H 0.628200 0.398100 0.995400
H33 H 0.742100 0.316700 0.894200
H34 H 1.105400 0.391600 0.854700
H35 H 1.268500 0.381200 0.803500
H36 H 1.407400 0.472100 0.878900
H37 H 1.371800 0.601900 1.004600
H38 H -0.371800 0.101900 0.495400
H39 H -0.407400 -0.027900 0.621100
H40 H -0.268500 -0.118800 0.696500
H41 H -0.105400 -0.108400 0.645300
H42 H 1.055200 0.800800 1.191900
H43 H -0.094900 0.461700 0.357200
H44 H -0.172100 0.347300 0.314200
H45 H -0.055200 0.300800 0.308100
H46 H 1.172100 0.847300 1.185800
H47 H 1.094900 0.961700 1.142800
H48 H 1.257900 0.683300 1.105800
H49 H 0.944800 0.199200 -0.191900
H50 H 0.827900 0.152700 -0.185800
H51 H 0.905100 0.038300 -0.142800
H52 H 0.894600 0.608400 0.145300
H53 H 0.731500 0.618800 0.196500
H54 H 0.592600 0.527900 0.121100
H55 H 0.257900 0.816700 0.605800
H56 H 0.628200 0.398100 -0.004600
H57 H 0.094900 0.538300 0.642800
H58 H 0.172100 0.652700 0.685800
H59 H 0.055200 0.699200 0.691900
H60 H 0.742100 0.316700 -0.105800
H61 H 1.105400 0.391600 -0.145300
H62 H 0.371800 0.898100 0.504600
H63 H 1.268500 0.381200 -0.196500
H64 H 0.407400 1.027900 0.378900
H65 H 1.407400 0.472100 -0.121100
H66 H 0.268500 1.118800 0.303500
H67 H 1.371800 0.601900 0.004600
H68 H 0.105400 1.108400 0.354700
H69 H 1.055200 0.800800 0.191900
H70 H 1.172100 0.847300 0.185800
H71 H 1.094900 0.961700 0.142800
H72 H -0.257900 1.183300 0.394200
H73 H 1.257900 0.683300 0.105800
H74 H -0.055200 0.199200 0.808100
H75 H -0.172100 0.152700 0.814200
H76 H -0.094900 0.038300 0.857200
H77 H -0.105400 0.608400 1.145300
H78 H -0.268500 0.618800 1.196500
H79 H -0.407400 0.527900 1.121100
H80 H -0.371800 0.398100 0.995400
H81 H -0.257900 0.316700 0.894200
H82 H 0.105400 0.391600 0.854700
H83 H -0.371800 1.101900 0.495400
H84 H -0.407400 0.972100 0.621100
H85 H -0.268500 0.881200 0.696500
H86 H -0.105400 0.891600 0.645300
H87 H 0.268500 0.381200 0.803500
H88 H -0.094900 1.461700 0.357200
H89 H -0.172100 1.347300 0.314200
H90 H -0.055200 1.300800 0.308100
H91 H 0.407400 0.472100 0.878900
H92 H 0.371800 0.601900 1.004600
H93 H 0.055200 0.800800 1.191900
H94 H 0.172100 0.847300 1.185800
H95 H 0.094900 0.961700 1.142800
H96 H 0.257900 0.683300 1.105800
H97 H -0.055200 0.199200 -0.191900
H98 H -0.172100 0.152700 -0.185800
H99 H -0.094900 0.038300 -0.142800
H100 H 1.257900 -0.183300 0.605800
H101 H -0.105400 0.608400 0.145300
H102 H 1.094900 -0.461700 0.642800
H103 H 1.172100 -0.347300 0.685800
H104 H 1.055200 -0.300800 0.691900
H105 H -0.268500 0.618800 0.196500
H106 H -0.407400 0.527900 0.121100
H107 H 1.371800 -0.101900 0.504600
H108 H -0.371800 0.398100 -0.004600
H109 H 1.407400 0.027900 0.378900
H110 H -0.257900 0.316700 -0.105800
H111 H 1.268500 0.118800 0.303500
H112 H 0.105400 0.391600 -0.145300
H113 H 1.105400 0.108400 0.354700
H114 H 0.268500 0.381200 -0.196500
H115 H 0.407400 0.472100 -0.121100
H116 H 0.371800 0.601900 0.004600
H117 H 0.742100 0.183300 0.394200
H118 H 0.055200 0.800800 0.191900
H119 H 0.172100 0.847300 0.185800
H120 H 0.094900 0.961700 0.142800
H121 H 0.257900 0.683300 0.105800
H122 H 0.444800 1.300800 1.191900
H123 H 0.327900 1.347300 1.185800
H124 H 0.405100 1.461700 1.142800
H125 H 0.394600 0.891600 0.854700
H126 H 0.231500 0.881200 0.803500
H127 H 0.092600 0.972100 0.878900
H128 H 0.628200 0.101900 0.495400
H129 H 0.592600 -0.027900 0.621100
H130 H 0.731500 -0.118800 0.696500
H131 H 0.894600 -0.108400 0.645300
H132 H 0.128200 1.101900 1.004600
H133 H 0.905100 0.461700 0.357200
H134 H 0.827900 0.347300 0.314200
H135 H 0.944800 0.300800 0.308100
H136 H 0.242100 1.183300 1.105800
H137 H 0.605400 1.108400 1.145300
H138 H 0.768500 1.118800 1.196500
H139 H 0.907400 1.027900 1.121100
H140 H 0.871800 0.898100 0.995400
H141 H 0.555200 0.699200 0.808100
H142 H 0.672100 0.652700 0.814200
H143 H 0.594900 0.538300 0.857200
H144 H 0.757900 0.816700 0.894200
H145 H 1.257900 0.816700 0.605800
H146 H 0.444800 1.300800 0.191900
H147 H 1.094900 0.538300 0.642800
H148 H 1.172100 0.652700 0.685800
H149 H 1.055200 0.699200 0.691900
H150 H 0.327900 1.347300 0.185800
H151 H 0.405100 1.461700 0.142800
H152 H 1.371800 0.898100 0.504600
H153 H 0.394600 0.891600 -0.145300
H154 H 1.407400 1.027900 0.378900
H155 H 0.231500 0.881200 -0.196500
H156 H 1.268500 1.118800 0.303500
H157 H 0.092600 0.972100 -0.121100
H158 H 1.105400 1.108400 0.354700
H159 H 0.128200 1.101900 0.004600
H160 H 0.242100 1.183300 0.105800
H161 H 0.555200 0.800800 0.308100
H162 H 0.742100 1.183300 0.394200
H163 H 0.768500 1.118800 0.196500
H164 H 0.907400 1.027900 0.121100
H165 H 0.871800 0.898100 -0.004600
H166 H 0.555200 0.699200 -0.191900
H167 H 0.672100 0.652700 -0.185800
H168 H 0.594900 0.538300 -0.142800
H169 H 0.757900 0.816700 -0.105800
H170 H 0.444800 0.300800 1.191900
H171 H 0.327900 0.347300 1.185800
H172 H 0.405100 0.461700 1.142800
H173 H 0.628200 1.101900 0.495400
H174 H 0.592600 0.972100 0.621100
H175 H 0.731500 0.881200 0.696500
H176 H 0.894600 0.891600 0.645300
H177 H 0.394600 -0.108400 0.854700
H178 H 0.905100 1.461700 0.357200
H179 H 0.827900 1.347300 0.314200
H180 H 0.944800 1.300800 0.308100
H181 H 0.231500 -0.118800 0.803500
H182 H 0.092600 -0.027900 0.878900
H183 H 0.128200 0.101900 1.004600
H184 H 0.242100 0.183300 1.105800
H185 H 0.605400 0.108400 1.145300
H186 H 0.768500 0.118800 1.196500
H187 H 0.907400 0.027900 1.121100
H188 H 0.871800 -0.101900 0.995400
H189 H 0.555200 -0.300800 0.808100
H190 H 0.757900 -0.183300 -0.105800
H191 H 0.672100 -0.347300 0.814200
H192 H 0.594900 -0.461700 -0.142800
H193 H 0.672100 -0.347300 -0.185800
H194 H 0.555200 -0.300800 -0.191900
H195 H 0.594900 -0.461700 0.857200
H196 H 0.757900 -0.183300 0.894200
H197 H 0.871800 -0.101900 -0.004600
H198 H 0.444800 0.300800 0.191900
H199 H 0.907400 0.027900 0.121100
H200 H 0.327900 0.347300 0.185800
H201 H 0.768500 0.118800 0.196500
H202 H 0.405100 0.461700 0.142800
H203 H 0.605400 0.108400 0.145300
H204 H 0.394600 -0.108400 -0.145300
H205 H 0.231500 -0.118800 -0.196500
H206 H 0.092600 -0.027900 -0.121100
H207 H 0.242100 0.183300 0.105800
H208 H 0.128200 0.101900 0.004600
C209 C -0.318730 0.446600 0.027600
C210 C 0.609200 0.842100 0.338630
C211 C 0.161120 1.063900 0.384550
C212 C 1.318730 0.553400 -0.027600
C213 C 1.219040 0.569000 -0.002320
C214 C 0.338880 -0.063900 -0.115450
C215 C 0.241440 -0.077200 -0.144790
C216 C 0.161100 -0.020800 -0.099830
C217 C 0.181270 0.053400 -0.027600
C218 C 0.280960 0.069000 -0.002320
C219 C 0.298790 0.162200 0.069970
C220 C 0.258560 1.077200 0.355210
C221 C 0.818730 0.553400 0.527600
C222 C 0.390800 0.342100 0.161370
C223 C 0.661120 0.063900 0.115450
C224 C 0.758560 0.077200 0.144790
C225 C 0.838900 0.020800 0.099830
C226 C 0.838900 0.479200 0.599830
C227 C 0.758560 0.422800 0.644790
C228 C 0.661120 0.436100 0.615450
C229 C -0.201210 1.162200 0.430030
C230 C 1.109200 0.842100 0.161370
C231 C -0.219040 1.069000 0.502320
C232 C 1.201210 0.662200 0.069970
C233 C 1.258560 0.422800 -0.144790
C234 C 0.701210 -0.162200 0.930030
C235 C 0.818730 -0.053400 0.027600
C236 C 0.609200 -0.342100 0.838630
C237 C 0.719040 -0.069000 0.002320
C238 C 0.609200 -0.342100 -0.161370
C239 C 0.701210 -0.162200 -0.069970
C240 C 0.719040 -0.069000 1.002320
C241 C 0.818730 -0.053400 1.027600
C242 C 0.338900 1.020800 0.400170
C243 C 0.838900 0.020800 1.099830
C244 C 1.161120 0.436100 -0.115450
C245 C 0.758560 0.077200 1.144790
C246 C 0.318730 0.946600 0.472400
C247 C 0.661120 0.063900 1.115450
C248 C 0.719040 0.569000 0.502320
C249 C 0.798790 0.337800 -0.069970
C250 C -0.109200 0.157900 0.838630
C251 C 0.298790 0.162200 1.069970
C252 C 0.701210 0.662200 0.430030
C253 C 0.280960 0.069000 0.997680
C254 C 0.219040 0.931000 0.497680
C255 C 0.780960 0.431000 0.002320
C256 C -0.161120 0.936100 0.615450
C257 C 0.201210 -0.162200 0.569970
C258 C 0.338880 0.563900 0.384550
C259 C 0.338880 -0.063900 0.884550
C260 C 0.241440 -0.077200 0.855210
C261 C 0.161100 -0.020800 0.900170
C262 C 0.181270 0.053400 0.972400
C263 C 0.109200 -0.342100 0.661370
C264 C 0.241440 0.577200 0.355210
C265 C 0.219040 -0.069000 0.497680
C266 C 0.890800 1.342100 0.338630
C267 C 0.390800 0.342100 1.161370
C268 C 0.681270 1.053400 0.527600
C269 C 0.661100 0.979200 0.599830
C270 C 0.741440 0.922800 0.644790
C271 C 0.161100 0.520800 0.400170
C272 C 0.318730 -0.053400 0.472400
C273 C 0.181270 0.446600 0.472400
C274 C 0.280960 0.431000 0.497680
C275 C 0.338900 0.020800 0.400170
C276 C -0.258560 0.922800 0.644790
C277 C -0.318730 0.446600 1.027600
C278 C -0.338900 0.520800 1.099830
C279 C 0.701210 0.837800 -0.069970
C280 C 0.838880 0.936100 0.615450
C281 C 0.609200 0.657900 -0.161370
C282 C 0.258560 0.077200 0.355210
C283 C 0.161120 0.063900 0.384550
C284 C -0.258560 0.577200 1.144790
C285 C 0.719040 0.931000 0.002320
C286 C 0.818730 0.946600 0.027600
C287 C 0.390800 0.157900 0.661370
C288 C 0.838900 1.020800 0.099830
C289 C -0.161120 0.563900 1.115450
C290 C 0.758560 1.077200 0.144790
C291 C 0.780960 1.069000 0.502320
C292 C 0.661120 1.063900 0.115450
C293 C 0.798790 1.162200 0.430030
C294 C 0.298790 0.337800 0.569970
C295 C 0.838880 0.563900 0.115450
C296 C 0.298790 1.162200 0.069970
C297 C -0.219040 0.431000 1.002320
C298 C 0.280960 1.069000 -0.002320
C299 C -0.338900 0.979200 0.599830
C300 C -0.201210 0.337800 0.930030
C301 C 0.741440 0.577200 0.144790
C302 C -0.318730 1.053400 0.527600
C303 C 0.161120 0.436100 0.884550
C304 C 0.338880 0.936100 -0.115450
C305 C 0.241440 0.922800 -0.144790
C306 C 0.161100 0.979200 -0.099830
C307 C 0.181270 1.053400 -0.027600
C308 C -0.109200 1.342100 0.338630
C309 C 1.161120 1.063900 0.384550
C310 C 1.258560 1.077200 0.355210
C311 C 1.338900 1.020800 0.400170
C312 C 0.390800 1.342100 0.161370
C313 C 1.318730 0.946600 0.472400
C314 C 1.219040 0.931000 0.497680
C315 C 1.109200 0.657900 0.661370
C316 C -0.201210 0.162200 0.430030
C317 C -0.219040 0.069000 0.502320
C318 C 0.890800 0.157900 0.838630
C319 C 0.258560 0.422800 0.855210
C320 C 0.661100 0.520800 0.099830
C321 C 0.338900 0.479200 0.900170
C322 C 0.681270 0.446600 0.027600
C323 C 0.318730 0.553400 0.972400
C324 C 0.701210 0.837800 0.930030
C325 C 1.201210 0.837800 0.569970
C326 C 0.609200 0.657900 0.838630
C327 C 0.219040 0.569000 0.997680
C328 C 0.109200 0.657900 0.661370
C329 C 0.201210 0.837800 0.569970
C330 C 0.719040 0.931000 1.002320
C331 C 0.818730 0.946600 1.027600
C332 C 0.681270 0.446600 1.027600
C333 C 0.838900 1.020800 1.099830
C334 C 0.661100 0.520800 1.099830
C335 C 0.758560 1.077200 1.144790
C336 C 0.741440 0.577200 1.144790
C337 C 0.661120 1.063900 1.115450
C338 C 0.838880 0.563900 1.115450
C339 C 1.338900 0.479200 -0.099830
C340 C 0.109200 0.842100 1.161370
C341 C 0.298790 1.162200 1.069970
C342 C 0.201210 0.662200 1.069970
C343 C 0.280960 1.069000 0.997680
C344 C 0.890800 0.157900 -0.161370
C345 C 0.780960 0.431000 1.002320
C346 C 1.201210 -0.162200 0.569970
C347 C 0.798790 0.337800 0.930030
C348 C -0.109200 0.157900 -0.161370
C349 C 0.338880 0.936100 0.884550
C350 C 0.241440 0.922800 0.855210
C351 C 0.161100 0.979200 0.900170
C352 C 0.181270 1.053400 0.972400
C353 C 0.890800 0.342100 0.338630
C354 C 0.681270 0.053400 0.527600
C355 C 0.661100 -0.020800 0.599830
C356 C 0.741440 -0.077200 0.644790
C357 C 0.390800 1.342100 1.161370
C358 C 0.838880 -0.063900 0.615450
C359 C -0.161120 -0.063900 0.615450
C360 C 1.161120 0.436100 0.884550
C361 C -0.258560 -0.077200 0.644790
C362 C 1.258560 0.422800 0.855210
C363 C -0.338900 -0.020800 0.599830
C364 C 1.338900 0.479200 0.900170
C365 C -0.318730 0.053400 0.527600
C366 C 1.109200 -0.342100 0.661370
C367 C 1.219040 -0.069000 0.497680
C368 C 1.318730 -0.053400 0.472400
C369 C 0.201210 0.662200 0.069970
C370 C 1.338900 0.020800 0.400170
C371 C 0.109200 0.842100 0.161370
C372 C 1.318730 0.553400 0.972400
C373 C -0.338900 0.520800 0.099830
C374 C 0.780960 0.069000 0.502320
C375 C 0.219040 0.569000 -0.002320
C376 C 0.318730 0.553400 -0.027600
C377 C 0.798790 0.162200 0.430030
C378 C 0.338900 0.479200 -0.099830
C379 C -0.258560 0.577200 0.144790
C380 C 0.258560 0.422800 -0.144790
C381 C 1.219040 0.569000 0.997680
C382 C 0.161120 0.436100 -0.115450
C383 C 1.161120 0.063900 0.384550
C384 C -0.109200 0.342100 0.338630
C385 C -0.161120 0.563900 0.115450
C386 C -0.201210 0.337800 -0.069970
C387 C 1.258560 0.077200 0.355210
C388 C -0.219040 0.431000 0.002320
C389 C 1.201210 0.662200 1.069970
C390 C 1.109200 0.842100 1.161370
N391 N -0.086700 0.649300 -0.177030
N392 N -0.140160 0.494360 0.045370
N393 N 1.086700 0.350700 1.177030
N394 N -0.116390 0.269700 -0.092040
N395 N 0.883610 0.230300 0.407960
N396 N 0.859840 0.005640 0.545370
N397 N 0.359840 0.005640 -0.045370
N398 N 0.913300 -0.149300 0.322970
N399 N 0.086700 0.350700 0.177030
N400 N 0.140160 0.505640 -0.045370
N401 N 0.116390 0.730300 0.092040
N402 N 0.883610 0.269700 0.907960
N403 N 0.413300 0.850700 1.177030
N404 N 1.086700 0.149300 0.677030
N405 N 1.140160 -0.005640 0.454630
N406 N 1.140160 0.505640 0.954630
N407 N 1.116390 0.730300 1.092040
N408 N 0.116390 0.769700 0.592040
N409 N 0.359840 1.005640 0.954630
N410 N 0.140160 0.994360 0.454630
N411 N 0.116390 0.730300 1.092040
N412 N 0.140160 0.505640 0.954630
N413 N 0.086700 0.350700 1.177030
N414 N 0.859840 0.494360 1.045370
N415 N 1.116390 -0.230300 0.592040
N416 N 0.383610 1.230300 1.092040
N417 N 0.086700 1.149300 0.677030
N418 N 1.116390 0.769700 0.592040
N419 N 1.140160 0.994360 0.454630
N420 N 1.086700 1.149300 0.677030
N421 N 0.586700 1.149300 0.822970
N422 N 0.640160 0.994360 1.045370
N423 N 0.616390 0.769700 0.907960
N424 N -0.086700 -0.149300 0.322970
N425 N -0.140160 0.005640 0.545370
N426 N -0.116390 0.230300 0.407960
N427 N 0.383610 0.269700 0.592040
N428 N 0.359840 0.494360 0.454630
N429 N 0.413300 0.850700 0.177030
N430 N -0.116390 0.269700 0.907960
N431 N 0.413300 0.649300 0.677030
N432 N 0.359840 1.005640 -0.045370
N433 N 0.883610 1.230300 0.407960
N434 N -0.140160 0.494360 1.045370
N435 N 0.383610 1.230300 0.092040
N436 N -0.086700 0.649300 0.822970
N437 N 0.913300 0.649300 -0.177030
N438 N 0.859840 0.494360 0.045370
N439 N 0.859840 1.005640 0.545370
N440 N 0.913300 0.850700 0.322970
N441 N 0.586700 1.149300 -0.177030
N442 N 0.640160 0.994360 0.045370
N443 N 0.616390 0.769700 -0.092040
N444 N 0.413300 -0.149300 1.177030
N445 N 0.616390 0.730300 0.407960
N446 N 0.359840 0.005640 0.954630
N447 N 0.383610 0.230300 1.092040
N448 N -0.086700 0.850700 0.322970
N449 N 0.086700 0.149300 0.677030
N450 N -0.140160 1.005640 0.545370
N451 N 0.883610 0.269700 -0.092040
N452 N 0.616390 -0.230300 -0.092040
N453 N 0.640160 -0.005640 0.045370
N454 N 0.586700 0.149300 -0.177030
N455 N 0.586700 0.149300 0.822970
N456 N 1.116390 0.730300 0.092040
N457 N 1.140160 0.505640 -0.045370
N458 N 1.086700 0.350700 0.177030
N459 N 0.640160 -0.005640 1.045370
N460 N 0.616390 -0.230300 0.907960
N461 N 0.640160 0.505640 0.545370
N462 N 0.586700 0.350700 0.322970
N463 N -0.116390 1.230300 0.407960
N464 N 0.383610 0.230300 0.092040
N465 N 0.140160 -0.005640 0.454630
N466 N 0.116390 -0.230300 0.592040
N467 N 0.413300 -0.149300 0.177030
N468 N 0.913300 0.649300 0.822970
O469 O -0.029530 1.215670 0.446180
O470 O 1.140880 0.249900 0.214930
O471 O 1.049050 0.476800 0.209730
O472 O 1.073040 0.323200 0.105040
O473 O 1.029530 0.715670 0.053820
O474 O 0.970470 0.284330 -0.053820
O475 O 0.029530 -0.215670 0.553820
O476 O -0.073040 0.823200 0.394960
O477 O -0.049050 0.976800 0.290270
O478 O -0.140880 0.749900 0.285070
O479 O -0.140880 0.750100 0.785070
O480 O 0.926960 0.676800 -0.105040
O481 O -0.049050 0.523200 0.790270
O482 O 0.950950 0.523200 -0.209730
O483 O 0.859120 0.750100 -0.214930
O484 O -0.073040 0.676800 0.894960
O485 O -0.029530 0.284330 0.946180
O486 O 0.073040 0.176800 0.605040
O487 O 1.029530 -0.215670 0.553820
O488 O 1.073040 0.176800 0.605040
O489 O 1.049050 0.023200 0.709730
O490 O 1.140880 0.250100 0.714930
O491 O 0.140880 0.249900 1.214930
O492 O 0.049050 0.476800 1.209730
O493 O 0.073040 0.323200 1.105040
O494 O 0.140880 1.250100 0.714930
O495 O 0.049050 1.023200 0.709730
O496 O 0.426960 -0.176800 0.105040
O497 O 1.029530 0.715670 1.053820
O498 O 1.073040 0.323200 1.105040
O499 O 1.049050 0.476800 1.209730
O500 O 1.140880 0.249900 1.214930
O501 O 0.029530 0.715670 1.053820
O502 O 0.049050 0.023200 0.709730
O503 O -0.140880 0.750100 -0.214930
O504 O -0.049050 0.523200 -0.209730
O505 O 0.073040 1.176800 0.605040
O506 O -0.073040 0.676800 -0.105040
O507 O 0.029530 0.784330 0.553820
O508 O 0.140880 0.250100 0.714930
O509 O -0.029530 0.284330 -0.053820
O510 O 0.970470 0.215670 0.446180
O511 O 0.926960 -0.176800 0.394960
O512 O 0.140880 0.249900 0.214930
O513 O 0.049050 0.476800 0.209730
O514 O 0.073040 0.323200 0.105040
O515 O 0.029530 0.715670 0.053820
O516 O 0.450950 -0.023200 0.209730
O517 O 0.950950 -0.023200 0.290270
O518 O 0.859120 -0.250100 0.285070
O519 O 0.970470 0.284330 0.946180
O520 O 0.359120 0.749900 1.214930
O521 O 0.450950 0.976800 1.209730
O522 O -0.140880 -0.250100 0.285070
O523 O 0.426960 0.823200 1.105040
O524 O 0.359120 -0.250100 0.214930
O525 O 0.926960 0.676800 0.894960
O526 O 0.470470 1.215670 1.053820
O527 O 0.950950 0.523200 0.790270
O528 O 0.859120 0.750100 0.785070
O529 O 1.029530 0.784330 0.553820
O530 O 1.073040 1.176800 0.605040
O531 O 1.049050 1.023200 0.709730
O532 O 1.140880 1.250100 0.714930
O533 O -0.049050 -0.023200 0.290270
O534 O 0.640880 1.250100 0.785070
O535 O -0.073040 -0.176800 0.394960
O536 O 0.549050 1.023200 0.790270
O537 O 0.573040 1.176800 0.894960
O538 O 0.529530 0.784330 0.946180
O539 O 0.470470 0.215670 0.053820
O540 O 0.970470 1.215670 0.446180
O541 O 0.529530 -0.215670 0.946180
O542 O 0.470470 0.284330 0.553820
O543 O 0.426960 0.676800 0.605040
O544 O 0.450950 0.523200 0.709730
O545 O 0.359120 0.750100 0.714930
O546 O 0.359120 0.749900 0.214930
O547 O 0.450950 0.976800 0.209730
O548 O 0.426960 0.823200 0.105040
O549 O 0.470470 1.215670 0.053820
O550 O -0.029530 0.215670 0.446180
O551 O 0.926960 0.823200 0.394960
O552 O 0.950950 0.976800 0.290270
O553 O 0.859120 0.749900 0.285070
O554 O 0.640880 1.250100 -0.214930
O555 O 0.549050 1.023200 -0.209730
O556 O 0.573040 1.176800 -0.105040
O557 O 0.529530 0.784330 -0.053820
O558 O 0.573040 0.176800 0.894960
O559 O 0.640880 0.249900 0.285070
O560 O 0.529530 -0.215670 -0.053820
O561 O 0.573040 0.176800 -0.105040
O562 O 0.359120 -0.250100 1.214930
O563 O 0.450950 -0.023200 1.209730
O564 O 0.529530 0.715670 0.446180
O565 O 0.426960 -0.176800 1.105040
O566 O 0.549050 0.023200 -0.209730
O567 O 0.470470 0.215670 1.053820
O568 O 0.640880 0.250100 -0.214930
O569 O 0.640880 0.250100 0.785070
O570 O 0.573040 0.323200 0.394960
O571 O 0.549050 0.023200 0.790270
O572 O 0.549050 0.476800 0.290270
Cu573 Cu 0.500000 0.000000 0.000000
Cu574 Cu 0.500000 1.000000 0.000000
Cu575 Cu 0.500000 0.500000 0.500000
Cu576 Cu 0.500000 0.000000 1.000000
Cu577 Cu 0.500000 1.000000 1.000000
Cu578 Cu 1.000000 1.000000 0.500000
Cu579 Cu 0.000000 0.500000 0.000000
Cu580 Cu 0.000000 1.000000 0.500000
Cu581 Cu 0.000000 0.500000 1.000000
Cu582 Cu 1.000000 0.500000 1.000000
Cu583 Cu 1.000000 0.000000 0.500000
Cu584 Cu 1.000000 0.500000 0.000000
Cu585 Cu 0.000000 0.000000 0.500000

#END
