
#######################################################################
#
#                 Cambridge Crystallographic Data Centre
#                                CCDC 
#
#######################################################################
#
# If this CIF has been generated from an entry in the Cambridge 
# Structural Database, then it will include bibliographic, chemical, 
# crystal, experimental, refinement or atomic coordinate data resulting 
# from the CCDC's data processing and validation procedures.
#
#######################################################################

data_ADISIQ
_symmetry_cell_setting           orthorhombic
_symmetry_space_group_name_H-M   'P 21 21 21'
_symmetry_Int_Tables_number      19
_space_group_name_Hall           'P 2ac 2ab'
loop_
_symmetry_equiv_pos_site_id
_symmetry_equiv_pos_as_xyz
1 x,y,z
2 1/2-x,-y,1/2+z
3 -x,1/2+y,1/2-z
4 1/2+x,1/2-y,-z
_cell_length_a                   5.8041(13)
_cell_length_b                   8.9094(19)
_cell_length_c                   28.773(6)
_cell_angle_alpha                90
_cell_angle_beta                 90
_cell_angle_gamma                90
_cell_volume                     1487.88
loop_
_atom_site_label
_atom_site_type_symbol
_atom_site_fract_x
_atom_site_fract_y
_atom_site_fract_z
O1 O 0.3996(2) 0.70825(15) 0.12162(5)
O2 O 0.1748(2) 0.52682(15) 0.15663(4)
C1 C 0.2359(3) 0.8177(2) 0.11450(7)
C2 C 0.2706(4) 0.9542(2) 0.13641(8)
H1 H 0.3985 0.9690 0.1553
C3 C 0.1136(5) 1.0671(2) 0.12979(8)
H2 H 0.1354 1.1594 0.1442
C4 C -0.0744(5) 1.0450(2) 0.10217(9)
H3 H -0.1807 1.1220 0.0982
C5 C -0.1078(4) 0.9099(2) 0.08021(8)
H4 H -0.2372 0.8959 0.0617
C6 C 0.0503(3) 0.7938(2) 0.08547(6)
C7 C 0.0358(3) 0.65019(19) 0.06087(6)
C8 C -0.1058(4) 0.6261(2) 0.02249(7)
H5 H -0.1995 0.7034 0.0118
C9 C -0.1091(4) 0.4895(2) 0.00022(7)
H6 H -0.2058 0.4746 -0.0251
C10 C 0.0302(4) 0.3753(3) 0.01542(8)
H7 H 0.0289 0.2830 0.0003
C11 C 0.1722(4) 0.3976(2) 0.05314(7)
H8 H 0.2654 0.3196 0.0636
C12 C 0.1778(3) 0.53404(19) 0.07564(6)
C13 C 0.3239(3) 0.5554(2) 0.11805(7)
C14 C 0.5414(3) 0.4656(2) 0.11916(7)
H9 H 0.6402 0.4698 0.0938
C15 C 0.5977(3) 0.3811(2) 0.15465(7)
H10 H 0.7358 0.3282 0.1539
C16 C 0.4514(3) 0.3682(2) 0.19476(7)
C17 C 0.5032(4) 0.2804(3) 0.23332(8)
H11 H 0.6398 0.2259 0.2340
C18 C 0.3552(5) 0.2735(3) 0.27009(9)
H12 H 0.3915 0.2142 0.2957
C19 C 0.1531(5) 0.3536(3) 0.26958(8)
H13 H 0.0541 0.3490 0.2949
C20 C 0.0959(4) 0.4410(2) 0.23171(7)
H14 H -0.0411 0.4952 0.2313
C21 C 0.2451(3) 0.44666(19) 0.19461(6)
O1 O 0.1004(2) 0.29175(15) 0.62162(5)
O2 O 0.3252(2) 0.47318(15) 0.65663(4)
C1 C 0.2641(3) 0.1823(2) 0.61450(7)
C2 C 0.2294(4) 0.0458(2) 0.63641(8)
H1 H 0.1015 0.0310 0.6553
C3 C 0.3864(5) -0.0671(2) 0.62979(8)
H2 H 0.3646 -0.1594 0.6442
C4 C 0.5744(5) -0.0450(2) 0.60217(9)
H3 H 0.6807 -0.1220 0.5982
C5 C 0.6078(4) 0.0901(2) 0.58021(8)
H4 H 0.7372 0.1041 0.5617
C6 C 0.4497(3) 0.2062(2) 0.58547(6)
C7 C 0.4642(3) 0.34981(19) 0.56087(6)
C8 C 0.6058(4) 0.3739(2) 0.52249(7)
H5 H 0.6995 0.2966 0.5118
C9 C 0.6091(4) 0.5105(2) 0.50022(7)
H6 H 0.7058 0.5254 0.4749
C10 C 0.4698(4) 0.6247(3) 0.51542(8)
H7 H 0.4711 0.7170 0.5003
C11 C 0.3278(4) 0.6024(2) 0.55314(7)
H8 H 0.2346 0.6804 0.5636
C12 C 0.3222(3) 0.46596(19) 0.57564(6)
C13 C 0.1761(3) 0.4446(2) 0.61805(7)
C14 C -0.0414(3) 0.5344(2) 0.61916(7)
H9 H -0.1402 0.5302 0.5938
C15 C -0.0977(3) 0.6189(2) 0.65465(7)
H10 H -0.2358 0.6718 0.6539
C16 C 0.0486(3) 0.6318(2) 0.69476(7)
C17 C -0.0032(4) 0.7196(3) 0.73332(8)
H11 H -0.1398 0.7741 0.7340
C18 C 0.1448(5) 0.7265(3) 0.77009(9)
H12 H 0.1085 0.7858 0.7957
C19 C 0.3469(5) 0.6464(3) 0.76958(8)
H13 H 0.4459 0.6510 0.7949
C20 C 0.4041(4) 0.5590(2) 0.73171(7)
H14 H 0.5411 0.5048 0.7313
C21 C 0.2549(3) 0.55334(19) 0.69461(6)
O1 O 0.6004(2) 0.20825(15) 0.37838(5)
O2 O 0.8252(2) 0.02682(15) 0.34337(4)
C1 C 0.7641(3) 0.3177(2) 0.38550(7)
C2 C 0.7294(4) 0.4542(2) 0.36359(8)
H1 H 0.6015 0.4690 0.3447
C3 C 0.8864(5) 0.5671(2) 0.37021(8)
H2 H 0.8646 0.6594 0.3558
C4 C 1.0744(5) 0.5450(2) 0.39783(9)
H3 H 1.1807 0.6220 0.4018
C5 C 1.1078(4) 0.4099(2) 0.41979(8)
H4 H 1.2372 0.3959 0.4383
C6 C 0.9497(3) 0.2938(2) 0.41453(6)
C7 C 0.9642(3) 0.15019(19) 0.43913(6)
C8 C 1.1058(4) 0.1261(2) 0.47751(7)
H5 H 1.1995 0.2034 0.4882
C9 C 1.1091(4) -0.0105(2) 0.49978(7)
H6 H 1.2058 -0.0254 0.5251
C10 C 0.9698(4) -0.1247(3) 0.48458(8)
H7 H 0.9711 -0.2170 0.4997
C11 C 0.8278(4) -0.1024(2) 0.44686(7)
H8 H 0.7346 -0.1804 0.4364
C12 C 0.8222(3) 0.03404(19) 0.42436(6)
C13 C 0.6761(3) 0.0554(2) 0.38195(7)
C14 C 0.4586(3) -0.0344(2) 0.38084(7)
H9 H 0.3598 -0.0302 0.4062
C15 C 0.4023(3) -0.1189(2) 0.34535(7)
H10 H 0.2642 -0.1718 0.3461
C16 C 0.5486(3) -0.1318(2) 0.30524(7)
C17 C 0.4968(4) -0.2196(3) 0.26668(8)
H11 H 0.3602 -0.2741 0.2660
C18 C 0.6448(5) -0.2265(3) 0.22991(9)
H12 H 0.6085 -0.2858 0.2043
C19 C 0.8469(5) -0.1464(3) 0.23042(8)
H13 H 0.9459 -0.1510 0.2051
C20 C 0.9041(4) -0.0590(2) 0.26829(7)
H14 H 1.0411 -0.0048 0.2687
C21 C 0.7549(3) -0.05334(19) 0.30539(6)
O1 O 0.8996(2) 0.79175(15) 0.87838(5)
O2 O 0.6748(2) 0.97318(15) 0.84337(4)
C1 C 0.7359(3) 0.6823(2) 0.88550(7)
C2 C 0.7706(4) 0.5458(2) 0.86359(8)
H1 H 0.8985 0.5310 0.8447
C3 C 0.6136(5) 0.4329(2) 0.87021(8)
H2 H 0.6354 0.3406 0.8558
C4 C 0.4256(5) 0.4550(2) 0.89783(9)
H3 H 0.3193 0.3780 0.9018
C5 C 0.3922(4) 0.5901(2) 0.91979(8)
H4 H 0.2628 0.6041 0.9383
C6 C 0.5503(3) 0.7062(2) 0.91453(6)
C7 C 0.5358(3) 0.84981(19) 0.93913(6)
C8 C 0.3942(4) 0.8739(2) 0.97751(7)
H5 H 0.3005 0.7966 0.9882
C9 C 0.3909(4) 1.0105(2) 0.99978(7)
H6 H 0.2942 1.0254 1.0251
C10 C 0.5302(4) 1.1247(3) 0.98458(8)
H7 H 0.5289 1.2170 0.9997
C11 C 0.6722(4) 1.1024(2) 0.94686(7)
H8 H 0.7654 1.1804 0.9364
C12 C 0.6778(3) 0.96596(19) 0.92436(6)
C13 C 0.8239(3) 0.9446(2) 0.88195(7)
C14 C 1.0414(3) 1.0344(2) 0.88084(7)
H9 H 1.1402 1.0302 0.9062
C15 C 1.0977(3) 1.1189(2) 0.84535(7)
H10 H 1.2358 1.1718 0.8461
C16 C 0.9514(3) 1.1318(2) 0.80524(7)
C17 C 1.0032(4) 1.2196(3) 0.76668(8)
H11 H 1.1398 1.2741 0.7660
C18 C 0.8552(5) 1.2265(3) 0.72991(9)
H12 H 0.8915 1.2858 0.7043
C19 C 0.6531(5) 1.1464(3) 0.73042(8)
H13 H 0.5541 1.1510 0.7051
C20 C 0.5959(4) 1.0590(2) 0.76829(7)
H14 H 0.4589 1.0048 0.7687
C21 C 0.7451(3) 1.05334(19) 0.80539(6)

#END
