
#######################################################################
#
#                 Cambridge Crystallographic Data Centre
#                                CCDC 
#
#######################################################################
#
# If this CIF has been generated from an entry in the Cambridge 
# Structural Database, then it will include bibliographic, chemical, 
# crystal, experimental, refinement or atomic coordinate data resulting 
# from the CCDC's data processing and validation procedures.
#
#######################################################################

data_KAGYEZ
_symmetry_cell_setting           orthorhombic
_symmetry_space_group_name_H-M   'P b c a'
_symmetry_Int_Tables_number      61
_space_group_name_Hall           '-P 2ac 2ab'
loop_
_symmetry_equiv_pos_site_id
_symmetry_equiv_pos_as_xyz
1 x,y,z
2 1/2-x,-y,1/2+z
3 -x,1/2+y,1/2-z
4 1/2+x,1/2-y,-z
5 -x,-y,-z
6 1/2+x,y,1/2-z
7 x,1/2-y,1/2+z
8 1/2-x,1/2+y,z
_cell_length_a                   10.231(5)
_cell_length_b                   7.584(3)
_cell_length_c                   41.816(18)
_cell_angle_alpha                90
_cell_angle_beta                 90
_cell_angle_gamma                90
_cell_volume                     3244.58
loop_
_atom_site_label
_atom_site_type_symbol
_atom_site_fract_x
_atom_site_fract_y
_atom_site_fract_z
O1 O 0.27939(9) 0.14918(13) 0.83349(2)
N1 N 0.37727(11) 0.02042(14) 0.83755(2)
C1 C 0.50012(12) -0.04774(16) 0.69394(3)
H1 H 0.5770 -0.1114 0.6993
C2 C 0.44406(12) -0.04211(15) 0.75192(3)
H2 H 0.5154 -0.1202 0.7552
C3 C 0.41218(11) 0.00325(15) 0.71837(3)
C4 C 0.47534(13) -0.00548(17) 0.66187(3)
H3 H 0.5352 -0.0408 0.6457
C5 C 0.27317(13) 0.13917(17) 0.67760(3)
H4 H 0.1963 0.2023 0.6720
C6 C 0.29760(12) 0.09644(16) 0.70966(3)
H5 H 0.2368 0.1303 0.7257
C7 C 0.36242(14) 0.08882(17) 0.65358(3)
H6 H 0.3461 0.1186 0.6319
C8 C 0.38138(12) 0.01692(16) 0.77854(3)
H7 H 0.3088 0.0942 0.7763
C9 C 0.42381(13) -0.03653(16) 0.81057(3)
H8 H 0.4921 -0.1212 0.8117
H9 H 0.248(2) 0.163(2) 0.8539(4)
O1 O 0.22061(9) 0.85082(13) 0.33349(2)
N1 N 0.12273(11) 0.97958(14) 0.33755(2)
C1 C -0.00012(12) 1.04774(16) 0.19394(3)
H1 H -0.0770 1.1114 0.1993
C2 C 0.05594(12) 1.04211(15) 0.25192(3)
H2 H -0.0154 1.1202 0.2552
C3 C 0.08782(11) 0.99675(15) 0.21837(3)
C4 C 0.02466(13) 1.00548(17) 0.16187(3)
H3 H -0.0352 1.0408 0.1457
C5 C 0.22683(13) 0.86083(17) 0.17760(3)
H4 H 0.3037 0.7977 0.1720
C6 C 0.20240(12) 0.90356(16) 0.20966(3)
H5 H 0.2632 0.8697 0.2257
C7 C 0.13758(14) 0.91118(17) 0.15358(3)
H6 H 0.1539 0.8814 0.1319
C8 C 0.11862(12) 0.98308(16) 0.27854(3)
H7 H 0.1912 0.9058 0.2763
C9 C 0.07619(13) 1.03653(16) 0.31057(3)
H8 H 0.0079 1.1212 0.3117
H9 H 0.252(2) 0.837(2) 0.3539(4)
O1 O 0.72061(9) 0.64918(13) 0.66651(2)
N1 N 0.62273(11) 0.52042(14) 0.66245(2)
C1 C 0.49988(12) 0.45226(16) 0.80606(3)
H1 H 0.4230 0.3886 0.8007
C2 C 0.55594(12) 0.45789(15) 0.74808(3)
H2 H 0.4846 0.3798 0.7448
C3 C 0.58782(11) 0.50325(15) 0.78163(3)
C4 C 0.52466(13) 0.49452(17) 0.83813(3)
H3 H 0.4648 0.4592 0.8543
C5 C 0.72683(13) 0.63917(17) 0.82240(3)
H4 H 0.8037 0.7023 0.8280
C6 C 0.70240(12) 0.59644(16) 0.79034(3)
H5 H 0.7632 0.6303 0.7743
C7 C 0.63758(14) 0.58882(17) 0.84642(3)
H6 H 0.6539 0.6186 0.8681
C8 C 0.61862(12) 0.51692(16) 0.72146(3)
H7 H 0.6912 0.5942 0.7237
C9 C 0.57619(13) 0.46347(16) 0.68943(3)
H8 H 0.5079 0.3788 0.6883
H9 H 0.752(2) 0.663(2) 0.6461(4)
O1 O 0.77939(9) 0.35082(13) 0.16651(2)
N1 N 0.87727(11) 0.47958(14) 0.16245(2)
C1 C 1.00012(12) 0.54774(16) 0.30606(3)
H1 H 1.0770 0.6114 0.3007
C2 C 0.94406(12) 0.54211(15) 0.24808(3)
H2 H 1.0154 0.6202 0.2448
C3 C 0.91218(11) 0.49675(15) 0.28163(3)
C4 C 0.97534(13) 0.50548(17) 0.33813(3)
H3 H 1.0352 0.5408 0.3543
C5 C 0.77317(13) 0.36083(17) 0.32240(3)
H4 H 0.6963 0.2977 0.3280
C6 C 0.79760(12) 0.40356(16) 0.29034(3)
H5 H 0.7368 0.3697 0.2743
C7 C 0.86242(14) 0.41118(17) 0.34642(3)
H6 H 0.8461 0.3814 0.3681
C8 C 0.88138(12) 0.48308(16) 0.22146(3)
H7 H 0.8088 0.4058 0.2237
C9 C 0.92381(13) 0.53653(16) 0.18943(3)
H8 H 0.9921 0.6212 0.1883
H9 H 0.748(2) 0.337(2) 0.1461(4)
O1 O 0.72061(9) 0.85082(13) 0.16651(2)
N1 N 0.62273(11) 0.97958(14) 0.16245(2)
C1 C 0.49988(12) 1.04774(16) 0.30606(3)
H1 H 0.4230 1.1114 0.3007
C2 C 0.55594(12) 1.04211(15) 0.24808(3)
H2 H 0.4846 1.1202 0.2448
C3 C 0.58782(11) 0.99675(15) 0.28163(3)
C4 C 0.52466(13) 1.00548(17) 0.33813(3)
H3 H 0.4648 1.0408 0.3543
C5 C 0.72683(13) 0.86083(17) 0.32240(3)
H4 H 0.8037 0.7977 0.3280
C6 C 0.70240(12) 0.90356(16) 0.29034(3)
H5 H 0.7632 0.8697 0.2743
C7 C 0.63758(14) 0.91118(17) 0.34642(3)
H6 H 0.6539 0.8814 0.3681
C8 C 0.61862(12) 0.98308(16) 0.22146(3)
H7 H 0.6912 0.9058 0.2237
C9 C 0.57619(13) 1.03653(16) 0.18943(3)
H8 H 0.5079 1.1212 0.1883
H9 H 0.752(2) 0.837(2) 0.1461(4)
O1 O 0.77939(9) 0.14918(13) 0.66651(2)
N1 N 0.87727(11) 0.02042(14) 0.66245(2)
C1 C 1.00012(12) -0.04774(16) 0.80606(3)
H1 H 1.0770 -0.1114 0.8007
C2 C 0.94406(12) -0.04211(15) 0.74808(3)
H2 H 1.0154 -0.1202 0.7448
C3 C 0.91218(11) 0.00325(15) 0.78163(3)
C4 C 0.97534(13) -0.00548(17) 0.83813(3)
H3 H 1.0352 -0.0408 0.8543
C5 C 0.77317(13) 0.13917(17) 0.82240(3)
H4 H 0.6963 0.2023 0.8280
C6 C 0.79760(12) 0.09644(16) 0.79034(3)
H5 H 0.7368 0.1303 0.7743
C7 C 0.86242(14) 0.08882(17) 0.84642(3)
H6 H 0.8461 0.1186 0.8681
C8 C 0.88138(12) 0.01692(16) 0.72146(3)
H7 H 0.8088 0.0942 0.7237
C9 C 0.92381(13) -0.03653(16) 0.68943(3)
H8 H 0.9921 -0.1212 0.6883
H9 H 0.748(2) 0.163(2) 0.6461(4)
O1 O 0.27939(9) 0.35082(13) 0.33349(2)
N1 N 0.37727(11) 0.47958(14) 0.33755(2)
C1 C 0.50012(12) 0.54774(16) 0.19394(3)
H1 H 0.5770 0.6114 0.1993
C2 C 0.44406(12) 0.54211(15) 0.25192(3)
H2 H 0.5154 0.6202 0.2552
C3 C 0.41218(11) 0.49675(15) 0.21837(3)
C4 C 0.47534(13) 0.50548(17) 0.16187(3)
H3 H 0.5352 0.5408 0.1457
C5 C 0.27317(13) 0.36083(17) 0.17760(3)
H4 H 0.1963 0.2977 0.1720
C6 C 0.29760(12) 0.40356(16) 0.20966(3)
H5 H 0.2368 0.3697 0.2257
C7 C 0.36242(14) 0.41118(17) 0.15358(3)
H6 H 0.3461 0.3814 0.1319
C8 C 0.38138(12) 0.48308(16) 0.27854(3)
H7 H 0.3088 0.4058 0.2763
C9 C 0.42381(13) 0.53653(16) 0.31057(3)
H8 H 0.4921 0.6212 0.3117
H9 H 0.248(2) 0.337(2) 0.3539(4)
O1 O 0.22061(9) 0.64918(13) 0.83349(2)
N1 N 0.12273(11) 0.52042(14) 0.83755(2)
C1 C -0.00012(12) 0.45226(16) 0.69394(3)
H1 H -0.0770 0.3886 0.6993
C2 C 0.05594(12) 0.45789(15) 0.75192(3)
H2 H -0.0154 0.3798 0.7552
C3 C 0.08782(11) 0.50325(15) 0.71837(3)
C4 C 0.02466(13) 0.49452(17) 0.66187(3)
H3 H -0.0352 0.4592 0.6457
C5 C 0.22683(13) 0.63917(17) 0.67760(3)
H4 H 0.3037 0.7023 0.6720
C6 C 0.20240(12) 0.59644(16) 0.70966(3)
H5 H 0.2632 0.6303 0.7257
C7 C 0.13758(14) 0.58882(17) 0.65358(3)
H6 H 0.1539 0.6186 0.6319
C8 C 0.11862(12) 0.51692(16) 0.77854(3)
H7 H 0.1912 0.5942 0.7763
C9 C 0.07619(13) 0.46347(16) 0.81057(3)
H8 H 0.0079 0.3788 0.8117
H9 H 0.252(2) 0.663(2) 0.8539(4)
O2 O 0.57897(9) 0.36622(12) 0.60376(2)
N2 N 0.65418(10) 0.21056(14) 0.60658(2)
C10 C 0.66426(11) 0.12592(16) 0.57973(3)
H10 H 0.7096 0.0167 0.5804
C11 C 0.65649(11) 0.10018(15) 0.52143(3)
H11 H 0.7135 0.0024 0.5242
C12 C 0.62383(11) 0.14952(15) 0.48805(3)
C13 C 0.52038(11) 0.26618(15) 0.48030(3)
H12 H 0.4665 0.3124 0.4968
C14 C 0.49730(12) 0.31367(16) 0.44838(3)
H13 H 0.4278 0.3920 0.4434
C15 C 0.70079(12) 0.08011(17) 0.46297(3)
H14 H 0.7689 -0.0008 0.4678
C16 C 0.61346(11) 0.18013(15) 0.54843(3)
H15 H 0.5502 0.2716 0.5471
C17 C 0.57625(13) 0.24623(18) 0.42372(3)
H16 H 0.5607 0.2799 0.4022
C18 C 0.67797(14) 0.12902(18) 0.43106(3)
H17 H 0.7314 0.0828 0.4145
H18 H 0.588(2) 0.415(3) 0.6235(5)
O2 O 0.92103(9) 0.63378(12) 0.10376(2)
N2 N 0.84582(10) 0.78944(14) 0.10658(2)
C10 C 0.83574(11) 0.87408(16) 0.07973(3)
H10 H 0.7904 0.9833 0.0804
C11 C 0.84351(11) 0.89982(15) 0.02143(3)
H11 H 0.7865 0.9976 0.0242
C12 C 0.87617(11) 0.85048(15) -0.01195(3)
C13 C 0.97962(11) 0.73382(15) -0.01970(3)
H12 H 1.0335 0.6876 -0.0032
C14 C 1.00270(12) 0.68633(16) -0.05162(3)
H13 H 1.0722 0.6080 -0.0566
C15 C 0.79921(12) 0.91989(17) -0.03703(3)
H14 H 0.7311 1.0008 -0.0322
C16 C 0.88654(11) 0.81987(15) 0.04843(3)
H15 H 0.9498 0.7284 0.0471
C17 C 0.92375(13) 0.75377(18) -0.07628(3)
H16 H 0.9393 0.7201 -0.0978
C18 C 0.82203(14) 0.87098(18) -0.06894(3)
H17 H 0.7686 0.9172 -0.0855
H18 H 0.912(2) 0.585(3) 0.1235(5)
O2 O 0.42103(9) 0.86622(12) 0.89624(2)
N2 N 0.34582(10) 0.71056(14) 0.89342(2)
C10 C 0.33574(11) 0.62592(16) 0.92027(3)
H10 H 0.2904 0.5167 0.9196
C11 C 0.34351(11) 0.60018(15) 0.97857(3)
H11 H 0.2865 0.5024 0.9758
C12 C 0.37617(11) 0.64952(15) 1.01195(3)
C13 C 0.47962(11) 0.76618(15) 1.01970(3)
H12 H 0.5335 0.8124 1.0032
C14 C 0.50270(12) 0.81367(16) 1.05162(3)
H13 H 0.5722 0.8920 1.0566
C15 C 0.29921(12) 0.58011(17) 1.03703(3)
H14 H 0.2311 0.4992 1.0322
C16 C 0.38654(11) 0.68013(15) 0.95157(3)
H15 H 0.4498 0.7716 0.9529
C17 C 0.42375(13) 0.74623(18) 1.07628(3)
H16 H 0.4393 0.7799 1.0978
C18 C 0.32203(14) 0.62902(18) 1.06894(3)
H17 H 0.2686 0.5828 1.0855
H18 H 0.412(2) 0.915(3) 0.8765(5)
O2 O 0.07897(9) 0.13378(12) 0.39624(2)
N2 N 0.15418(10) 0.28944(14) 0.39342(2)
C10 C 0.16426(11) 0.37408(16) 0.42027(3)
H10 H 0.2096 0.4833 0.4196
C11 C 0.15649(11) 0.39982(15) 0.47857(3)
H11 H 0.2135 0.4976 0.4758
C12 C 0.12383(11) 0.35048(15) 0.51195(3)
C13 C 0.02038(11) 0.23382(15) 0.51970(3)
H12 H -0.0335 0.1876 0.5032
C14 C -0.00270(12) 0.18633(16) 0.55162(3)
H13 H -0.0722 0.1080 0.5566
C15 C 0.20079(12) 0.41989(17) 0.53703(3)
H14 H 0.2689 0.5008 0.5322
C16 C 0.11346(11) 0.31987(15) 0.45157(3)
H15 H 0.0502 0.2284 0.4529
C17 C 0.07625(13) 0.25377(18) 0.57628(3)
H16 H 0.0607 0.2201 0.5978
C18 C 0.17797(14) 0.37098(18) 0.56894(3)
H17 H 0.2314 0.4172 0.5855
H18 H 0.088(2) 0.085(3) 0.3765(5)
O2 O 0.42103(9) 0.63378(12) 0.39624(2)
N2 N 0.34582(10) 0.78944(14) 0.39342(2)
C10 C 0.33574(11) 0.87408(16) 0.42027(3)
H10 H 0.2904 0.9833 0.4196
C11 C 0.34351(11) 0.89982(15) 0.47857(3)
H11 H 0.2865 0.9976 0.4758
C12 C 0.37617(11) 0.85048(15) 0.51195(3)
C13 C 0.47962(11) 0.73382(15) 0.51970(3)
H12 H 0.5335 0.6876 0.5032
C14 C 0.50270(12) 0.68633(16) 0.55162(3)
H13 H 0.5722 0.6080 0.5566
C15 C 0.29921(12) 0.91989(17) 0.53703(3)
H14 H 0.2311 1.0008 0.5322
C16 C 0.38654(11) 0.81987(15) 0.45157(3)
H15 H 0.4498 0.7284 0.4529
C17 C 0.42375(13) 0.75377(18) 0.57628(3)
H16 H 0.4393 0.7201 0.5978
C18 C 0.32203(14) 0.87098(18) 0.56894(3)
H17 H 0.2686 0.9172 0.5855
H18 H 0.412(2) 0.585(3) 0.3765(5)
O2 O 0.07897(9) 0.36622(12) 0.89624(2)
N2 N 0.15418(10) 0.21056(14) 0.89342(2)
C10 C 0.16426(11) 0.12592(16) 0.92027(3)
H10 H 0.2096 0.0167 0.9196
C11 C 0.15649(11) 0.10018(15) 0.97857(3)
H11 H 0.2135 0.0024 0.9758
C12 C 0.12383(11) 0.14952(15) 1.01195(3)
C13 C 0.02038(11) 0.26618(15) 1.01970(3)
H12 H -0.0335 0.3124 1.0032
C14 C -0.00270(12) 0.31367(16) 1.05162(3)
H13 H -0.0722 0.3920 1.0566
C15 C 0.20079(12) 0.08011(17) 1.03703(3)
H14 H 0.2689 -0.0008 1.0322
C16 C 0.11346(11) 0.18013(15) 0.95157(3)
H15 H 0.0502 0.2716 0.9529
C17 C 0.07625(13) 0.24623(18) 1.07628(3)
H16 H 0.0607 0.2799 1.0978
C18 C 0.17797(14) 0.12902(18) 1.06894(3)
H17 H 0.2314 0.0828 1.0855
H18 H 0.088(2) 0.415(3) 0.8765(5)
O2 O 0.57897(9) 0.13378(12) 0.10376(2)
N2 N 0.65418(10) 0.28944(14) 0.10658(2)
C10 C 0.66426(11) 0.37408(16) 0.07973(3)
H10 H 0.7096 0.4833 0.0804
C11 C 0.65649(11) 0.39982(15) 0.02143(3)
H11 H 0.7135 0.4976 0.0242
C12 C 0.62383(11) 0.35048(15) -0.01195(3)
C13 C 0.52038(11) 0.23382(15) -0.01970(3)
H12 H 0.4665 0.1876 -0.0032
C14 C 0.49730(12) 0.18633(16) -0.05162(3)
H13 H 0.4278 0.1080 -0.0566
C15 C 0.70079(12) 0.41989(17) -0.03703(3)
H14 H 0.7689 0.5008 -0.0322
C16 C 0.61346(11) 0.31987(15) 0.04843(3)
H15 H 0.5502 0.2284 0.0471
C17 C 0.57625(13) 0.25377(18) -0.07628(3)
H16 H 0.5607 0.2201 -0.0978
C18 C 0.67797(14) 0.37098(18) -0.06894(3)
H17 H 0.7314 0.4172 -0.0855
H18 H 0.588(2) 0.085(3) 0.1235(5)
O2 O 0.92103(9) 0.86622(12) 0.60376(2)
N2 N 0.84582(10) 0.71056(14) 0.60658(2)
C10 C 0.83574(11) 0.62592(16) 0.57973(3)
H10 H 0.7904 0.5167 0.5804
C11 C 0.84351(11) 0.60018(15) 0.52143(3)
H11 H 0.7865 0.5024 0.5242
C12 C 0.87617(11) 0.64952(15) 0.48805(3)
C13 C 0.97962(11) 0.76618(15) 0.48030(3)
H12 H 1.0335 0.8124 0.4968
C14 C 1.00270(12) 0.81367(16) 0.44838(3)
H13 H 1.0722 0.8920 0.4434
C15 C 0.79921(12) 0.58011(17) 0.46297(3)
H14 H 0.7311 0.4992 0.4678
C16 C 0.88654(11) 0.68013(15) 0.54843(3)
H15 H 0.9498 0.7716 0.5471
C17 C 0.92375(13) 0.74623(18) 0.42372(3)
H16 H 0.9393 0.7799 0.4022
C18 C 0.82203(14) 0.62902(18) 0.43106(3)
H17 H 0.7686 0.5828 0.4145
H18 H 0.912(2) 0.915(3) 0.6235(5)

#END
