
#######################################################################
#
#                 Cambridge Crystallographic Data Centre
#                                CCDC 
#
#######################################################################
#
# If this CIF has been generated from an entry in the Cambridge 
# Structural Database, then it will include bibliographic, chemical, 
# crystal, experimental, refinement or atomic coordinate data resulting 
# from the CCDC's data processing and validation procedures.
#
#######################################################################

data_KAHLUC
_symmetry_cell_setting           monoclinic
_symmetry_space_group_name_H-M   'P 21'
_symmetry_Int_Tables_number      4
_space_group_name_Hall           'P 2yb'
loop_
_symmetry_equiv_pos_site_id
_symmetry_equiv_pos_as_xyz
1 x,y,z
2 -x,1/2+y,-z
_cell_length_a                   7.4807(11)
_cell_length_b                   30.939(4)
_cell_length_c                   28.603(5)
_cell_angle_alpha                90
_cell_angle_beta                 91.782(7)
_cell_angle_gamma                90
_cell_volume                     6616.83
loop_
_atom_site_label
_atom_site_type_symbol
_atom_site_fract_x
_atom_site_fract_y
_atom_site_fract_z
Pd1 Pd 0.92378(5) 0.362436(12) 0.157243(13)
C1 C 0.4515(7) 0.35268(17) 0.11956(19)
F1 F 0.4930(5) 0.42632(11) 0.23790(12)
F2 F 0.3240(6) 0.11010(12) 0.12029(13)
F3 F 0.3502(5) 0.41363(11) 0.07760(13)
F4 F 0.5753(4) 0.34228(10) 0.24213(11)
F5 F 1.2773(4) 0.51513(10) 0.23345(12)
F6 F 0.4476(5) 0.33048(10) 0.07940(11)
N1 N 0.9389(6) 0.33028(15) 0.01510(16)
H1 H 0.9550 0.3376 -0.0142
F7 F 0.3748(5) 0.46237(11) 0.15567(14)
F8 F 0.3091(5) 0.15494(11) -0.03781(12)
F9 F 1.3804(5) 0.26381(11) 0.24474(12)
N2 N 0.8733(5) 0.30775(15) 0.19242(14)
N3 N 0.9351(6) 0.42146(14) 0.12823(15)
N4 N 1.0072(6) 0.38700(13) 0.22032(15)
F10 F 1.2464(5) 0.59498(10) 0.26761(12)
F11 F 1.4659(5) 0.23280(13) 0.40430(13)
C2 C 0.4058(8) 0.39542(18) 0.1180(2)
N5 N 0.5416(6) 0.22102(13) 0.11746(15)
H2 H 0.6562 0.2146 0.1182
F12 F 1.5672(5) 0.22411(13) 0.31418(15)
N6 N 0.7003(6) 0.21610(14) 0.03336(16)
H3 H 0.6729 0.2375 0.0522
F13 F 0.9860(5) 0.31998(12) 0.35440(12)
C3 C 0.5216(7) 0.35852(19) 0.20033(18)
F14 F 1.1843(6) 0.44561(13) -0.00232(14)
F15 F 1.1710(6) 0.28001(15) 0.42309(12)
C4 C 0.9740(7) 0.46321(17) 0.20183(18)
F16 F 0.0855(6) 0.04870(13) 0.09912(16)
C5 C 0.9297(7) 0.28880(17) 0.03106(19)
C6 C 0.9752(8) 0.29206(16) 0.22853(19)
C7 C 0.9023(7) 0.29152(17) 0.07982(19)
H4 H 0.8874 0.2674 0.0998
C8 C 1.0227(7) 0.43001(17) 0.23190(18)
C9 C 0.2650(9) 0.10696(18) 0.0762(2)
C10 C 0.4782(8) 0.40219(18) 0.1993(2)
F17 F 0.9193(5) 0.63151(10) 0.27572(14)
C11 C 1.1106(8) 0.43281(18) 0.27832(19)
H5 H 1.1331 0.4585 0.2957
F18 F 0.0743(5) 0.09204(12) -0.05831(15)
C12 C 0.9035(8) 0.49462(17) 0.1229(2)
H6 H 0.8958 0.5242 0.1314
C13 C 1.3286(8) 0.26928(19) 0.28911(19)
C14 C 0.5796(7) 0.28759(17) 0.16151(19)
C15 C 0.9003(8) 0.33502(17) 0.09444(19)
C16 C 0.9054(8) 0.40332(18) 0.0454(2)
C17 C 0.7867(7) 0.23842(17) 0.20724(19)
H7 H 0.7280 0.2113 0.2040
C18 C 0.4098(7) 0.19800(18) 0.0930(2)
C19 C 0.9339(7) 0.45918(17) 0.15417(19)
C20 C 1.0843(7) 0.31810(17) 0.25800(18)
C21 C 0.4667(7) 0.25559(16) 0.14048(19)
C22 C 0.8877(8) 0.47857(18) 0.0790(2)
H8 H 0.8679 0.4947 0.0511
C23 C 1.0855(6) 0.36305(18) 0.25607(17)
C24 C 1.1316(8) 0.29673(19) 0.3436(2)
C25 C 0.8364(8) 0.17556(19) -0.0193(2)
H9 H 0.9182 0.1660 -0.0418
C26 C 0.4537(8) 0.16999(17) 0.0555(2)
C27 C 1.1832(8) 0.29499(17) 0.29727(19)
F19 F 1.1546(7) 0.47175(14) -0.09153(16)
C28 C 1.0985(8) 0.57275(19) 0.2538(2)
C29 C 0.9346(9) 0.59271(18) 0.2575(2)
C30 C 0.9277(8) 0.24753(17) 0.23709(19)
H10 H 0.9834 0.2284 0.2591
C31 C 0.5151(7) 0.33264(17) 0.1605(2)
C32 C 0.9065(8) 0.43271(18) 0.0825(2)
C33 C 0.9190(7) 0.35938(19) 0.05171(17)
F20 F 0.8468(9) 0.46067(18) -0.14041(15)
C34 C 0.2818(7) 0.25240(17) 0.13306(19)
H11 H 0.1948 0.2715 0.1450
C35 C 0.6045(8) 0.17796(17) 0.0297(2)
C36 C 1.1128(7) 0.53201(17) 0.23644(19)
C37 C 0.7431(7) 0.27721(18) 0.18164(18)
C38 C 1.0268(10) 0.4399(2) -0.0254(2)
C39 C 0.9633(7) 0.50789(17) 0.22126(18)
C40 C 0.6965(8) 0.15297(18) -0.0042(2)
H12 H 0.6634 0.1248 -0.0144
C41 C 1.1538(7) 0.39224(18) 0.29194(19)
H13 H 1.2173 0.3843 0.3199
C42 C 1.3711(8) 0.2525(2) 0.3698(2)
C43 C 0.2473(8) 0.21635(18) 0.1050(2)
H14 H 0.1321 0.2060 0.0956
C44 C 1.4242(8) 0.2481(2) 0.3245(2)
C45 C 1.2230(9) 0.2764(2) 0.3790(2)
C46 C 0.4195(8) 0.42026(19) 0.1577(2)
C47 C 0.3269(8) 0.13490(18) 0.0429(2)
C48 C 0.8871(9) 0.4204(2) -0.0037(2)
C49 C 0.1390(9) 0.0964(2) -0.0140(2)
C50 C 0.8421(7) 0.21687(18) 0.0045(2)
C51 C 0.1422(9) 0.0750(2) 0.0656(3)
C52 C 1.0128(11) 0.4545(2) -0.0705(3)
C53 C 0.9501(7) 0.25258(18) 0.0010(2)
C54 C 0.2607(8) 0.12885(16) -0.0031(2)
C55 C 0.8591(14) 0.4490(3) -0.0951(3)
C56 C 0.7138(12) 0.4292(3) -0.0758(3)
F21 F 0.5585(9) 0.4222(2) -0.1001(2)
F48 F 0.6499(4) 0.50795(11) 0.21159(13)
F49 F 1.3110(4) 0.27332(12) 0.01999(11)
F50 F 0.6219(5) 0.58830(11) 0.24575(14)
C121 C 1.0850(8) 0.25496(18) -0.0359(2)
C122 C 0.8012(8) 0.52874(19) 0.2254(2)
C123 C 0.7829(8) 0.5702(2) 0.2426(2)
C124 C 1.2613(8) 0.26586(18) -0.0247(2)
F51 F 0.8785(5) 0.23964(13) -0.09813(12)
F52 F -0.0439(5) 0.03935(13) 0.01025(17)
F53 F 1.5582(5) 0.28088(14) -0.04417(14)
F54 F 1.1283(6) 0.24703(17) -0.16176(14)
F55 F 1.4710(6) 0.26602(17) -0.13591(15)
F56 F 0.5892(6) 0.39564(18) -0.01043(17)
C125 C 1.1736(10) 0.2520(2) -0.1166(2)
C126 C 1.0461(9) 0.2472(2) -0.0832(2)
C127 C 1.3909(8) 0.2691(2) -0.0571(2)
C128 C 0.0790(9) 0.0704(2) 0.0205(3)
C130 C 0.7310(11) 0.4151(3) -0.0299(2)
C134 C 1.3452(9) 0.2615(2) -0.1037(2)
Pd1 Pd 0.07622(5) 0.862436(12) 0.842757(13)
C1 C 0.5485(7) 0.85268(17) 0.88044(19)
F1 F 0.5070(5) 0.92632(11) 0.76210(12)
F2 F 0.6760(6) 0.61010(12) 0.87971(13)
F3 F 0.6498(5) 0.91363(11) 0.92240(13)
F4 F 0.4247(4) 0.84228(10) 0.75787(11)
F5 F -0.2773(4) 1.01513(10) 0.76655(12)
F6 F 0.5524(5) 0.83048(10) 0.92060(11)
N1 N 0.0611(6) 0.83028(15) 0.98490(16)
H1 H 0.0450 0.8376 1.0142
F7 F 0.6252(5) 0.96237(11) 0.84433(14)
F8 F 0.6909(5) 0.65494(11) 1.03781(12)
F9 F -0.3804(5) 0.76381(11) 0.75526(12)
N2 N 0.1267(5) 0.80775(15) 0.80758(14)
N3 N 0.0649(6) 0.92146(14) 0.87177(15)
N4 N -0.0072(6) 0.88700(13) 0.77968(15)
F10 F -0.2464(5) 1.09498(10) 0.73239(12)
F11 F -0.4659(5) 0.73280(13) 0.59570(13)
C2 C 0.5942(8) 0.89542(18) 0.8820(2)
N5 N 0.4584(6) 0.72102(13) 0.88254(15)
H2 H 0.3438 0.7146 0.8818
F12 F -0.5672(5) 0.72411(13) 0.68582(15)
N6 N 0.2997(6) 0.71610(14) 0.96664(16)
H3 H 0.3271 0.7375 0.9478
F13 F 0.0140(5) 0.81998(12) 0.64560(12)
C3 C 0.4784(7) 0.85852(19) 0.79967(18)
F14 F -0.1843(6) 0.94561(13) 1.00232(14)
F15 F -0.1710(6) 0.78001(15) 0.57691(12)
C4 C 0.0260(7) 0.96321(17) 0.79817(18)
F16 F 0.9145(6) 0.54870(13) 0.90088(16)
C5 C 0.0703(7) 0.78880(17) 0.96894(19)
C6 C 0.0248(8) 0.79206(16) 0.77147(19)
C7 C 0.0977(7) 0.79152(17) 0.92018(19)
H4 H 0.1126 0.7674 0.9002
C8 C -0.0227(7) 0.93001(17) 0.76810(18)
C9 C 0.7350(9) 0.60696(18) 0.9238(2)
C10 C 0.5218(8) 0.90219(18) 0.8007(2)
F17 F 0.0807(5) 1.13151(10) 0.72428(14)
C11 C -0.1106(8) 0.93281(18) 0.72168(19)
H5 H -0.1331 0.9585 0.7043
F18 F 0.9257(5) 0.59204(12) 1.05831(15)
C12 C 0.0965(8) 0.99462(17) 0.8771(2)
H6 H 0.1042 1.0242 0.8686
C13 C -0.3286(8) 0.76928(19) 0.71089(19)
C14 C 0.4204(7) 0.78759(17) 0.83849(19)
C15 C 0.0997(8) 0.83502(17) 0.90556(19)
C16 C 0.0946(8) 0.90332(18) 0.9546(2)
C17 C 0.2133(7) 0.73842(17) 0.79276(19)
H7 H 0.2720 0.7113 0.7960
C18 C 0.5902(7) 0.69800(18) 0.9070(2)
C19 C 0.0661(7) 0.95918(17) 0.84583(19)
C20 C -0.0843(7) 0.81810(17) 0.74200(18)
C21 C 0.5333(7) 0.75559(16) 0.85952(19)
C22 C 0.1123(8) 0.97857(18) 0.9210(2)
H8 H 0.1321 0.9947 0.9489
C23 C -0.0855(6) 0.86305(18) 0.74393(17)
C24 C -0.1316(8) 0.79673(19) 0.6564(2)
C25 C 0.1636(8) 0.67556(19) 1.0193(2)
H9 H 0.0818 0.6660 1.0418
C26 C 0.5463(8) 0.66999(17) 0.9445(2)
C27 C -0.1832(8) 0.79499(17) 0.70273(19)
F19 F -0.1546(7) 0.97175(14) 1.09153(16)
C28 C -0.0985(8) 1.07275(19) 0.7462(2)
C29 C 0.0654(9) 1.09271(18) 0.7425(2)
C30 C 0.0723(8) 0.74753(17) 0.76291(19)
H10 H 0.0166 0.7284 0.7409
C31 C 0.4849(7) 0.83264(17) 0.8395(2)
C32 C 0.0935(8) 0.93271(18) 0.9175(2)
C33 C 0.0810(7) 0.85938(19) 0.94829(17)
F20 F 0.1532(9) 0.96067(18) 1.14041(15)
C34 C 0.7182(7) 0.75240(17) 0.86694(19)
H11 H 0.8052 0.7715 0.8550
C35 C 0.3955(8) 0.67796(17) 0.9703(2)
C36 C -0.1128(7) 1.03201(17) 0.76356(19)
C37 C 0.2569(7) 0.77721(18) 0.81836(18)
C38 C -0.0268(10) 0.9399(2) 1.0254(2)
C39 C 0.0367(7) 1.00789(17) 0.77874(18)
C40 C 0.3035(8) 0.65297(18) 1.0042(2)
H12 H 0.3366 0.6248 1.0144
C41 C -0.1538(7) 0.89224(18) 0.70806(19)
H13 H -0.2173 0.8843 0.6801
C42 C -0.3711(8) 0.7525(2) 0.6302(2)
C43 C 0.7527(8) 0.71635(18) 0.8950(2)
H14 H 0.8679 0.7060 0.9044
C44 C -0.4242(8) 0.7481(2) 0.6755(2)
C45 C -0.2230(9) 0.7764(2) 0.6210(2)
C46 C 0.5805(8) 0.92026(19) 0.8423(2)
C47 C 0.6731(8) 0.63490(18) 0.9571(2)
C48 C 0.1129(9) 0.9204(2) 1.0037(2)
C49 C 0.8610(9) 0.5964(2) 1.0140(2)
C50 C 0.1579(7) 0.71687(18) 0.9955(2)
C51 C 0.8578(9) 0.5750(2) 0.9344(3)
C52 C -0.0128(11) 0.9545(2) 1.0705(3)
C53 C 0.0499(7) 0.75258(18) 0.9990(2)
C54 C 0.7393(8) 0.62885(16) 1.0031(2)
C55 C 0.1409(14) 0.9490(3) 1.0951(3)
C56 C 0.2862(12) 0.9292(3) 1.0758(3)
F21 F 0.4415(9) 0.9222(2) 1.1001(2)
F48 F 0.3501(4) 1.00795(11) 0.78841(13)
F49 F -0.3110(4) 0.77332(12) 0.98001(11)
F50 F 0.3781(5) 1.08830(11) 0.75425(14)
C121 C -0.0850(8) 0.75496(18) 1.0359(2)
C122 C 0.1988(8) 1.02874(19) 0.7746(2)
C123 C 0.2171(8) 1.0702(2) 0.7574(2)
C124 C -0.2613(8) 0.76586(18) 1.0247(2)
F51 F 0.1215(5) 0.73964(13) 1.09813(12)
F52 F 1.0439(5) 0.53935(13) 0.98975(17)
F53 F -0.5582(5) 0.78088(14) 1.04417(14)
F54 F -0.1283(6) 0.74703(17) 1.16176(14)
F55 F -0.4710(6) 0.76602(17) 1.13591(15)
F56 F 0.4108(6) 0.89564(18) 1.01043(17)
C125 C -0.1736(10) 0.7520(2) 1.1166(2)
C126 C -0.0461(9) 0.7472(2) 1.0832(2)
C127 C -0.3909(8) 0.7691(2) 1.0571(2)
C128 C 0.9210(9) 0.5704(2) 0.9795(3)
C130 C 0.2690(11) 0.9151(3) 1.0299(2)
C134 C -0.3452(9) 0.7615(2) 1.1037(2)
Pd2 Pd 0.32949(6) 0.805900(12) 0.366264(13)
C57 C -0.1901(8) 0.8238(2) 0.3068(2)
F22 F -0.0245(4) 0.86441(11) 0.41739(11)
F23 F -0.1459(4) 0.72186(10) 0.36520(12)
F24 F -0.2567(5) 0.75322(14) 0.28256(13)
F25 F 0.6974(4) 0.64169(10) 0.39172(12)
N7 N 0.3411(6) 0.81214(14) 0.29579(14)
F26 F 0.4827(5) 0.48602(9) 0.32492(12)
F27 F 0.8371(4) 0.50530(11) 0.33222(13)
N8 N 0.2807(5) 0.80767(14) 0.43514(13)
F28 F 0.2382(4) 0.54201(9) 0.35301(12)
F29 F 0.3491(5) 0.93761(11) 0.50367(13)
F30 F -0.2113(6) 0.65930(12) 0.59809(14)
F31 F -0.0056(4) 0.70852(12) 0.23612(13)
F32 F 0.5243(6) 0.98133(11) 0.57175(13)
N9 N 0.4109(6) 0.86850(15) 0.37409(14)
C58 C 0.4129(7) 0.55353(17) 0.3569(2)
F33 F 0.2364(5) 0.61887(12) 0.12274(13)
C59 C 0.3049(8) 0.70511(16) 0.23253(18)
F34 F -0.5409(5) 0.51461(12) 0.53118(16)
N10 N 0.3393(6) 0.67535(14) 0.32717(15)
H15 H 0.3579 0.6550 0.3064
C60 C -0.3390(8) 0.57275(18) 0.5204(2)
N11 N 0.0920(6) 0.63804(13) 0.44757(15)
H16 H 0.0635 0.6639 0.4369
F35 F -0.1219(5) 0.89399(12) 0.33295(14)
F36 F -0.3170(5) 0.55804(11) 0.47713(13)
C61 C -0.0132(7) 0.77360(17) 0.43991(19)
C62 C 0.3048(7) 0.74172(16) 0.36108(17)
C63 C -0.1265(7) 0.74354(16) 0.46228(18)
F37 F -0.0523(5) 0.65205(13) 0.16454(15)
F38 F 0.8231(5) 0.83827(12) 0.49959(12)
F39 F -0.2380(5) 0.83876(15) 0.26454(13)
C64 C 0.6409(8) 0.60348(16) 0.37487(18)
F40 F 0.5692(5) 0.64139(15) 0.15292(16)
C65 C 0.2286(7) 0.61324(16) 0.43059(18)
C66 C 0.1377(8) 0.69237(18) 0.2163(2)
F41 F 0.8507(6) 0.95434(13) 0.60395(14)
C67 C 0.3846(7) 0.82813(16) 0.46756(18)
C68 C -0.0816(7) 0.79186(16) 0.39530(19)
F42 F 0.6155(5) 0.69668(15) 0.22460(15)
F43 F 0.9406(4) 0.58462(12) 0.36427(13)
C69 C 0.2961(8) 0.79989(18) 0.21813(18)
H17 H 0.2776 0.7852 0.1892
C70 C 0.5562(8) 0.92773(17) 0.4049(2)
H18 H 0.6190 0.9463 0.4261
C71 C 0.3180(7) 0.73611(18) 0.27270(19)
F44 F 0.9990(5) 0.88280(14) 0.56708(14)
C72 C -0.1831(7) 0.68013(18) 0.49668(19)
C73 C 0.2587(9) 0.64743(18) 0.1583(2)
C74 C 0.1979(8) 0.78711(17) 0.50829(19)
H19 H 0.1389 0.7722 0.5324
C75 C -0.1371(7) 0.63570(17) 0.50596(19)
C76 C -0.3127(7) 0.73723(17) 0.46081(19)
H20 H -0.3991 0.7561 0.4468
N12 N -0.0522(6) 0.70939(14) 0.48633(15)
H21 H 0.0621 0.7066 0.4940
C77 C 0.4908(7) 0.86399(19) 0.45776(17)
C78 C 0.7677(7) 0.57489(18) 0.3615(2)
C79 C 0.5838(8) 0.88708(16) 0.49780(18)
C80 C 0.4261(8) 0.89855(17) 0.34020(19)
C81 C -0.1435(7) 0.76503(18) 0.3592(2)
C82 C 0.7480(8) 0.87369(17) 0.5167(2)
C83 C 0.3204(7) 0.66824(16) 0.37383(18)
C84 C 0.3061(8) 0.84350(18) 0.2241(2)
H22 H 0.2940 0.8649 0.2004
C85 C -0.1999(8) 0.7798(2) 0.3158(2)
C86 C 0.5983(9) 0.94616(18) 0.5535(2)
C87 C 0.5356(7) 0.52440(16) 0.34182(19)
C88 C 0.1526(8) 0.78539(16) 0.45887(18)
C89 C 0.4917(7) 0.88500(17) 0.41459(19)
C90 C 0.8383(8) 0.8961(2) 0.5509(2)
C91 C 0.7618(10) 0.9328(2) 0.5695(2)
C92 C 0.4495(8) 0.68699(19) 0.2106(2)
F45 F -0.5950(7) 0.54196(14) 0.61975(19)
C93 C 0.3181(7) 0.78025(17) 0.26302(18)
C94 C 0.0999(8) 0.57727(18) 0.4896(2)
H23 H 0.0750 0.5559 0.5123
C95 C -0.0818(8) 0.83568(18) 0.3844(2)
C96 C 0.3252(7) 0.71922(15) 0.31696(17)
C97 C -0.1340(8) 0.85172(19) 0.3412(2)
C98 C 0.3297(7) 0.62557(17) 0.39335(19)
F46 F -0.4250(8) 0.61425(15) 0.65321(17)
C99 C -0.4019(12) 0.6010(3) 0.6091(3)
C100 C -0.2914(9) 0.6242(2) 0.5809(2)
C101 C 0.2292(8) 0.57462(18) 0.4582(2)
H24 H 0.3084 0.5509 0.4548
C102 C 0.3412(8) 0.81414(16) 0.51397(19)
H25 H 0.4002 0.8221 0.5426
C103 C -0.4858(10) 0.5643(2) 0.5926(3)
C104 C 0.5102(9) 0.93656(18) 0.3595(2)
H26 H 0.5301 0.9630 0.3435
C105 C 0.1138(8) 0.66367(19) 0.1796(2)
C106 C -0.3479(8) 0.69918(18) 0.4832(2)
H27 H -0.4630 0.6877 0.4886
C107 C 0.3773(8) 0.89145(17) 0.2934(2)
C108 C 0.2989(7) 0.70940(16) 0.39456(19)
H28 H 0.2826 0.7142 0.4270
C109 C 0.4265(8) 0.6584(2) 0.1734(2)
C110 C 0.0049(8) 0.61746(17) 0.48339(19)
C111 C 0.4595(7) 0.59447(16) 0.37413(18)
C112 C 0.5121(8) 0.92335(17) 0.51794(19)
C113 C 0.7148(8) 0.53374(18) 0.3452(2)
C114 C 0.2269(11) 0.9570(2) 0.2602(3)
C115 C 0.3747(9) 0.93086(18) 0.2626(2)
C116 C -0.4551(9) 0.5498(2) 0.5477(3)
F47 F 0.0829(7) 0.94695(18) 0.2831(2)
C117 C -0.2539(8) 0.60998(19) 0.5357(2)
C118 C 0.3388(8) 0.85093(16) 0.27333(19)
F57 F 0.3687(7) 1.04458(13) 0.18682(17)
F58 F 0.6656(8) 0.92031(17) 0.2392(2)
F59 F 0.0791(8) 1.02062(19) 0.2334(2)
C129 C 0.3679(13) 1.0077(2) 0.2119(3)
C131 C 0.5169(11) 0.9439(2) 0.2379(3)
C135 C 0.2240(11) 0.9966(2) 0.2353(3)
F60 F 0.6620(9) 0.99264(18) 0.1877(2)
C137 C 0.5153(12) 0.9815(3) 0.2122(3)
Pd2 Pd 0.67051(6) 0.305900(12) 0.633736(13)
C57 C 1.1901(8) 0.3238(2) 0.6932(2)
F22 F 1.0245(4) 0.36441(11) 0.58261(11)
F23 F 1.1459(4) 0.22186(10) 0.63480(12)
F24 F 1.2567(5) 0.25322(14) 0.71744(13)
F25 F 0.3026(4) 0.14169(10) 0.60828(12)
N7 N 0.6589(6) 0.31214(14) 0.70421(14)
F26 F 0.5173(5) -0.01398(9) 0.67508(12)
F27 F 0.1629(4) 0.00530(11) 0.66778(13)
N8 N 0.7193(5) 0.30767(14) 0.56486(13)
F28 F 0.7618(4) 0.04201(9) 0.64699(12)
F29 F 0.6509(5) 0.43761(11) 0.49633(13)
F30 F 1.2113(6) 0.15930(12) 0.40191(14)
F31 F 1.0056(4) 0.20852(12) 0.76388(13)
F32 F 0.4757(6) 0.48133(11) 0.42825(13)
N9 N 0.5891(6) 0.36850(15) 0.62591(14)
C58 C 0.5871(7) 0.05353(17) 0.6431(2)
F33 F 0.7636(5) 0.11887(12) 0.87726(13)
C59 C 0.6951(8) 0.20511(16) 0.76747(18)
F34 F 1.5409(5) 0.01461(12) 0.46882(16)
N10 N 0.6607(6) 0.17535(14) 0.67283(15)
H15 H 0.6421 0.1550 0.6936
C60 C 1.3390(8) 0.07275(18) 0.4796(2)
N11 N 0.9080(6) 0.13804(13) 0.55243(15)
H16 H 0.9365 0.1639 0.5631
F35 F 1.1219(5) 0.39399(12) 0.66705(14)
F36 F 1.3170(5) 0.05804(11) 0.52287(13)
C61 C 1.0132(7) 0.27360(17) 0.56009(19)
C62 C 0.6952(7) 0.24172(16) 0.63892(17)
C63 C 1.1265(7) 0.24354(16) 0.53772(18)
F37 F 1.0523(5) 0.15205(13) 0.83546(15)
F38 F 0.1769(5) 0.33827(12) 0.50041(12)
F39 F 1.2380(5) 0.33876(15) 0.73546(13)
C64 C 0.3591(8) 0.10348(16) 0.62513(18)
F40 F 0.4308(5) 0.14139(15) 0.84708(16)
C65 C 0.7714(7) 0.11324(16) 0.56941(18)
C66 C 0.8623(8) 0.19237(18) 0.7837(2)
F41 F 0.1493(6) 0.45434(13) 0.39605(14)
C67 C 0.6154(7) 0.32813(16) 0.53244(18)
C68 C 1.0816(7) 0.29186(16) 0.60470(19)
F42 F 0.3845(5) 0.19668(15) 0.77540(15)
F43 F 0.0594(4) 0.08462(12) 0.63573(13)
C69 C 0.7039(8) 0.29989(18) 0.78187(18)
H17 H 0.7224 0.2852 0.8108
C70 C 0.4438(8) 0.42773(17) 0.5951(2)
H18 H 0.3810 0.4463 0.5739
C71 C 0.6820(7) 0.23611(18) 0.72730(19)
F44 F 0.0010(5) 0.38280(14) 0.43292(14)
C72 C 1.1831(7) 0.18013(18) 0.50332(19)
C73 C 0.7413(9) 0.14743(18) 0.8417(2)
C74 C 0.8021(8) 0.28711(17) 0.49171(19)
H19 H 0.8611 0.2722 0.4676
C75 C 1.1371(7) 0.13570(17) 0.49404(19)
C76 C 1.3127(7) 0.23723(17) 0.53919(19)
H20 H 1.3991 0.2561 0.5532
N12 N 1.0522(6) 0.20939(14) 0.51367(15)
H21 H 0.9379 0.2066 0.5060
C77 C 0.5092(7) 0.36399(19) 0.54224(17)
C78 C 0.2323(7) 0.07489(18) 0.6385(2)
C79 C 0.4162(8) 0.38708(16) 0.50220(18)
C80 C 0.5739(8) 0.39855(17) 0.65980(19)
C81 C 1.1435(7) 0.26503(18) 0.6408(2)
C82 C 0.2520(8) 0.37369(17) 0.4833(2)
C83 C 0.6796(7) 0.16824(16) 0.62617(18)
C84 C 0.6939(8) 0.34350(18) 0.7759(2)
H22 H 0.7060 0.3649 0.7996
C85 C 1.1999(8) 0.2798(2) 0.6842(2)
C86 C 0.4017(9) 0.44616(18) 0.4465(2)
C87 C 0.4644(7) 0.02440(16) 0.65818(19)
C88 C 0.8474(8) 0.28539(16) 0.54113(18)
C89 C 0.5083(7) 0.38500(17) 0.58541(19)
C90 C 0.1617(8) 0.3961(2) 0.4491(2)
C91 C 0.2382(10) 0.4328(2) 0.4305(2)
C92 C 0.5505(8) 0.18699(19) 0.7894(2)
F45 F 1.5950(7) 0.04196(14) 0.38025(19)
C93 C 0.6819(7) 0.28025(17) 0.73698(18)
C94 C 0.9001(8) 0.07727(18) 0.5104(2)
H23 H 0.9250 0.0559 0.4877
C95 C 1.0818(8) 0.33568(18) 0.6156(2)
C96 C 0.6748(7) 0.21922(15) 0.68304(17)
C97 C 1.1340(8) 0.35172(19) 0.6588(2)
C98 C 0.6703(7) 0.12557(17) 0.60665(19)
F46 F 1.4250(8) 0.11425(15) 0.34679(17)
C99 C 1.4019(12) 0.1010(3) 0.3909(3)
C100 C 1.2914(9) 0.1242(2) 0.4191(2)
C101 C 0.7708(8) 0.07462(18) 0.5418(2)
H24 H 0.6916 0.0509 0.5452
C102 C 0.6588(8) 0.31414(16) 0.48603(19)
H25 H 0.5998 0.3221 0.4574
C103 C 1.4858(10) 0.0643(2) 0.4074(3)
C104 C 0.4898(9) 0.43656(18) 0.6405(2)
H26 H 0.4699 0.4630 0.6565
C105 C 0.8862(8) 0.16367(19) 0.8204(2)
C106 C 1.3479(8) 0.19918(18) 0.5168(2)
H27 H 1.4630 0.1877 0.5114
C107 C 0.6227(8) 0.39145(17) 0.7066(2)
C108 C 0.7011(7) 0.20940(16) 0.60544(19)
H28 H 0.7174 0.2142 0.5730
C109 C 0.5735(8) 0.1584(2) 0.8266(2)
C110 C 0.9951(8) 0.11746(17) 0.51661(19)
C111 C 0.5405(7) 0.09447(16) 0.62587(18)
C112 C 0.4879(8) 0.42335(17) 0.48206(19)
C113 C 0.2852(8) 0.03374(18) 0.6548(2)
C114 C 0.7731(11) 0.4570(2) 0.7398(3)
C115 C 0.6253(9) 0.43086(18) 0.7374(2)
C116 C 1.4551(9) 0.0498(2) 0.4523(3)
F47 F 0.9171(7) 0.44695(18) 0.7169(2)
C117 C 1.2539(8) 0.10998(19) 0.4643(2)
C118 C 0.6612(8) 0.35093(16) 0.72667(19)
F57 F 0.6313(7) 0.54458(13) 0.81318(17)
F58 F 0.3344(8) 0.42031(17) 0.7608(2)
F59 F 0.9209(8) 0.52062(19) 0.7666(2)
C129 C 0.6321(13) 0.5077(2) 0.7881(3)
C131 C 0.4831(11) 0.4439(2) 0.7621(3)
C135 C 0.7760(11) 0.4966(2) 0.7647(3)
F60 F 0.3380(9) 0.49264(18) 0.8123(2)
C137 C 0.4847(12) 0.4815(3) 0.7878(3)
N13 N 0.4851(8) 0.3578(2) 0.37927(19)
C119 C 0.5934(8) 0.3750(2) 0.3589(2)
C120 C 0.7307(9) 0.3972(2) 0.3335(2)
H29 H 0.6764 0.4207 0.3151
H30 H 0.7885 0.3768 0.3126
H31 H 0.8201 0.4091 0.3558
N13 N 0.5149(8) 0.8578(2) 0.62073(19)
C119 C 0.4066(8) 0.8750(2) 0.6411(2)
C120 C 0.2693(9) 0.8972(2) 0.6665(2)
H29 H 0.3236 0.9207 0.6849
H30 H 0.2115 0.8768 0.6874
H31 H 0.1799 0.9091 0.6442
C132 C 0.8356(17) 0.8654(5) 0.1637(4)
H32 H 0.8330 0.8969 0.1679
H33 H 0.8967 0.8520 0.1908
H34 H 0.7129 0.8544 0.1607
C133 C 0.9311(14) 0.8551(3) 0.1214(3)
N14 N 0.9982(13) 0.8474(2) 0.0885(2)
C132 C 0.1644(17) 0.3654(5) 0.8363(4)
H32 H 0.1670 0.3969 0.8321
H33 H 0.1033 0.3520 0.8092
H34 H 0.2871 0.3544 0.8393
C133 C 0.0689(14) 0.3551(3) 0.8786(3)
N14 N 0.0018(13) 0.3474(2) 0.9115(2)
N15 N 0.8585(8) 0.1579(2) 0.1227(2)
C138 C 0.8118(11) 0.1250(3) 0.1301(4)
C142 C 0.7424(16) 0.0813(3) 0.1394(6)
H41 H 0.6121 0.0826 0.1418
H42 H 0.7958 0.0704 0.1688
H43 H 0.7731 0.0620 0.1138
N15 N 0.1415(8) 0.6579(2) 0.8773(2)
C138 C 0.1882(11) 0.6250(3) 0.8699(4)
C142 C 0.2576(16) 0.5813(3) 0.8606(6)
H41 H 0.3879 0.5826 0.8582
H42 H 0.2042 0.5704 0.8312
H43 H 0.2269 0.5620 0.8862
C136 C 0.4634(12) 0.5259(3) 0.0167(4)
C139 C 0.3944(13) 0.5212(3) 0.0646(4)
H35 H 0.2898 0.5022 0.0636
H36 H 0.3602 0.5497 0.0765
H37 H 0.4877 0.5088 0.0853
N17 N 0.5141(14) 0.5289(4) -0.0196(4)
C136 C 0.5366(12) 0.0259(3) 0.9833(4)
C139 C 0.6056(13) 0.0212(3) 0.9354(4)
H35 H 0.7102 0.0022 0.9364
H36 H 0.6398 0.0497 0.9235
H37 H 0.5123 0.0088 0.9147
N17 N 0.4859(14) 0.0289(4) 1.0196(4)
N16 N 0.7368(11) 0.1786(3) 0.4572(4)
C143 C 0.7818(17) 0.1683(6) 0.4160(7)
C144 C 0.8256(18) 0.1461(8) 0.3685(7)
H44 H 0.8510 0.1154 0.3739
H45 H 0.9303 0.1600 0.3553
H46 H 0.7228 0.1489 0.3466
N16 N 0.2632(11) 0.6786(3) 0.5428(4)
C143 C 0.2182(17) 0.6683(6) 0.5840(7)
C144 C 0.1744(18) 0.6461(8) 0.6315(7)
H44 H 0.1490 0.6154 0.6261
H45 H 0.0697 0.6600 0.6447
H46 H 0.2772 0.6489 0.6534
C140 C 0.0743(13) 0.9626(3) 0.4107(4)
H38 H 0.1994 0.9531 0.4115
H39 H 0.0014 0.9420 0.3924
H40 H 0.0311 0.9641 0.4426
C141 C 0.062(2) 1.0023(5) 0.3905(6)
N18 N 0.053(3) 1.0388(6) 0.3780(10)
C140 C 0.9257(13) 0.4626(3) 0.5893(4)
H38 H 0.8006 0.4531 0.5885
H39 H 0.9986 0.4420 0.6076
H40 H 0.9689 0.4641 0.5574
C141 C 0.938(2) 0.5023(5) 0.6095(6)
N18 N 0.947(3) 0.5388(6) 0.6220(10)
C145 C 0.398(8) 0.1479(7) 0.2278(8)
C146 C 0.208(3) 0.1516(8) 0.2278(12)
H47 H 0.1732 0.1805 0.2169
H48 H 0.1669 0.1472 0.2596
H49 H 0.1547 0.1298 0.2069
N19 N 0.571(7) 0.1339(8) 0.2313(10)
C145 C 0.602(8) 0.6479(7) 0.7722(8)
C146 C 0.792(3) 0.6516(8) 0.7722(12)
H47 H 0.8268 0.6805 0.7831
H48 H 0.8331 0.6472 0.7404
H49 H 0.8453 0.6298 0.7931
N19 N 0.429(7) 0.6339(8) 0.7687(10)

#END
