./KAHNAL_from_xyz.cif_generated_by_CrystalShift
_symmetry_cell_setting triclinic
_symmetry_space_group_name_H-M 'P 1'
loop_
_symmetry_equiv_pos_site_id
_symmetry_equiv_pos_as_xyz
1 x,y,z
_cell_length_a 10.072000
_cell_length_b 5.665000
_cell_length_c 17.929000
_cell_angle_alpha 90.000000
_cell_angle_beta 103.340000
_cell_angle_gamma 90.000000
_cell_volume 995.388410
loop_
_atom_site_label
_atom_site_type_symbol
_atom_site_fract_x
_atom_site_fract_y
_atom_site_fract_z
F1 F 0.073400 0.348900 0.298800
O2 O 0.295400 0.046600 0.290100
O3 O 0.991700 0.209200 0.570300
O4 O 0.479100 0.255400 0.274600
N5 N 0.388700 -0.417000 0.407300
C6 C 0.809000 -0.059000 0.537000
C7 C 0.209800 0.166000 0.224500
C8 C 0.428000 0.106000 0.308100
C9 C 0.625400 0.032000 0.424300
C10 C 0.437000 -0.243000 0.393800
C11 C 0.698100 0.246000 0.410900
C12 C 0.687000 -0.116000 0.489300
C13 C 0.502400 -0.029000 0.377000
C14 C 0.882200 0.157000 0.526000
C15 C 0.816600 0.302000 0.460100
C16 C 0.154700 0.394000 0.245800
H17 H 0.848000 -0.165300 0.579300
H18 H 0.262500 0.188500 0.186700
H19 H 0.134000 0.065300 0.202200
H20 H 0.661600 0.345700 0.366800
H21 H 0.639400 -0.259900 0.498400
H22 H 0.859800 0.447500 0.450100
H23 H 0.104600 0.474400 0.200900
H24 H 0.232300 0.497900 0.268000
F25 F 0.926600 0.848900 0.201200
O26 O 0.704600 0.546600 0.209900
O27 O 0.008300 0.709200 -0.070300
O28 O 0.520900 0.755400 0.225400
N29 N 0.611300 0.083000 0.092700
C30 C 0.191000 0.441000 -0.037000
C31 C 0.790200 0.666000 0.275500
C32 C 0.572000 0.606000 0.191900
C33 C 0.374600 0.532000 0.075700
C34 C 0.563000 0.257000 0.106200
C35 C 0.301900 0.746000 0.089100
C36 C 0.313000 0.384000 0.010700
C37 C 0.497600 0.471000 0.123000
C38 C 0.117800 0.657000 -0.026000
C39 C 0.183400 0.802000 0.039900
C40 C 0.845300 0.894000 0.254200
H41 H 0.152000 0.334700 -0.079300
H42 H 0.737500 0.688500 0.313300
H43 H 0.866000 0.565300 0.297800
H44 H 0.338400 0.845700 0.133200
H45 H 0.360600 0.240100 0.001600
H46 H 0.140200 0.947500 0.049900
H47 H 0.895400 0.974400 0.299100
H48 H 0.767700 0.997900 0.232000
F49 F 0.926600 0.651100 0.701200
O50 O 0.704600 0.953400 0.709900
O51 O 0.008300 0.790800 0.429700
O52 O 0.520900 0.744600 0.725400
N53 N 0.611300 1.417000 0.592700
C54 C 0.191000 1.059000 0.463000
C55 C 0.790200 0.834000 0.775500
C56 C 0.572000 0.894000 0.691900
C57 C 0.374600 0.968000 0.575700
C58 C 0.563000 1.243000 0.606200
C59 C 0.301900 0.754000 0.589100
C60 C 0.313000 1.116000 0.510700
C61 C 0.497600 1.029000 0.623000
C62 C 0.117800 0.843000 0.474000
C63 C 0.183400 0.698000 0.539900
C64 C 0.845300 0.606000 0.754200
H65 H 0.152000 1.165300 0.420700
H66 H 0.737500 0.811500 0.813300
H67 H 0.866000 0.934700 0.797800
H68 H 0.338400 0.654300 0.633200
H69 H 0.360600 1.259900 0.501600
H70 H 0.140200 0.552500 0.549900
H71 H 0.895400 0.525600 0.799100
H72 H 0.767700 0.502100 0.732000
F73 F 0.073400 0.151100 0.798800
O74 O 0.295400 0.453400 0.790100
O75 O 0.991700 0.290800 1.070300
O76 O 0.479100 0.244600 0.774600
N77 N 0.388700 0.917000 0.907300
C78 C 0.809000 0.559000 1.037000
C79 C 0.209800 0.334000 0.724500
C80 C 0.428000 0.394000 0.808100
C81 C 0.625400 0.468000 0.924300
C82 C 0.437000 0.743000 0.893800
C83 C 0.698100 0.254000 0.910900
C84 C 0.687000 0.616000 0.989300
C85 C 0.502400 0.529000 0.877000
C86 C 0.882200 0.343000 1.026000
C87 C 0.816600 0.198000 0.960100
C88 C 0.154700 0.106000 0.745800
H89 H 0.848000 0.665300 1.079300
H90 H 0.262500 0.311500 0.686700
H91 H 0.134000 0.434700 0.702200
H92 H 0.661600 0.154300 0.866800
H93 H 0.639400 0.759900 0.998400
H94 H 0.859800 0.052500 0.950100
H95 H 0.104600 0.025600 0.700900
H96 H 0.232300 0.002100 0.768000

#END
