
#######################################################################
#
#                 Cambridge Crystallographic Data Centre
#                                CCDC 
#
#######################################################################
#
# If this CIF has been generated from an entry in the Cambridge 
# Structural Database, then it will include bibliographic, chemical, 
# crystal, experimental, refinement or atomic coordinate data resulting 
# from the CCDC's data processing and validation procedures.
#
#######################################################################

data_KAHQUH
_symmetry_cell_setting           triclinic
_symmetry_space_group_name_H-M   'P -1'
_symmetry_Int_Tables_number      2
_space_group_name_Hall           '-P 1'
loop_
_symmetry_equiv_pos_site_id
_symmetry_equiv_pos_as_xyz
1 x,y,z
2 -x,-y,-z
_cell_length_a                   7.6404(2)
_cell_length_b                   8.8734(2)
_cell_length_c                   13.0368(3)
_cell_angle_alpha                100.6270(10)
_cell_angle_beta                 91.1130(10)
_cell_angle_gamma                109.8040(10)
_cell_volume                     814.099
loop_
_atom_site_label
_atom_site_type_symbol
_atom_site_fract_x
_atom_site_fract_y
_atom_site_fract_z
O1 O 0.49733(18) 1.15049(13) 0.22814(10)
H1 H 0.4974 1.2395 0.2191
O2 O 0.13395(17) 0.94471(15) -0.10950(10)
O3 O 0.05646(19) 0.67605(15) -0.09199(10)
O4 O -0.0574(3) 0.7416(3) 0.58414(13)
N1 N 0.4919(2) 0.69716(15) 0.23070(11)
N2 N 0.5113(2) 0.45188(18) 0.20989(14)
C1 C 0.4238(2) 0.83622(19) 0.25755(14)
H2 H 0.5323 0.9331 0.2875
C2 C 0.4171(3) 0.5454(2) 0.24840(16)
H3 H 0.3110 0.5103 0.2838
C3 C 0.6532(3) 0.5489(2) 0.16444(16)
H4 H 0.7437 0.5161 0.1300
C4 C 0.6430(3) 0.7001(2) 0.17692(15)
H5 H 0.7238 0.7889 0.1533
C5 C 0.3479(2) 0.86956(19) 0.15922(13)
C6 C 0.3884(2) 1.03001(19) 0.14862(13)
C7 C 0.3228(2) 1.0678(2) 0.05937(13)
H6 H 0.3519 1.1753 0.0514
C8 C 0.2141(2) 0.9394(2) -0.01539(13)
C9 C 0.1697(2) 0.7798(2) -0.00520(13)
C10 C 0.2360(2) 0.7413(2) 0.08036(13)
H7 H 0.2077 0.6329 0.0862
C11 C 0.0440(3) 0.7790(2) -0.16043(16)
H8 H -0.0861 0.7594 -0.1802
H9 H 0.1032 0.7554 -0.2236
C12 C 0.2891(3) 0.8083(2) 0.34184(14)
C13 C 0.1052(3) 0.7880(3) 0.32508(17)
H10 H 0.0592 0.7903 0.2590
C14 C -0.0156(3) 0.7643(4) 0.40342(19)
H11 H -0.1406 0.7502 0.3896
C15 C 0.0499(3) 0.7615(3) 0.50094(16)
C16 C 0.2334(3) 0.7827(3) 0.52024(16)
H12 H 0.2791 0.7813 0.5866
C17 C 0.3509(3) 0.8060(3) 0.44160(16)
H13 H 0.4760 0.8209 0.4560
C18 C -0.2414(4) 0.7415(5) 0.5700(2)
H14 H -0.3141 0.6462 0.5193
H15 H -0.2382 0.8380 0.5456
H16 H -0.2967 0.7402 0.6354
O1 O 0.50267(18) -0.15049(13) 0.77186(10)
H1 H 0.5026 -0.2395 0.7809
O2 O 0.86605(17) 0.05529(15) 1.10950(10)
O3 O 0.94354(19) 0.32395(15) 1.09199(10)
O4 O 1.0574(3) 0.2584(3) 0.41586(13)
N1 N 0.5081(2) 0.30284(15) 0.76930(11)
N2 N 0.4887(2) 0.54812(18) 0.79011(14)
C1 C 0.5762(2) 0.16378(19) 0.74245(14)
H2 H 0.4677 0.0669 0.7125
C2 C 0.5829(3) 0.4546(2) 0.75160(16)
H3 H 0.6890 0.4897 0.7162
C3 C 0.3468(3) 0.4511(2) 0.83556(16)
H4 H 0.2563 0.4839 0.8700
C4 C 0.3570(3) 0.2999(2) 0.82308(15)
H5 H 0.2762 0.2111 0.8467
C5 C 0.6521(2) 0.13044(19) 0.84078(13)
C6 C 0.6116(2) -0.03001(19) 0.85138(13)
C7 C 0.6772(2) -0.0678(2) 0.94063(13)
H6 H 0.6481 -0.1753 0.9486
C8 C 0.7859(2) 0.0606(2) 1.01539(13)
C9 C 0.8303(2) 0.2202(2) 1.00520(13)
C10 C 0.7640(2) 0.2587(2) 0.91964(13)
H7 H 0.7923 0.3671 0.9138
C11 C 0.9560(3) 0.2210(2) 1.16043(16)
H8 H 1.0861 0.2406 1.1802
H9 H 0.8968 0.2446 1.2236
C12 C 0.7109(3) 0.1917(2) 0.65816(14)
C13 C 0.8948(3) 0.2120(3) 0.67492(17)
H10 H 0.9408 0.2097 0.7410
C14 C 1.0156(3) 0.2357(4) 0.59658(19)
H11 H 1.1406 0.2498 0.6104
C15 C 0.9501(3) 0.2385(3) 0.49906(16)
C16 C 0.7666(3) 0.2173(3) 0.47976(16)
H12 H 0.7209 0.2187 0.4134
C17 C 0.6491(3) 0.1940(3) 0.55840(16)
H13 H 0.5240 0.1791 0.5440
C18 C 1.2414(4) 0.2585(5) 0.4300(2)
H14 H 1.3141 0.3538 0.4807
H15 H 1.2382 0.1620 0.4544
H16 H 1.2967 0.2598 0.3646

#END
