./KAHRUI_from_xyz.cif_generated_by_CrystalShift
_symmetry_cell_setting triclinic
_symmetry_space_group_name_H-M 'P 1'
loop_
_symmetry_equiv_pos_site_id
_symmetry_equiv_pos_as_xyz
1 x,y,z
_cell_length_a 8.250000
_cell_length_b 6.064900
_cell_length_c 20.548400
_cell_angle_alpha 90.000000
_cell_angle_beta 96.479000
_cell_angle_gamma 90.000000
_cell_volume 1021.581428
loop_
_atom_site_label
_atom_site_type_symbol
_atom_site_fract_x
_atom_site_fract_y
_atom_site_fract_z
C1 C 0.326370 0.540700 0.283060
C2 C 0.247900 0.741600 0.273250
C3 C 0.139400 0.777200 0.217310
C4 C 0.113100 0.610200 0.172930
C5 C 0.188200 0.410200 0.181300
C6 C 0.296000 0.373600 0.237320
C7 C 0.482620 0.327600 0.372280
C8 C 0.606140 0.358400 0.431650
C9 C 0.649200 0.178400 0.471090
C10 C 0.755900 0.211000 0.527740
C11 C 0.817800 0.417800 0.540680
C12 C 0.771200 0.586400 0.497840
N13 N 0.441500 0.515400 0.339560
N14 N 0.665130 0.560200 0.443730
O15 O 0.425910 0.146500 0.357820
F16 F 0.008060 0.645500 0.117480
H17 H 0.270000 0.857000 0.303800
H18 H 0.084000 0.919000 0.209500
H19 H 0.170000 0.292000 0.147100
H20 H 0.349000 0.236000 0.245100
H21 H 0.605000 0.030000 0.460500
H22 H 0.781000 0.087000 0.558800
H23 H 0.892000 0.452000 0.580300
H24 H 0.815000 0.736000 0.505300
H25 H 0.481000 0.633000 0.357800
C26 C 0.673630 1.040700 0.216940
C27 C 0.752100 1.241600 0.226750
C28 C 0.860600 1.277200 0.282690
C29 C 0.886900 1.110200 0.327070
C30 C 0.811800 0.910200 0.318700
C31 C 0.704000 0.873600 0.262680
C32 C 0.517380 0.827600 0.127720
C33 C 0.393860 0.858400 0.068350
C34 C 0.350800 0.678400 0.028910
C35 C 0.244100 0.711000 -0.027740
C36 C 0.182200 0.917800 -0.040680
C37 C 0.228800 1.086400 0.002160
N38 N 0.558500 1.015400 0.160440
N39 N 0.334870 1.060200 0.056270
O40 O 0.574090 0.646500 0.142180
F41 F 0.991940 1.145500 0.382520
H42 H 0.730000 1.357000 0.196200
H43 H 0.916000 1.419000 0.290500
H44 H 0.830000 0.792000 0.352900
H45 H 0.651000 0.736000 0.254900
H46 H 0.395000 0.530000 0.039500
H47 H 0.219000 0.587000 -0.058800
H48 H 0.108000 0.952000 -0.080300
H49 H 0.185000 1.236000 -0.005300
H50 H 0.519000 1.133000 0.142200
C51 C 0.673630 0.459300 0.716940
C52 C 0.752100 0.258400 0.726750
C53 C 0.860600 0.222800 0.782690
C54 C 0.886900 0.389800 0.827070
C55 C 0.811800 0.589800 0.818700
C56 C 0.704000 0.626400 0.762680
C57 C 0.517380 0.672400 0.627720
C58 C 0.393860 0.641600 0.568350
C59 C 0.350800 0.821600 0.528910
C60 C 0.244100 0.789000 0.472260
C61 C 0.182200 0.582200 0.459320
C62 C 0.228800 0.413600 0.502160
N63 N 0.558500 0.484600 0.660440
N64 N 0.334870 0.439800 0.556270
O65 O 0.574090 0.853500 0.642180
F66 F 0.991940 0.354500 0.882520
H67 H 0.730000 0.143000 0.696200
H68 H 0.916000 0.081000 0.790500
H69 H 0.830000 0.708000 0.852900
H70 H 0.651000 0.764000 0.754900
H71 H 0.395000 0.970000 0.539500
H72 H 0.219000 0.913000 0.441200
H73 H 0.108000 0.548000 0.419700
H74 H 0.185000 0.264000 0.494700
H75 H 0.519000 0.367000 0.642200
C76 C 0.326370 -0.040700 0.783060
C77 C 0.247900 -0.241600 0.773250
C78 C 0.139400 -0.277200 0.717310
C79 C 0.113100 -0.110200 0.672930
C80 C 0.188200 0.089800 0.681300
C81 C 0.296000 0.126400 0.737320
C82 C 0.482620 0.172400 0.872280
C83 C 0.606140 0.141600 0.931650
C84 C 0.649200 0.321600 0.971090
C85 C 0.755900 0.289000 1.027740
C86 C 0.817800 0.082200 1.040680
C87 C 0.771200 -0.086400 0.997840
N88 N 0.441500 -0.015400 0.839560
N89 N 0.665130 -0.060200 0.943730
O90 O 0.425910 0.353500 0.857820
F91 F 0.008060 -0.145500 0.617480
H92 H 0.270000 -0.357000 0.803800
H93 H 0.084000 -0.419000 0.709500
H94 H 0.170000 0.208000 0.647100
H95 H 0.349000 0.264000 0.745100
H96 H 0.605000 0.470000 0.960500
H97 H 0.781000 0.413000 1.058800
H98 H 0.892000 0.048000 1.080300
H99 H 0.815000 -0.236000 1.005300
H100 H 0.481000 -0.133000 0.857800

#END
