./KAHTEU_from_xyz.cif_generated_by_CrystalShift
_symmetry_cell_setting triclinic
_symmetry_space_group_name_H-M 'P 1'
loop_
_symmetry_equiv_pos_site_id
_symmetry_equiv_pos_as_xyz
1 x,y,z
_cell_length_a 3.865000
_cell_length_b 19.424000
_cell_length_c 10.113000
_cell_angle_alpha 90.000000
_cell_angle_beta 92.560000
_cell_angle_gamma 90.000000
_cell_volume 758.463215
loop_
_atom_site_label
_atom_site_type_symbol
_atom_site_fract_x
_atom_site_fract_y
_atom_site_fract_z
C1 C 0.299700 -0.193630 0.011100
C2 C 0.221300 -0.225400 0.130200
C3 C 0.064700 -0.188680 0.226900
C4 C -0.019000 -0.118480 0.208700
C5 C 0.053900 -0.086270 0.086200
C6 C -0.036100 -0.016040 0.063500
C7 C 0.172600 0.076630 -0.307000
C8 C 0.257400 0.009790 -0.284700
C9 C 0.192100 -0.021160 -0.161400
C10 C 0.300400 -0.093420 -0.139800
C11 C 0.214700 -0.125590 -0.011900
H12 H 0.429000 -0.220000 -0.055000
H13 H 0.271000 -0.269500 0.159000
H14 H 0.041000 -0.207000 0.308000
H15 H 0.384000 -0.020000 -0.351000
Br16 Br 0.267100 0.114660 -0.474570
O17 O 0.459000 -0.125170 -0.222600
C18 C -0.299700 0.193630 -0.011100
C19 C -0.221300 0.225400 -0.130200
C20 C -0.064700 0.188680 -0.226900
C21 C 0.019000 0.118480 -0.208700
C22 C -0.053900 0.086270 -0.086200
C23 C 0.036100 0.016040 -0.063500
C24 C -0.172600 -0.076630 0.307000
C25 C -0.257400 -0.009790 0.284700
C26 C -0.192100 0.021160 0.161400
C27 C -0.300400 0.093420 0.139800
C28 C -0.214700 0.125590 0.011900
H29 H -0.429000 0.220000 0.055000
H30 H -0.271000 0.269500 -0.159000
H31 H -0.041000 0.207000 -0.308000
H32 H -0.384000 0.020000 0.351000
Br33 Br -0.267100 -0.114660 0.474570
O34 O -0.459000 0.125170 0.222600
C35 C 0.299700 -0.193630 1.011100
C36 C 0.221300 -0.225400 1.130200
C37 C 0.064700 -0.188680 1.226900
C38 C -0.019000 -0.118480 1.208700
C39 C 0.053900 -0.086270 1.086200
C40 C -0.036100 -0.016040 1.063500
C41 C 0.172600 0.076630 0.693000
C42 C 0.257400 0.009790 0.715300
C43 C 0.192100 -0.021160 0.838600
C44 C 0.300400 -0.093420 0.860200
C45 C 0.214700 -0.125590 0.988100
H46 H 0.429000 -0.220000 0.945000
H47 H 0.271000 -0.269500 1.159000
H48 H 0.041000 -0.207000 1.308000
H49 H 0.384000 -0.020000 0.649000
Br50 Br 0.267100 0.114660 0.525430
O51 O 0.459000 -0.125170 0.777400
C52 C -0.299700 0.193630 0.988900
C53 C -0.221300 0.225400 0.869800
C54 C -0.064700 0.188680 0.773100
C55 C 0.019000 0.118480 0.791300
C56 C -0.053900 0.086270 0.913800
C57 C 0.036100 0.016040 0.936500
C58 C -0.172600 -0.076630 1.307000
C59 C -0.257400 -0.009790 1.284700
C60 C -0.192100 0.021160 1.161400
C61 C -0.300400 0.093420 1.139800
C62 C -0.214700 0.125590 1.011900
H63 H -0.429000 0.220000 1.055000
H64 H -0.271000 0.269500 0.841000
H65 H -0.041000 0.207000 0.692000
H66 H -0.384000 0.020000 1.351000
Br67 Br -0.267100 -0.114660 1.474570
O68 O -0.459000 0.125170 1.222600
C69 C 0.299700 0.806370 0.011100
C70 C 0.221300 0.774600 0.130200
C71 C 0.064700 0.811320 0.226900
C72 C -0.019000 0.881520 0.208700
C73 C 0.053900 0.913730 0.086200
C74 C -0.036100 0.983960 0.063500
C75 C 0.172600 1.076630 -0.307000
C76 C 0.257400 1.009790 -0.284700
C77 C 0.192100 0.978840 -0.161400
C78 C 0.300400 0.906580 -0.139800
C79 C 0.214700 0.874410 -0.011900
H80 H 0.429000 0.780000 -0.055000
H81 H 0.271000 0.730500 0.159000
H82 H 0.041000 0.793000 0.308000
H83 H 0.384000 0.980000 -0.351000
Br84 Br 0.267100 1.114660 -0.474570
O85 O 0.459000 0.874830 -0.222600
C86 C -0.299700 1.193630 -0.011100
C87 C -0.221300 1.225400 -0.130200
C88 C -0.064700 1.188680 -0.226900
C89 C 0.019000 1.118480 -0.208700
C90 C -0.053900 1.086270 -0.086200
C91 C 0.036100 1.016040 -0.063500
C92 C -0.172600 0.923370 0.307000
C93 C -0.257400 0.990210 0.284700
C94 C -0.192100 1.021160 0.161400
C95 C -0.300400 1.093420 0.139800
C96 C -0.214700 1.125590 0.011900
H97 H -0.429000 1.220000 0.055000
H98 H -0.271000 1.269500 -0.159000
H99 H -0.041000 1.207000 -0.308000
H100 H -0.384000 1.020000 0.351000
Br101 Br -0.267100 0.885340 0.474570
O102 O -0.459000 1.125170 0.222600
C103 C 0.299700 0.806370 1.011100
C104 C 0.221300 0.774600 1.130200
C105 C 0.064700 0.811320 1.226900
C106 C -0.019000 0.881520 1.208700
C107 C 0.053900 0.913730 1.086200
C108 C -0.036100 0.983960 1.063500
C109 C 0.172600 1.076630 0.693000
C110 C 0.257400 1.009790 0.715300
C111 C 0.192100 0.978840 0.838600
C112 C 0.300400 0.906580 0.860200
C113 C 0.214700 0.874410 0.988100
H114 H 0.429000 0.780000 0.945000
H115 H 0.271000 0.730500 1.159000
H116 H 0.041000 0.793000 1.308000
H117 H 0.384000 0.980000 0.649000
Br118 Br 0.267100 1.114660 0.525430
O119 O 0.459000 0.874830 0.777400
C120 C -0.299700 1.193630 0.988900
C121 C -0.221300 1.225400 0.869800
C122 C -0.064700 1.188680 0.773100
C123 C 0.019000 1.118480 0.791300
C124 C -0.053900 1.086270 0.913800
C125 C 0.036100 1.016040 0.936500
C126 C -0.172600 0.923370 1.307000
C127 C -0.257400 0.990210 1.284700
C128 C -0.192100 1.021160 1.161400
C129 C -0.300400 1.093420 1.139800
C130 C -0.214700 1.125590 1.011900
H131 H -0.429000 1.220000 1.055000
H132 H -0.271000 1.269500 0.841000
H133 H -0.041000 1.207000 0.692000
H134 H -0.384000 1.020000 1.351000
Br135 Br -0.267100 0.885340 1.474570
O136 O -0.459000 1.125170 1.222600
C137 C 1.299700 -0.193630 0.011100
C138 C 1.221300 -0.225400 0.130200
C139 C 1.064700 -0.188680 0.226900
C140 C 0.981000 -0.118480 0.208700
C141 C 1.053900 -0.086270 0.086200
C142 C 0.963900 -0.016040 0.063500
C143 C 1.172600 0.076630 -0.307000
C144 C 1.257400 0.009790 -0.284700
C145 C 1.192100 -0.021160 -0.161400
C146 C 1.300400 -0.093420 -0.139800
C147 C 1.214700 -0.125590 -0.011900
H148 H 1.429000 -0.220000 -0.055000
H149 H 1.271000 -0.269500 0.159000
H150 H 1.041000 -0.207000 0.308000
H151 H 1.384000 -0.020000 -0.351000
Br152 Br 1.267100 0.114660 -0.474570
O153 O 1.459000 -0.125170 -0.222600
C154 C 0.700300 0.193630 -0.011100
C155 C 0.778700 0.225400 -0.130200
C156 C 0.935300 0.188680 -0.226900
C157 C 1.019000 0.118480 -0.208700
C158 C 0.946100 0.086270 -0.086200
C159 C 1.036100 0.016040 -0.063500
C160 C 0.827400 -0.076630 0.307000
C161 C 0.742600 -0.009790 0.284700
C162 C 0.807900 0.021160 0.161400
C163 C 0.699600 0.093420 0.139800
C164 C 0.785300 0.125590 0.011900
H165 H 0.571000 0.220000 0.055000
H166 H 0.729000 0.269500 -0.159000
H167 H 0.959000 0.207000 -0.308000
H168 H 0.616000 0.020000 0.351000
Br169 Br 0.732900 -0.114660 0.474570
O170 O 0.541000 0.125170 0.222600
C171 C 1.299700 -0.193630 1.011100
C172 C 1.221300 -0.225400 1.130200
C173 C 1.064700 -0.188680 1.226900
C174 C 0.981000 -0.118480 1.208700
C175 C 1.053900 -0.086270 1.086200
C176 C 0.963900 -0.016040 1.063500
C177 C 1.172600 0.076630 0.693000
C178 C 1.257400 0.009790 0.715300
C179 C 1.192100 -0.021160 0.838600
C180 C 1.300400 -0.093420 0.860200
C181 C 1.214700 -0.125590 0.988100
H182 H 1.429000 -0.220000 0.945000
H183 H 1.271000 -0.269500 1.159000
H184 H 1.041000 -0.207000 1.308000
H185 H 1.384000 -0.020000 0.649000
Br186 Br 1.267100 0.114660 0.525430
O187 O 1.459000 -0.125170 0.777400
C188 C 0.700300 0.193630 0.988900
C189 C 0.778700 0.225400 0.869800
C190 C 0.935300 0.188680 0.773100
C191 C 1.019000 0.118480 0.791300
C192 C 0.946100 0.086270 0.913800
C193 C 1.036100 0.016040 0.936500
C194 C 0.827400 -0.076630 1.307000
C195 C 0.742600 -0.009790 1.284700
C196 C 0.807900 0.021160 1.161400
C197 C 0.699600 0.093420 1.139800
C198 C 0.785300 0.125590 1.011900
H199 H 0.571000 0.220000 1.055000
H200 H 0.729000 0.269500 0.841000
H201 H 0.959000 0.207000 0.692000
H202 H 0.616000 0.020000 1.351000
Br203 Br 0.732900 -0.114660 1.474570
O204 O 0.541000 0.125170 1.222600
C205 C 1.299700 0.806370 0.011100
C206 C 1.221300 0.774600 0.130200
C207 C 1.064700 0.811320 0.226900
C208 C 0.981000 0.881520 0.208700
C209 C 1.053900 0.913730 0.086200
C210 C 0.963900 0.983960 0.063500
C211 C 1.172600 1.076630 -0.307000
C212 C 1.257400 1.009790 -0.284700
C213 C 1.192100 0.978840 -0.161400
C214 C 1.300400 0.906580 -0.139800
C215 C 1.214700 0.874410 -0.011900
H216 H 1.429000 0.780000 -0.055000
H217 H 1.271000 0.730500 0.159000
H218 H 1.041000 0.793000 0.308000
H219 H 1.384000 0.980000 -0.351000
Br220 Br 1.267100 1.114660 -0.474570
O221 O 1.459000 0.874830 -0.222600
C222 C 0.700300 1.193630 -0.011100
C223 C 0.778700 1.225400 -0.130200
C224 C 0.935300 1.188680 -0.226900
C225 C 1.019000 1.118480 -0.208700
C226 C 0.946100 1.086270 -0.086200
C227 C 1.036100 1.016040 -0.063500
C228 C 0.827400 0.923370 0.307000
C229 C 0.742600 0.990210 0.284700
C230 C 0.807900 1.021160 0.161400
C231 C 0.699600 1.093420 0.139800
C232 C 0.785300 1.125590 0.011900
H233 H 0.571000 1.220000 0.055000
H234 H 0.729000 1.269500 -0.159000
H235 H 0.959000 1.207000 -0.308000
H236 H 0.616000 1.020000 0.351000
Br237 Br 0.732900 0.885340 0.474570
O238 O 0.541000 1.125170 0.222600
C239 C 1.299700 0.806370 1.011100
C240 C 1.221300 0.774600 1.130200
C241 C 1.064700 0.811320 1.226900
C242 C 0.981000 0.881520 1.208700
C243 C 1.053900 0.913730 1.086200
C244 C 0.963900 0.983960 1.063500
C245 C 1.172600 1.076630 0.693000
C246 C 1.257400 1.009790 0.715300
C247 C 1.192100 0.978840 0.838600
C248 C 1.300400 0.906580 0.860200
C249 C 1.214700 0.874410 0.988100
H250 H 1.429000 0.780000 0.945000
H251 H 1.271000 0.730500 1.159000
H252 H 1.041000 0.793000 1.308000
H253 H 1.384000 0.980000 0.649000
Br254 Br 1.267100 1.114660 0.525430
O255 O 1.459000 0.874830 0.777400
C256 C 0.700300 1.193630 0.988900
C257 C 0.778700 1.225400 0.869800
C258 C 0.935300 1.188680 0.773100
C259 C 1.019000 1.118480 0.791300
C260 C 0.946100 1.086270 0.913800
C261 C 1.036100 1.016040 0.936500
C262 C 0.827400 0.923370 1.307000
C263 C 0.742600 0.990210 1.284700
C264 C 0.807900 1.021160 1.161400
C265 C 0.699600 1.093420 1.139800
C266 C 0.785300 1.125590 1.011900
H267 H 0.571000 1.220000 1.055000
H268 H 0.729000 1.269500 0.841000
H269 H 0.959000 1.207000 0.692000
H270 H 0.616000 1.020000 1.351000
Br271 Br 0.732900 0.885340 1.474570
O272 O 0.541000 1.125170 1.222600
C273 C -0.299700 0.306370 0.488900
C274 C -0.221300 0.274600 0.369800
C275 C -0.064700 0.311320 0.273100
C276 C 0.019000 0.381520 0.291300
C277 C -0.053900 0.413730 0.413800
C278 C 0.036100 0.483960 0.436500
C279 C -0.172600 0.576630 0.807000
C280 C -0.257400 0.509790 0.784700
C281 C -0.192100 0.478840 0.661400
C282 C -0.300400 0.406580 0.639800
C283 C -0.214700 0.374410 0.511900
H284 H -0.429000 0.280000 0.555000
H285 H -0.271000 0.230500 0.341000
H286 H -0.041000 0.293000 0.192000
H287 H -0.384000 0.480000 0.851000
Br288 Br -0.267100 0.614660 0.974570
O289 O -0.459000 0.374830 0.722600
C290 C 0.299700 0.693630 0.511100
C291 C 0.221300 0.725400 0.630200
C292 C 0.064700 0.688680 0.726900
C293 C -0.019000 0.618480 0.708700
C294 C 0.053900 0.586270 0.586200
C295 C -0.036100 0.516040 0.563500
C296 C 0.172600 0.423370 0.193000
C297 C 0.257400 0.490210 0.215300
C298 C 0.192100 0.521160 0.338600
C299 C 0.300400 0.593420 0.360200
C300 C 0.214700 0.625590 0.488100
H301 H 0.429000 0.720000 0.445000
H302 H 0.271000 0.769500 0.659000
H303 H 0.041000 0.707000 0.808000
H304 H 0.384000 0.520000 0.149000
Br305 Br 0.267100 0.385340 0.025430
O306 O 0.459000 0.625170 0.277400
C307 C 0.700300 0.306370 0.488900
C308 C 0.778700 0.274600 0.369800
C309 C 0.935300 0.311320 0.273100
C310 C 1.019000 0.381520 0.291300
C311 C 0.946100 0.413730 0.413800
C312 C 1.036100 0.483960 0.436500
C313 C 0.827400 0.576630 0.807000
C314 C 0.742600 0.509790 0.784700
C315 C 0.807900 0.478840 0.661400
C316 C 0.699600 0.406580 0.639800
C317 C 0.785300 0.374410 0.511900
H318 H 0.571000 0.280000 0.555000
H319 H 0.729000 0.230500 0.341000
H320 H 0.959000 0.293000 0.192000
H321 H 0.616000 0.480000 0.851000
Br322 Br 0.732900 0.614660 0.974570
O323 O 0.541000 0.374830 0.722600
C324 C 1.299700 0.693630 0.511100
C325 C 1.221300 0.725400 0.630200
C326 C 1.064700 0.688680 0.726900
C327 C 0.981000 0.618480 0.708700
C328 C 1.053900 0.586270 0.586200
C329 C 0.963900 0.516040 0.563500
C330 C 1.172600 0.423370 0.193000
C331 C 1.257400 0.490210 0.215300
C332 C 1.192100 0.521160 0.338600
C333 C 1.300400 0.593420 0.360200
C334 C 1.214700 0.625590 0.488100
H335 H 1.429000 0.720000 0.445000
H336 H 1.271000 0.769500 0.659000
H337 H 1.041000 0.707000 0.808000
H338 H 1.384000 0.520000 0.149000
Br339 Br 1.267100 0.385340 0.025430
O340 O 1.459000 0.625170 0.277400

#END
