./LIBLEP_from_POSCAR.cif_generated_by_CrystalShift
_symmetry_cell_setting triclinic
_symmetry_space_group_name_H-M 'P 1'
loop_
_symmetry_equiv_pos_site_id
_symmetry_equiv_pos_as_xyz
1 x,y,z
_cell_length_a 8.397300
_cell_length_b 11.384000
_cell_length_c 17.987000
_cell_angle_alpha 90.000000
_cell_angle_beta 90.000000
_cell_angle_gamma 90.000000
_cell_volume 1719.464804
loop_
_atom_site_label
_atom_site_type_symbol
_atom_site_fract_x
_atom_site_fract_y
_atom_site_fract_z
H1 H -0.183000 -0.101300 0.071500
H2 H 0.749500 0.300400 0.979900
H3 H -0.330600 -0.237100 0.006600
H4 H 0.484700 0.292900 1.033800
H5 H -0.329000 -0.237000 -0.120800
H6 H 0.567500 0.623300 0.686900
H7 H 0.531900 0.535300 0.622000
H8 H 0.701200 0.592000 0.629400
H9 H -0.276200 -0.123000 -0.236700
H10 H -0.144900 -0.025200 -0.235000
H11 H 0.653500 0.335200 0.628100
H12 H -0.095700 -0.158000 -0.235500
H13 H 0.732200 0.183700 0.703500
H14 H -0.025800 0.031200 -0.119900
H15 H 0.784800 0.215400 0.827200
H16 H -0.186400 0.152700 0.069400
H17 H -0.103400 0.067500 0.125900
H18 H 0.690500 0.555000 0.797900
H19 H -0.027900 0.190500 0.108800
H20 H 0.135900 -0.054300 0.080800
H21 H 0.979900 0.493000 0.958700
H22 H 0.936500 0.554300 0.883400
H23 H 1.026800 0.433800 0.883100
H24 H 0.216600 -0.018700 0.006100
H25 H 0.716600 0.518700 0.993900
H26 H 0.635900 0.554300 0.919200
H27 H 0.526800 0.066200 0.116900
H28 H 0.436500 -0.054300 0.116600
H29 H 0.472100 0.309500 0.891200
H30 H 0.396600 0.432500 0.874100
H31 H 0.313600 0.347300 0.930600
H32 H 0.479900 0.007000 0.041300
H33 H 0.190500 -0.055000 0.202100
H34 H 0.474200 0.468800 1.119900
H35 H 0.284800 0.284600 0.172800
H36 H 0.232200 0.316300 0.296500
H37 H 0.404300 0.658000 1.235500
H38 H 0.355100 0.525200 1.235000
H39 H 0.223800 0.623000 1.236700
H40 H 0.153500 0.164800 0.371900
H41 H 0.171000 0.737000 1.120800
H42 H 0.201200 -0.092000 0.370600
H43 H 0.169400 0.737100 0.993400
H44 H 0.031900 -0.035300 0.378000
H45 H 0.317000 0.601300 0.928500
H46 H 0.067500 -0.123300 0.313100
H47 H 0.750500 0.699600 0.479900
H48 H -0.015300 0.207100 -0.033800
H49 H 1.015300 0.707100 0.533800
H50 H 0.249500 0.199600 0.020100
H51 H 0.932500 0.376700 0.186900
H52 H 0.968100 0.464700 0.122000
H53 H 0.798800 0.408000 0.129400
H54 H 0.683000 1.101300 0.571500
H55 H 0.830600 1.237100 0.506600
H56 H 0.846500 0.664800 0.128100
H57 H 0.829000 1.237000 0.379200
H58 H 0.767800 0.816300 0.203500
H59 H 0.776200 1.123000 0.263300
H60 H 0.715200 0.784600 0.327200
H61 H 0.644900 1.025200 0.265000
H62 H 0.595700 1.158000 0.264500
H63 H 0.809500 0.445000 0.297900
H64 H 0.525800 0.968800 0.380100
H65 H 0.686400 0.847300 0.569400
H66 H 0.520100 0.507000 0.458700
H67 H 0.563500 0.445700 0.383400
H68 H 0.473200 0.566200 0.383100
H69 H 0.603400 0.932500 0.625900
H70 H 0.783400 0.481300 0.493900
H71 H 0.864100 0.445700 0.419200
H72 H 0.527900 0.809500 0.608800
H73 H 0.364100 1.054300 0.580800
H74 H 1.027900 0.690500 0.391200
H75 H 1.103400 0.567500 0.374100
H76 H 1.186400 0.652700 0.430600
H77 H 0.283400 1.018700 0.506100
H78 H -0.026800 0.933800 0.616900
H79 H 1.025800 0.531200 0.619900
H80 H 0.063500 1.054300 0.616600
H81 H 0.020100 0.993000 0.541300
H82 H 1.095700 0.342000 0.735500
H83 H 1.144900 0.474800 0.735000
H84 H 1.276200 0.377000 0.736700
H85 H 0.309500 1.055000 0.702100
H86 H 1.329000 0.263000 0.620800
H87 H 0.215200 0.715400 0.672800
H88 H 1.330600 0.262900 0.493400
H89 H 0.267800 0.683700 0.796500
H90 H 1.183000 0.398700 0.428500
H91 H 0.346500 0.835200 0.871900
H92 H 0.250500 0.800400 0.520100
H93 H 0.298800 1.092000 0.870600
H94 H 0.515300 0.792900 0.466200
H95 H 0.468100 1.035300 0.878000
H96 H 0.432500 1.123300 0.813100
C97 C 0.388700 1.062100 0.843580
C98 C -0.269400 -0.182300 -0.018940
C99 C 0.336100 0.960900 0.794800
C100 C 0.323500 0.849700 0.822110
C101 C 0.611300 0.562100 0.656420
C102 C 0.277300 0.759000 0.776920
C103 C 1.180900 0.398890 0.480240
C104 C 0.244700 0.778110 0.703010
C105 C 1.269400 0.317700 0.518940
C106 C 0.255300 0.889850 0.673130
C107 C 0.301500 0.979120 0.720860
C108 C 1.267500 0.317400 0.595060
C109 C 0.211200 0.915240 0.593030
C110 C 0.052300 0.980100 0.591840
C111 C 1.172900 0.397600 0.717950
C112 C 1.176100 0.396400 0.633830
C113 C 1.087900 0.477310 0.593990
C114 C 0.335300 0.987630 0.550040
C115 C 1.088300 0.481410 0.517690
C116 C 1.085700 0.625550 0.411900
C117 C 0.490100 0.928360 0.524920
C118 C 0.585700 0.874450 0.588100
C119 C 0.990100 0.571640 0.475080
C120 C 0.835300 0.512370 0.449960
C121 C 0.552300 0.519900 0.408160
C122 C 0.588300 1.018590 0.482310
C123 C 0.587900 1.022690 0.406010
C124 C 0.711200 0.584760 0.406970
C125 C 0.676100 1.103600 0.366170
C126 C 0.672900 1.102400 0.282050
C127 C 0.801500 0.520880 0.279140
C128 C 0.755300 0.610150 0.326870
C129 C 0.744700 0.721890 0.296990
C130 C 0.767500 1.182600 0.404940
C131 C 0.777300 0.741000 0.223080
C132 C 0.769400 1.182300 0.481060
C133 C 0.823500 0.650300 0.177890
C134 C 0.680900 1.101110 0.519760
C135 C 0.836100 0.539100 0.205200
C136 C -0.267500 -0.182600 -0.095060
C137 C 0.888700 0.437900 0.156420
C138 C -0.180900 -0.101110 0.019760
C139 C 0.663900 0.460900 0.705200
C140 C 0.111300 -0.062100 0.343580
C141 C 0.676500 0.349700 0.677890
C142 C 0.319100 0.601110 0.980240
C143 C 0.230600 0.682300 1.018940
C144 C 0.163900 0.039100 0.294800
C145 C 0.176500 0.150300 0.322110
C146 C 0.232500 0.682600 1.095060
C147 C 0.222700 0.241000 0.276920
C148 C 0.327100 0.602400 1.217950
C149 C 0.255300 0.221890 0.203010
C150 C 0.323900 0.603600 1.133830
C151 C 0.244700 0.110150 0.173130
C152 C 0.198500 0.020880 0.220860
C153 C 0.412100 0.522690 1.093990
C154 C 0.288800 0.084760 0.093030
C155 C 0.447700 0.019900 0.091840
C156 C 0.411700 0.518590 1.017690
C157 C 0.414300 0.374450 0.911900
C158 C 0.509900 0.428360 0.975080
C159 C 0.164700 0.012370 0.050040
C160 C 0.664700 0.487630 0.949960
C161 C 0.947700 0.480100 0.908160
C162 C 0.009900 0.071640 0.024920
C163 C -0.085700 0.125550 0.088100
C164 C 0.788800 0.415240 0.906970
C165 C 0.698500 0.479120 0.779140
C166 C 0.744700 0.389850 0.826870
C167 C -0.088300 -0.018590 -0.017690
C168 C -0.087900 -0.022690 -0.093990
C169 C 0.755300 0.278110 0.796990
C170 C -0.176100 -0.103600 -0.133830
C171 C -0.172900 -0.102400 -0.217950
C172 C 0.722700 0.259000 0.723080
O173 O 0.939860 0.663630 0.524880
O174 O 0.313900 0.193980 0.054170
O175 O 0.186100 0.806020 0.554170
O176 O 0.439860 0.836370 0.475120
O177 O 0.560140 0.336370 1.024880
O178 O 0.060140 0.163630 -0.024880
O179 O 0.686100 0.693980 0.445830
O180 O 0.813900 0.306020 0.945830

#END
