./LIBMUF_from_POSCAR.cif_generated_by_CrystalShift
_symmetry_cell_setting triclinic
_symmetry_space_group_name_H-M 'P 1'
loop_
_symmetry_equiv_pos_site_id
_symmetry_equiv_pos_as_xyz
1 x,y,z
_cell_length_a 7.334300
_cell_length_b 20.351700
_cell_length_c 10.137500
_cell_angle_alpha 90.000000
_cell_angle_beta 95.735000
_cell_angle_gamma 90.000000
_cell_volume 1505.604842
loop_
_atom_site_label
_atom_site_type_symbol
_atom_site_fract_x
_atom_site_fract_y
_atom_site_fract_z
H1 H 0.586000 0.501900 0.786000
H2 H 0.577300 0.288400 0.842600
H3 H 0.914000 1.001900 0.714000
H4 H 0.769000 0.473200 1.119000
H5 H 0.879300 0.679400 1.135200
H6 H 0.731000 0.973200 0.381000
H7 H 1.011400 0.721200 1.334400
H8 H 0.620700 1.179400 0.364800
H9 H 0.488600 1.221200 0.165600
H10 H -0.091400 0.128900 -0.194600
H11 H -0.249700 0.176400 -0.249100
H12 H -0.291100 0.117600 -0.156600
H13 H 0.376100 1.039400 0.034500
H14 H 0.508700 0.997000 0.232700
H15 H -0.046400 0.251100 0.143100
H16 H 0.685400 0.860700 0.432600
H17 H 0.077300 0.211600 0.342600
H18 H 0.861200 0.820100 0.481200
H19 H 0.874600 0.879000 0.382800
H20 H 1.100700 0.932600 0.997300
H21 H -0.100700 0.067400 0.002700
H22 H 0.922700 0.788400 0.657400
H23 H 1.046400 0.748900 0.856900
H24 H 0.125400 0.121000 0.617200
H25 H 0.138800 0.179900 0.518800
H26 H 0.314600 0.139300 0.567400
H27 H 1.291100 0.882400 1.156600
H28 H 1.249700 0.823600 1.249100
H29 H 1.091400 0.871100 1.194600
H30 H 0.491300 0.003000 0.767300
H31 H 0.625400 0.379000 1.117200
H32 H 0.623900 -0.039400 0.965500
H33 H 0.638800 0.320100 1.018800
H34 H 0.814600 0.360700 1.067400
H35 H 0.511400 -0.221200 0.834400
H36 H 0.408600 0.371100 0.305400
H37 H 0.379300 -0.179400 0.635200
H38 H 0.269000 0.026800 0.619000
H39 H 0.086000 -0.001900 0.286000
H40 H 0.453600 0.248900 0.643100
H41 H 0.250300 0.323600 0.250900
H42 H 0.208900 0.382400 0.343400
H43 H 0.414000 0.498100 0.214000
H44 H 1.123900 0.539400 1.465500
H45 H 0.231000 0.526800 -0.119000
H46 H 0.991300 0.497000 1.267300
H47 H 0.120700 0.320600 -0.135200
H48 H -0.011400 0.278800 -0.334400
H49 H 0.591400 0.628900 0.694600
H50 H 0.749700 0.676400 0.749100
H51 H 0.791100 0.617600 0.656600
H52 H -0.123900 0.460600 -0.465500
H53 H 0.008700 0.503000 -0.267300
H54 H 0.546400 0.751100 0.356900
H55 H 0.185400 0.639300 -0.067400
H56 H 0.422700 0.711600 0.157400
H57 H 0.361200 0.679900 -0.018800
H58 H 0.374600 0.621000 -0.117200
H59 H 0.399300 0.432600 0.502700
H60 H 0.600700 0.567400 0.497300
C61 C 0.353300 0.591070 0.071600
C62 C 0.565900 0.596300 0.428300
C63 C 0.490500 0.572280 0.306400
C64 C 0.435700 0.614960 0.200500
C65 C 0.459100 0.682100 0.225000
C66 C 0.170500 0.440700 -0.052100
C67 C 0.082500 0.416310 -0.182200
C68 C 0.006200 0.457820 -0.280900
C69 C 0.533200 0.706030 0.344100
C70 C -0.073300 0.432710 -0.398900
C71 C 0.589000 0.662850 0.446500
C72 C -0.076600 0.366090 -0.416600
C73 C -0.006100 0.323900 -0.320300
C74 C 0.702200 0.650200 0.674700
C75 C 0.073300 0.348940 -0.202000
C76 C 0.993800 0.542180 1.280900
C77 C 1.073300 0.567290 1.398900
C78 C 1.076600 0.633910 1.416600
C79 C 0.411000 0.337150 0.553500
C80 C 0.466800 0.293970 0.655900
C81 C 0.426700 -0.151060 0.702000
C82 C 0.917500 0.583690 1.182200
C83 C 0.829500 0.559300 1.052100
C84 C 0.506100 -0.176100 0.820300
C85 C 0.576600 -0.133910 0.916600
C86 C 0.573300 -0.067290 0.898900
C87 C 1.202200 0.849800 1.174700
C88 C 0.493800 -0.042180 0.780900
C89 C 0.417500 -0.083690 0.682200
C90 C 0.329500 -0.059300 0.552100
C91 C 1.089000 0.837150 0.946500
C92 C 1.033200 0.793970 0.844100
C93 C 0.184800 0.136940 0.543200
C94 C 0.959100 0.817900 0.725000
C95 C 0.146700 0.091070 0.428400
C96 C 0.935700 0.885040 0.700500
C97 C 0.990500 0.927720 0.806400
C98 C 1.065900 0.903700 0.928300
C99 C -0.065900 0.096300 0.071700
C100 C 0.853300 0.908930 0.571600
C101 C 0.815200 0.863060 0.456800
C102 C 0.009500 0.072280 0.193600
C103 C 0.064300 0.114960 0.299500
C104 C 0.040900 0.182100 0.275000
C105 C 0.670500 1.059300 0.447900
C106 C 0.582500 1.083690 0.317800
C107 C 0.506200 1.042180 0.219100
C108 C -0.033200 0.206030 0.155900
C109 C 0.426700 1.067290 0.101100
C110 C -0.089000 0.162850 0.053500
C111 C 0.423400 1.133910 0.083400
C112 C 0.493900 1.176100 0.179700
C113 C -0.202200 0.150200 -0.174700
C114 C 0.573300 1.151060 0.298000
C115 C 1.006100 0.676100 1.320300
C116 C 0.926700 0.651060 1.202000
C117 C 0.540900 0.317900 0.775000
C118 C 0.297800 0.349800 0.325300
C119 C 0.509500 0.427720 0.693600
C120 C 0.434100 0.403700 0.571700
C121 C 0.684800 0.363060 1.043200
C122 C 0.646700 0.408930 0.928400
C123 C 0.315200 0.636940 -0.043200
C124 C 0.564300 0.385040 0.799500
N125 N 0.766400 0.496960 1.052300
N126 N 0.684700 0.470810 0.935040
N127 N 0.341100 1.160630 -0.044100
N128 N 0.733600 0.996960 0.447700
N129 N 0.815300 0.970810 0.564960
N130 N -0.158900 0.339370 -0.544100
N131 N 0.233600 0.503040 -0.052300
N132 N 0.315300 0.529190 0.064960
N133 N 0.658900 -0.160630 1.044100
N134 N 0.266400 0.003040 0.552300
N135 N 1.158900 0.660630 1.544100
N136 N 0.184700 0.029190 0.435040
O137 O 1.195700 0.621590 1.634900
O138 O 0.816400 0.593170 0.952730
O139 O 0.528300 0.493790 0.704020
O140 O 0.335600 0.308740 0.438520
O141 O 0.313500 1.219410 -0.051700
O142 O 0.304300 1.121590 -0.134900
O143 O 0.683600 1.093170 0.547270
O144 O 0.971700 0.993790 0.795980
O145 O 1.164400 0.808740 1.061480
O146 O -0.186500 0.280590 -0.551700
O147 O -0.195700 0.378410 -0.634900
O148 O 0.183600 0.406830 0.047270
O149 O 0.471700 0.506210 0.295980
O150 O 0.664400 0.691260 0.561480
O151 O 0.686500 -0.219410 1.051700
O152 O 0.695700 -0.121590 1.134900
O153 O 0.316400 -0.093170 0.452730
O154 O 0.028300 0.006210 0.204020
O155 O -0.164400 0.191260 -0.061480
O156 O 1.186500 0.719410 1.551700

#END
