
#######################################################################
#
#                 Cambridge Crystallographic Data Centre
#                                CCDC 
#
#######################################################################
#
# If this CIF has been generated from an entry in the Cambridge 
# Structural Database, then it will include bibliographic, chemical, 
# crystal, experimental, refinement or atomic coordinate data resulting 
# from the CCDC's data processing and validation procedures.
#
#######################################################################

data_LIBMUF
_symmetry_cell_setting           monoclinic
_symmetry_space_group_name_H-M   'P 21/n'
_symmetry_Int_Tables_number      14
_space_group_name_Hall           '-P 2yn'
loop_
_symmetry_equiv_pos_site_id
_symmetry_equiv_pos_as_xyz
1 x,y,z
2 1/2-x,1/2+y,1/2-z
3 -x,-y,-z
4 1/2+x,1/2-y,1/2+z
_cell_length_a                   7.3343(9)
_cell_length_b                   20.3517(9)
_cell_length_c                   10.1375(5)
_cell_angle_alpha                90
_cell_angle_beta                 95.735(7)
_cell_angle_gamma                90
_cell_volume                     1505.6
loop_
_atom_site_label
_atom_site_type_symbol
_atom_site_fract_x
_atom_site_fract_y
_atom_site_fract_z
N1 N 0.1847(3) 0.02919(10) 0.43504(17)
N2 N 0.2664(3) 0.00304(11) 0.5523(2)
N3 N 0.6589(4) -0.16063(19) 1.0441(3)
O1 O -0.1644(2) 0.19126(8) -0.06148(16)
O2 O 0.0283(3) 0.00621(8) 0.20402(17)
O3 O 0.3164(3) -0.09317(9) 0.45273(18)
O4 O 0.6957(4) -0.12159(18) 1.1349(3)
O5 O 0.6865(4) -0.21941(16) 1.0517(3)
C1 C -0.2022(4) 0.15020(13) -0.1747(2)
H1 H -0.0914 0.1289 -0.1946
H2 H -0.2497 0.1764 -0.2491
H3 H -0.2911 0.1176 -0.1566
C2 C -0.0890(3) 0.16285(12) 0.0535(2)
C3 C -0.0332(3) 0.20603(12) 0.1559(2)
H4 H -0.0464 0.2511 0.1431
C4 C 0.0409(3) 0.18210(12) 0.2750(2)
H5 H 0.0773 0.2116 0.3426
C5 C 0.0643(3) 0.11496(11) 0.2995(2)
C6 C 0.0095(3) 0.07228(11) 0.1936(2)
C7 C -0.0659(3) 0.09630(11) 0.0717(2)
H6 H -0.1007 0.0674 0.0027
C8 C 0.1467(3) 0.09107(12) 0.4284(2)
C9 C 0.1848(4) 0.13694(14) 0.5432(2)
H7 H 0.1254 0.1210 0.6172
H8 H 0.1388 0.1799 0.5188
H9 H 0.3146 0.1393 0.5674
C10 C 0.3295(3) -0.05930(13) 0.5521(2)
C11 C 0.4175(3) -0.08369(11) 0.6822(2)
C12 C 0.4938(3) -0.04218(12) 0.7809(2)
H10 H 0.4913 0.0030 0.7673
C13 C 0.5733(3) -0.06729(14) 0.8989(2)
H11 H 0.6239 -0.0394 0.9655
C14 C 0.5766(3) -0.13391(15) 0.9166(3)
C15 C 0.5061(4) -0.17610(14) 0.8203(3)
H12 H 0.5114 -0.2212 0.8344
C16 C 0.4267(4) -0.15106(13) 0.7020(3)
H13 H 0.3793 -0.1794 0.6352
H14 H 0.269(4) 0.0268(15) 0.619(3)
H15 H 0.086(4) -0.0019(15) 0.286(3)
N1 N 0.3153(3) 0.52919(10) 0.06496(17)
N2 N 0.2336(3) 0.50304(11) -0.0523(2)
N3 N -0.1589(4) 0.33937(19) -0.5441(3)
O1 O 0.6644(2) 0.69126(8) 0.56148(16)
O2 O 0.4717(3) 0.50621(8) 0.29598(17)
O3 O 0.1836(3) 0.40683(9) 0.04727(18)
O4 O -0.1957(4) 0.37841(18) -0.6349(3)
O5 O -0.1865(4) 0.28059(16) -0.5517(3)
C1 C 0.7022(4) 0.65020(13) 0.6747(2)
H1 H 0.5914 0.6289 0.6946
H2 H 0.7497 0.6764 0.7491
H3 H 0.7911 0.6176 0.6566
C2 C 0.5890(3) 0.66285(12) 0.4465(2)
C3 C 0.5332(3) 0.70603(12) 0.3441(2)
H4 H 0.5464 0.7511 0.3569
C4 C 0.4591(3) 0.68210(12) 0.2250(2)
H5 H 0.4227 0.7116 0.1574
C5 C 0.4357(3) 0.61496(11) 0.2005(2)
C6 C 0.4905(3) 0.57228(11) 0.3064(2)
C7 C 0.5659(3) 0.59630(11) 0.4283(2)
H6 H 0.6007 0.5674 0.4973
C8 C 0.3533(3) 0.59107(12) 0.0716(2)
C9 C 0.3152(4) 0.63694(14) -0.0432(2)
H7 H 0.3746 0.6210 -0.1172
H8 H 0.3612 0.6799 -0.0188
H9 H 0.1854 0.6393 -0.0674
C10 C 0.1705(3) 0.44070(13) -0.0521(2)
C11 C 0.0825(3) 0.41631(11) -0.1822(2)
C12 C 0.0062(3) 0.45782(12) -0.2809(2)
H10 H 0.0087 0.5030 -0.2673
C13 C -0.0733(3) 0.43271(14) -0.3989(2)
H11 H -0.1239 0.4606 -0.4655
C14 C -0.0766(3) 0.36609(15) -0.4166(3)
C15 C -0.0061(4) 0.32390(14) -0.3203(3)
H12 H -0.0114 0.2788 -0.3344
C16 C 0.0733(4) 0.34894(13) -0.2020(3)
H13 H 0.1207 0.3206 -0.1352
H14 H 0.231(4) 0.5268(15) -0.119(3)
H15 H 0.414(4) 0.4981(15) 0.214(3)
N1 N 0.8153(3) 0.97081(10) 0.56496(17)
N2 N 0.7336(3) 0.99696(11) 0.4477(2)
N3 N 0.3411(4) 1.16063(19) -0.0441(3)
O1 O 1.1644(2) 0.80874(8) 1.06148(16)
O2 O 0.9717(3) 0.99379(8) 0.79598(17)
O3 O 0.6836(3) 1.09317(9) 0.54727(18)
O4 O 0.3043(4) 1.12159(18) -0.1349(3)
O5 O 0.3135(4) 1.21941(16) -0.0517(3)
C1 C 1.2022(4) 0.84980(13) 1.1747(2)
H1 H 1.0914 0.8711 1.1946
H2 H 1.2497 0.8236 1.2491
H3 H 1.2911 0.8824 1.1566
C2 C 1.0890(3) 0.83715(12) 0.9465(2)
C3 C 1.0332(3) 0.79397(12) 0.8441(2)
H4 H 1.0464 0.7489 0.8569
C4 C 0.9591(3) 0.81790(12) 0.7250(2)
H5 H 0.9227 0.7884 0.6574
C5 C 0.9357(3) 0.88504(11) 0.7005(2)
C6 C 0.9905(3) 0.92772(11) 0.8064(2)
C7 C 1.0659(3) 0.90370(11) 0.9283(2)
H6 H 1.1007 0.9326 0.9973
C8 C 0.8533(3) 0.90893(12) 0.5716(2)
C9 C 0.8152(4) 0.86306(14) 0.4568(2)
H7 H 0.8746 0.8790 0.3828
H8 H 0.8612 0.8201 0.4812
H9 H 0.6854 0.8607 0.4326
C10 C 0.6705(3) 1.05930(13) 0.4479(2)
C11 C 0.5825(3) 1.08369(11) 0.3178(2)
C12 C 0.5062(3) 1.04218(12) 0.2191(2)
H10 H 0.5087 0.9970 0.2327
C13 C 0.4267(3) 1.06729(14) 0.1011(2)
H11 H 0.3761 1.0394 0.0345
C14 C 0.4234(3) 1.13391(15) 0.0834(3)
C15 C 0.4939(4) 1.17610(14) 0.1797(3)
H12 H 0.4886 1.2212 0.1656
C16 C 0.5733(4) 1.15106(13) 0.2980(3)
H13 H 0.6207 1.1794 0.3648
H14 H 0.731(4) 0.9732(15) 0.381(3)
H15 H 0.914(4) 1.0019(15) 0.714(3)
N1 N 0.6847(3) 0.47081(10) 0.93504(17)
N2 N 0.7664(3) 0.49696(11) 1.0523(2)
N3 N 1.1589(4) 0.66063(19) 1.5441(3)
O1 O 0.3356(2) 0.30874(8) 0.43852(16)
O2 O 0.5283(3) 0.49379(8) 0.70402(17)
O3 O 0.8164(3) 0.59317(9) 0.95273(18)
O4 O 1.1957(4) 0.62159(18) 1.6349(3)
O5 O 1.1865(4) 0.71941(16) 1.5517(3)
C1 C 0.2978(4) 0.34980(13) 0.3253(2)
H1 H 0.4086 0.3711 0.3054
H2 H 0.2503 0.3236 0.2509
H3 H 0.2089 0.3824 0.3434
C2 C 0.4110(3) 0.33715(12) 0.5535(2)
C3 C 0.4668(3) 0.29397(12) 0.6559(2)
H4 H 0.4536 0.2489 0.6431
C4 C 0.5409(3) 0.31790(12) 0.7750(2)
H5 H 0.5773 0.2884 0.8426
C5 C 0.5643(3) 0.38504(11) 0.7995(2)
C6 C 0.5095(3) 0.42772(11) 0.6936(2)
C7 C 0.4341(3) 0.40370(11) 0.5717(2)
H6 H 0.3993 0.4326 0.5027
C8 C 0.6467(3) 0.40893(12) 0.9284(2)
C9 C 0.6848(4) 0.36306(14) 1.0432(2)
H7 H 0.6254 0.3790 1.1172
H8 H 0.6388 0.3201 1.0188
H9 H 0.8146 0.3607 1.0674
C10 C 0.8295(3) 0.55930(13) 1.0521(2)
C11 C 0.9175(3) 0.58369(11) 1.1822(2)
C12 C 0.9938(3) 0.54218(12) 1.2809(2)
H10 H 0.9913 0.4970 1.2673
C13 C 1.0733(3) 0.56729(14) 1.3989(2)
H11 H 1.1239 0.5394 1.4655
C14 C 1.0766(3) 0.63391(15) 1.4166(3)
C15 C 1.0061(4) 0.67610(14) 1.3203(3)
H12 H 1.0114 0.7212 1.3344
C16 C 0.9267(4) 0.65106(13) 1.2020(3)
H13 H 0.8793 0.6794 1.1352
H14 H 0.769(4) 0.4732(15) 1.119(3)
H15 H 0.586(4) 0.5019(15) 0.786(3)

#END
