
#######################################################################
#
#                 Cambridge Crystallographic Data Centre
#                                CCDC 
#
#######################################################################
#
# If this CIF has been generated from an entry in the Cambridge 
# Structural Database, then it will include bibliographic, chemical, 
# crystal, experimental, refinement or atomic coordinate data resulting 
# from the CCDC's data processing and validation procedures.
#
#######################################################################

data_LIBVOI
_symmetry_cell_setting           monoclinic
_symmetry_space_group_name_H-M   'P 21'
_symmetry_Int_Tables_number      4
_space_group_name_Hall           'P 2yb'
loop_
_symmetry_equiv_pos_site_id
_symmetry_equiv_pos_as_xyz
1 x,y,z
2 -x,1/2+y,-z
_cell_length_a                   5.9309(3)
_cell_length_b                   5.6529(3)
_cell_length_c                   17.2697(10)
_cell_angle_alpha                90
_cell_angle_beta                 91.762(2)
_cell_angle_gamma                90
_cell_volume                     578.724
loop_
_atom_site_label
_atom_site_type_symbol
_atom_site_fract_x
_atom_site_fract_y
_atom_site_fract_z
S1 S 0.56083(8) 0.31170(10) 0.38339(2)
C1 C 0.4070(3) 0.5582(4) 0.35649(9)
C2 C 0.2053(3) 0.5703(5) 0.39530(10)
C3 C 0.1813(4) 0.3735(5) 0.44669(10)
C4 C 0.3567(4) 0.2239(5) 0.44633(10)
C5 C 0.4823(3) 0.7230(4) 0.29830(8)
N1 N 0.6657(3) 0.6796(3) 0.26232(7)
N2 N 0.7228(3) 0.8380(4) 0.20659(8)
C6 C 0.9074(3) 0.7892(4) 0.16153(8)
C7 C 1.0462(3) 0.5963(4) 0.17622(9)
C8 C 1.2314(3) 0.5638(4) 0.12975(9)
N3 N 1.3801(3) 0.3631(3) 0.14586(8)
O1 O 1.3376(2) 0.2294(3) 0.19990(7)
O2 O 1.5444(2) 0.3337(4) 0.10471(7)
C9 C 1.2832(3) 0.7141(4) 0.06886(9)
C10 C 1.1394(3) 0.9022(4) 0.05429(9)
C11 C 0.9536(3) 0.9439(4) 0.09963(9)
H1 H 0.0973 0.6932 0.3886
H2 H 0.0539 0.3512 0.4779
H3 H 0.3674 0.0852 0.4773
H4 H 0.3975 0.8618 0.2867
H5 H 0.6360 0.9917 0.1966
H6 H 1.0159 0.4890 0.2169
H7 H 1.4120 0.6882 0.0386
H8 H 1.1681 1.0055 0.0123
H9 H 0.8582 1.0757 0.0891
S1 S 0.43917(8) -0.18830(10) 0.61661(2)
C1 C 0.5930(3) 0.0582(4) 0.64351(9)
C2 C 0.7947(3) 0.0703(5) 0.60470(10)
C3 C 0.8187(4) -0.1265(5) 0.55331(10)
C4 C 0.6433(4) -0.2761(5) 0.55367(10)
C5 C 0.5177(3) 0.2230(4) 0.70170(8)
N1 N 0.3343(3) 0.1796(3) 0.73768(7)
N2 N 0.2772(3) 0.3380(4) 0.79341(8)
C6 C 0.0926(3) 0.2892(4) 0.83847(8)
C7 C -0.0462(3) 0.0963(4) 0.82378(9)
C8 C -0.2314(3) 0.0638(4) 0.87025(9)
N3 N -0.3801(3) -0.1369(3) 0.85414(8)
O1 O -0.3376(2) -0.2706(3) 0.80010(7)
O2 O -0.5444(2) -0.1663(4) 0.89529(7)
C9 C -0.2832(3) 0.2141(4) 0.93114(9)
C10 C -0.1394(3) 0.4022(4) 0.94571(9)
C11 C 0.0464(3) 0.4439(4) 0.90037(9)
H1 H 0.9027 0.1932 0.6114
H2 H 0.9461 -0.1488 0.5221
H3 H 0.6326 -0.4148 0.5227
H4 H 0.6025 0.3618 0.7133
H5 H 0.3640 0.4917 0.8034
H6 H -0.0159 -0.0110 0.7831
H7 H -0.4120 0.1882 0.9614
H8 H -0.1681 0.5055 0.9877
H9 H 0.1418 0.5757 0.9109

#END
