./LIBZON_from_POSCAR.cif_generated_by_CrystalShift
_symmetry_cell_setting triclinic
_symmetry_space_group_name_H-M 'P 1'
loop_
_symmetry_equiv_pos_site_id
_symmetry_equiv_pos_as_xyz
1 x,y,z
_cell_length_a 9.348800
_cell_length_b 9.504000
_cell_length_c 13.036000
_cell_angle_alpha 74.370000
_cell_angle_beta 72.819000
_cell_angle_gamma 84.648000
_cell_volume 1065.538414
loop_
_atom_site_label
_atom_site_type_symbol
_atom_site_fract_x
_atom_site_fract_y
_atom_site_fract_z
H1 H 1.403900 0.394100 -0.063200
H2 H 1.417000 0.564700 -0.102000
H3 H 0.720600 0.947600 0.558700
H4 H 0.143500 0.474500 0.433000
H5 H 0.861000 1.029700 0.034300
H6 H 0.375100 0.559200 0.504000
H7 H 0.605900 0.755900 0.723200
H8 H 0.776500 0.733300 0.667300
H9 H 0.771600 1.192500 0.141700
H10 H 1.106900 0.328200 0.040700
H11 H 1.315600 0.670600 0.048500
H12 H 0.453200 0.097500 0.816200
H13 H 0.097600 0.213800 0.886400
H14 H 0.642000 0.515100 0.711900
H15 H 0.546300 0.594000 0.631700
H16 H 0.076900 0.782700 0.425300
H17 H 0.712700 1.115100 0.331400
H18 H 0.894700 0.020200 0.727800
H19 H -0.131900 0.308300 0.793900
H20 H 0.482600 0.293400 0.663500
H21 H 0.130400 0.681500 0.606800
H22 H 0.924100 0.348000 0.197200
H23 H 0.075900 0.652000 0.802800
H24 H 0.869600 0.318500 0.393200
H25 H 1.131900 0.691700 0.206100
H26 H 0.517400 0.706600 0.336500
H27 H 0.923100 0.217300 0.574700
H28 H 0.105300 0.979800 0.272200
H29 H 0.902400 0.786200 0.113600
H30 H 0.287300 -0.115100 0.668600
H31 H 0.624900 0.440800 0.496000
H32 H 0.453700 0.406000 0.368300
H33 H 0.358000 0.484900 0.288100
H34 H 0.856500 0.525500 0.567000
H35 H 0.546800 0.902500 0.183800
H36 H 1.302800 0.486600 -0.134600
H37 H -0.315600 0.329400 0.951500
H38 H -0.403900 0.605900 1.063200
H39 H -0.106900 0.671800 0.959300
H40 H -0.417000 0.435300 1.102000
H41 H 0.228400 -0.192500 0.858300
H42 H -0.302800 0.513400 1.134600
H43 H 0.223500 0.266700 0.332700
H44 H 0.394100 0.244100 0.276800
H45 H 0.433800 0.108800 0.438200
H46 H 0.139000 -0.029700 0.965700
H47 H 0.279400 0.052400 0.441300
H48 H 0.566200 0.891200 0.561800
C49 C 0.159600 0.003300 0.888960
C50 C -0.349400 0.515500 1.077700
C51 C 0.322600 0.262600 0.342920
C52 C 0.214700 -0.094800 0.824430
C53 C -0.112300 0.597900 0.926140
C54 C 0.215650 0.320260 0.548580
C55 C -0.236600 0.394500 0.921900
C56 C 1.349400 0.484500 -0.077700
C57 C 0.762300 0.548600 0.547010
C58 C 0.452000 0.877800 0.231920
C59 C 0.722300 0.418400 0.511170
C60 C 0.355800 0.410300 0.355960
C61 C 1.007100 0.522040 0.219650
C62 C 0.834310 0.805350 0.272220
C63 C 0.742500 0.819500 0.452050
C64 C 0.891400 0.528590 0.322970
C65 C 0.774070 0.902540 0.339410
C66 C 0.865600 0.851200 0.157620
C67 C 0.248900 -0.049100 0.711600
C68 C 0.671700 0.042400 0.786980
C69 C 0.828300 0.194500 0.623540
C70 C 0.188200 0.923700 0.284980
C71 C 0.705900 0.279890 0.603310
C72 C 1.126300 0.617900 0.172930
C73 C 0.433500 0.760600 0.323410
C74 C 0.836000 0.410100 0.403920
C75 C -0.230900 0.502700 0.973140
C76 C 1.002600 0.413600 0.167810
C77 C -0.002600 0.586400 0.832190
C78 C 1.230900 0.497300 0.026860
C79 C 0.566500 0.239400 0.676590
C80 C 0.164000 0.589900 0.596080
C81 C 0.811800 0.076300 0.715020
C82 C -0.126300 0.382100 0.827070
C83 C 0.751100 1.049100 0.288400
C84 C 0.294100 0.720110 0.396690
C85 C 0.644200 0.589700 0.644040
C86 C 0.171700 0.805500 0.376460
C87 C 0.328300 0.957600 0.213020
C88 C 0.548000 0.122200 0.768080
C89 C 0.134400 0.148800 0.842380
C90 C 1.236600 0.605500 0.078100
C91 C 0.225930 0.097460 0.660590
C92 C 1.112300 0.402100 0.073860
C93 C 0.108600 0.471410 0.677030
C94 C 0.785300 1.094800 0.175570
C95 C 0.257500 0.180500 0.547950
C96 C 0.677400 0.737400 0.657080
C97 C 0.165690 0.194650 0.727780
C98 C -0.007100 0.477960 0.780350
C99 C 0.840400 0.996700 0.111040
C100 C 0.277700 0.581600 0.488830
C101 C 0.670000 0.863600 0.557570
C102 C 0.237700 0.451400 0.452990
C103 C 0.330000 0.136400 0.442430
C104 C 0.784350 0.679740 0.451420
N105 N 0.155790 0.332740 0.657050
N106 N 0.844210 0.667260 0.342950
Cl107 Cl 0.648680 -0.102870 0.904110
Cl108 Cl 0.351320 1.102870 0.095890

#END
