
#######################################################################
#
#                 Cambridge Crystallographic Data Centre
#                                CCDC 
#
#######################################################################
#
# If this CIF has been generated from an entry in the Cambridge 
# Structural Database, then it will include bibliographic, chemical, 
# crystal, experimental, refinement or atomic coordinate data resulting 
# from the CCDC's data processing and validation procedures.
#
#######################################################################

data_LICDUY
_symmetry_cell_setting           triclinic
_symmetry_space_group_name_H-M   'P -1'
_symmetry_Int_Tables_number      2
_space_group_name_Hall           '-P 1'
loop_
_symmetry_equiv_pos_site_id
_symmetry_equiv_pos_as_xyz
1 x,y,z
2 -x,-y,-z
_cell_length_a                   7.0934(15)
_cell_length_b                   8.9452(19)
_cell_length_c                   15.861(3)
_cell_angle_alpha                89.387(4)
_cell_angle_beta                 83.801(4)
_cell_angle_gamma                66.970(4)
_cell_volume                     920.236
loop_
_atom_site_label
_atom_site_type_symbol
_atom_site_fract_x
_atom_site_fract_y
_atom_site_fract_z
Cl1 Cl 1.58161(9) 0.59427(7) 0.25748(4)
N1 N 1.0908(3) 0.3138(2) 0.22209(11)
N2 N 1.1006(3) 0.2781(2) 0.30864(11)
C1 C 0.9955(3) 0.1866(3) 0.32467(14)
C2 C 0.9114(3) 0.1595(3) 0.25102(14)
O1 O 0.9364(2) 0.25835(19) 0.10863(9)
C3 C 0.9729(3) 0.2469(3) 0.18496(14)
C4 C 1.1916(3) 0.4111(3) 0.18588(14)
C5 C 1.3267(3) 0.4455(3) 0.23225(14)
H1 H 1.3530 0.4025 0.2854
C6 C 1.4210(3) 0.5447(3) 0.19769(15)
C7 C 1.3884(4) 0.6084(3) 0.11807(15)
H2 H 1.4531 0.6752 0.0960
C8 C 1.2566(4) 0.5701(3) 0.07206(15)
H3 H 1.2349 0.6098 0.0180
C9 C 1.1572(3) 0.4736(3) 0.10560(15)
H4 H 1.0673 0.4504 0.0746
C10 C 0.9738(4) 0.1313(3) 0.41276(14)
H5 H 1.0461 0.1717 0.4482
H6 H 1.0309 0.0146 0.4124
H7 H 0.8305 0.1718 0.4344
C11 C 0.7898(3) 0.0710(3) 0.23816(13)
C12 C 0.7597(3) -0.0418(3) 0.30248(13)
C13 C 0.9243(3) -0.1869(3) 0.31334(14)
H8 H 1.0506 -0.2116 0.2809
C14 C 0.9001(4) -0.2953(3) 0.37277(15)
H9 H 1.0107 -0.3928 0.3791
C15 C 0.7147(3) -0.2608(3) 0.42263(14)
C16 C 0.5507(3) -0.1149(3) 0.41121(15)
H10 H 0.4249 -0.0898 0.4442
C17 C 0.5719(3) -0.0066(3) 0.35165(14)
H11 H 0.4605 0.0898 0.3445
C18 C 0.6905(4) -0.3790(3) 0.48727(16)
H12 H 0.7832 -0.4875 0.4692
H13 H 0.5512 -0.3722 0.4925
H14 H 0.7216 -0.3526 0.5412
N3 N 0.7070(3) 0.0853(2) 0.16632(11)
H15 H 0.7201 0.1583 0.1333
C19 C 0.5967(4) -0.0062(3) 0.13588(14)
H16 H 0.4640 0.0681 0.1207
H17 H 0.5726 -0.0740 0.1804
C20 C 0.7210(4) -0.1114(3) 0.05936(15)
H18 H 0.8491 -0.1922 0.0751
H19 H 0.6440 -0.1671 0.0363
O2 O 0.7623(3) -0.0073(2) -0.00186(11)
H20 H 0.865(6) -0.066(4) -0.031(2)
Cl1 Cl -0.58161(9) 0.40573(7) 0.74252(4)
N1 N -0.0908(3) 0.6862(2) 0.77791(11)
N2 N -0.1006(3) 0.7219(2) 0.69136(11)
C1 C 0.0045(3) 0.8134(3) 0.67533(14)
C2 C 0.0886(3) 0.8405(3) 0.74898(14)
O1 O 0.0636(2) 0.74165(19) 0.89137(9)
C3 C 0.0271(3) 0.7531(3) 0.81504(14)
C4 C -0.1916(3) 0.5889(3) 0.81412(14)
C5 C -0.3267(3) 0.5545(3) 0.76775(14)
H1 H -0.3530 0.5975 0.7146
C6 C -0.4210(3) 0.4553(3) 0.80231(15)
C7 C -0.3884(4) 0.3916(3) 0.88193(15)
H2 H -0.4531 0.3248 0.9040
C8 C -0.2566(4) 0.4299(3) 0.92794(15)
H3 H -0.2349 0.3902 0.9820
C9 C -0.1572(3) 0.5264(3) 0.89440(15)
H4 H -0.0673 0.5496 0.9254
C10 C 0.0262(4) 0.8687(3) 0.58724(14)
H5 H -0.0461 0.8283 0.5518
H6 H -0.0309 0.9854 0.5876
H7 H 0.1695 0.8282 0.5656
C11 C 0.2102(3) 0.9290(3) 0.76184(13)
C12 C 0.2403(3) 1.0418(3) 0.69752(13)
C13 C 0.0757(3) 1.1869(3) 0.68666(14)
H8 H -0.0506 1.2116 0.7191
C14 C 0.0999(4) 1.2953(3) 0.62723(15)
H9 H -0.0107 1.3928 0.6209
C15 C 0.2853(3) 1.2608(3) 0.57737(14)
C16 C 0.4493(3) 1.1149(3) 0.58879(15)
H10 H 0.5751 1.0898 0.5558
C17 C 0.4281(3) 1.0066(3) 0.64835(14)
H11 H 0.5395 0.9102 0.6555
C18 C 0.3095(4) 1.3790(3) 0.51273(16)
H12 H 0.2168 1.4875 0.5308
H13 H 0.4488 1.3722 0.5075
H14 H 0.2784 1.3526 0.4588
N3 N 0.2930(3) 0.9147(2) 0.83368(11)
H15 H 0.2799 0.8417 0.8667
C19 C 0.4033(4) 1.0062(3) 0.86412(14)
H16 H 0.5360 0.9319 0.8793
H17 H 0.4274 1.0740 0.8196
C20 C 0.2790(4) 1.1114(3) 0.94064(15)
H18 H 0.1509 1.1922 0.9249
H19 H 0.3560 1.1671 0.9637
O2 O 0.2377(3) 1.0073(2) 1.00186(11)
H20 H 0.135(6) 1.066(4) 1.031(2)

#END
