./LICGAG_from_POSCAR.cif_generated_by_CrystalShift
_symmetry_cell_setting triclinic
_symmetry_space_group_name_H-M 'P 1'
loop_
_symmetry_equiv_pos_site_id
_symmetry_equiv_pos_as_xyz
1 x,y,z
_cell_length_a 7.182500
_cell_length_b 7.207700
_cell_length_c 17.304800
_cell_angle_alpha 90.000000
_cell_angle_beta 91.068000
_cell_angle_gamma 90.000000
_cell_volume 895.701843
loop_
_atom_site_label
_atom_site_type_symbol
_atom_site_fract_x
_atom_site_fract_y
_atom_site_fract_z
H1 H 0.314500 1.724100 -0.313100
H2 H 0.424400 0.811700 0.520100
H3 H 0.788100 0.383800 0.541700
H4 H 0.076300 0.863000 -0.246100
H5 H 0.882400 0.687500 0.591500
H6 H -0.226000 0.857500 -0.199200
H7 H 0.611000 1.382600 0.755600
H8 H -0.312300 0.637900 -0.108200
H9 H 0.472100 1.225000 0.784900
H10 H -0.090500 0.429900 -0.059200
H11 H 0.685500 1.224100 0.813100
H12 H 0.314500 0.724100 -0.313100
H13 H 0.527900 0.725000 -0.284900
H14 H 0.389000 0.882600 -0.255600
H15 H 1.090500 0.929900 0.559200
H16 H 0.117600 0.187500 -0.091500
H17 H 1.312300 1.137900 0.608200
H18 H 1.226000 1.357500 0.699200
H19 H 0.211900 -0.116200 -0.041700
H20 H 0.923700 1.363000 0.746100
H21 H 0.575600 0.311700 -0.020100
H22 H 0.575600 0.188300 0.479900
H23 H -0.226000 -0.357500 0.300800
H24 H 0.424400 0.688300 1.020100
H25 H 0.788100 1.116200 1.041700
H26 H 0.882400 0.812500 1.091500
H27 H 0.923700 -0.863000 0.246100
H28 H 0.611000 0.117400 1.255600
H29 H 1.226000 -0.857500 0.199200
H30 H 0.472100 0.275000 1.284900
H31 H 1.312300 -0.637900 0.108200
H32 H 0.685500 0.275900 1.313100
H33 H 1.090500 -0.429900 0.059200
H34 H 1.090500 0.570100 1.059200
H35 H 0.685500 -0.724100 0.313100
H36 H 0.472100 -0.725000 0.284900
H37 H 0.611000 -0.882600 0.255600
H38 H 1.312300 0.362100 1.108200
H39 H 0.882400 -0.187500 0.091500
H40 H 1.226000 0.142500 1.199200
H41 H 0.923700 0.137000 1.246100
H42 H 0.788100 0.116200 0.041700
H43 H -0.312300 -0.137900 0.391800
H44 H 0.424400 -0.311700 0.020100
H45 H 0.211900 0.616200 0.458300
H46 H 0.575600 1.311700 0.979900
H47 H 0.211900 0.883800 0.958300
H48 H 0.117600 1.187500 0.908500
H49 H 0.389000 1.882600 0.744400
H50 H 0.076300 0.863000 0.753900
H51 H 0.527900 1.725000 0.715100
H52 H -0.226000 0.857500 0.800800
H53 H 0.314500 1.724100 0.686900
H54 H -0.312300 0.637900 0.891800
H55 H -0.090500 1.429900 0.940800
H56 H -0.090500 0.429900 0.940800
H57 H -0.312300 1.637900 0.891800
H58 H 0.314500 0.724100 0.686900
H59 H 0.527900 0.725000 0.715100
H60 H 0.389000 0.882600 0.744400
H61 H -0.226000 1.857500 0.800800
H62 H 0.117600 0.187500 0.908500
H63 H 0.076300 1.863000 0.753900
H64 H -0.090500 0.070100 0.440800
H65 H 0.211900 -0.116200 0.958300
H66 H 0.424400 0.688300 0.020100
H67 H 0.575600 0.311700 0.979900
H68 H 0.788100 1.116200 0.041700
H69 H 0.117600 0.312500 0.408500
H70 H 0.882400 0.812500 0.091500
H71 H 0.611000 0.117400 0.255600
H72 H 0.472100 0.275000 0.284900
H73 H 0.923700 -0.863000 1.246100
H74 H 0.685500 0.275900 0.313100
H75 H 1.226000 -0.857500 1.199200
H76 H 1.090500 0.570100 0.059200
H77 H 1.312300 -0.637900 1.108200
H78 H 1.312300 0.362100 0.108200
H79 H 1.090500 -0.429900 1.059200
H80 H 1.226000 0.142500 0.199200
H81 H 0.685500 -0.724100 1.313100
H82 H 0.472100 -0.725000 1.284900
H83 H 0.611000 -0.882600 1.255600
H84 H 0.923700 0.137000 0.246100
H85 H 0.882400 -0.187500 1.091500
H86 H 0.314500 -0.224100 0.186900
H87 H 0.527900 -0.225000 0.215100
H88 H 0.788100 0.116200 1.041700
H89 H 0.575600 1.311700 -0.020100
H90 H 0.424400 -0.311700 1.020100
H91 H 0.211900 0.883800 -0.041700
H92 H 0.389000 -0.382600 0.244400
H93 H 0.117600 1.187500 -0.091500
H94 H 0.389000 1.882600 -0.255600
H95 H 0.527900 1.725000 -0.284900
H96 H 0.076300 1.863000 -0.246100
H97 H 0.076300 -0.363000 0.253900
H98 H -0.226000 1.857500 -0.199200
H99 H -0.090500 1.429900 -0.059200
H100 H -0.312300 1.637900 -0.108200
C101 C -0.055730 1.518060 -0.097130
C102 C -0.187970 1.641900 -0.125880
C103 C 0.399800 1.751400 -0.269730
C104 C -0.136890 1.770500 -0.180330
C105 C 0.043360 1.774680 -0.207980
C106 C 0.175360 1.649910 -0.179930
C107 C 0.234900 1.237830 -0.076350
C108 C 0.126350 1.520750 -0.122740
C109 C 0.372170 1.117400 -0.037390
C110 C 0.329170 0.931130 -0.024780
C111 C 0.234900 0.262170 0.423650
C112 C 0.544700 1.185100 -0.012030
C113 C 0.455300 -0.185100 1.012030
C114 C 0.670830 0.068870 1.024780
C115 C 0.627830 -0.117400 1.037390
C116 C 0.873650 0.479250 0.122740
C117 C 0.824640 0.350090 0.179930
C118 C 0.956640 0.225320 0.207980
C119 C 0.765100 -0.237830 1.076350
C120 C 1.136890 0.229500 0.180330
C121 C 0.600200 -0.751400 1.269730
C122 C 1.187970 0.358100 0.125880
C123 C 1.055730 -0.518060 1.097130
C124 C 1.055730 0.481940 0.097130
C125 C 1.187970 -0.641900 1.125880
C126 C 0.600200 0.248600 0.269730
C127 C 1.136890 -0.770500 1.180330
C128 C 0.956640 -0.774680 1.207980
C129 C 0.824640 -0.649910 1.179930
C130 C 0.765100 0.762170 0.076350
C131 C 0.873650 -0.520750 1.122740
C132 C 0.627830 0.882600 0.037390
C133 C 0.670830 1.068870 0.024780
C134 C 0.372170 0.382600 0.462610
C135 C 0.455300 0.814900 0.012030
C136 C 0.544700 0.185100 0.987970
C137 C 0.399800 -0.251400 0.230270
C138 C 0.329170 -0.068870 0.975220
C139 C 0.126350 1.520750 0.877260
C140 C 0.175360 1.649910 0.820070
C141 C 0.043360 1.774680 0.792020
C142 C 0.372170 0.117400 0.962610
C143 C -0.136890 1.770500 0.819670
C144 C 0.234900 0.237830 0.923650
C145 C -0.187970 1.641900 0.874120
C146 C 0.399800 0.751400 0.730270
C147 C -0.055730 1.518060 0.902870
C148 C -0.055730 0.518060 0.902870
C149 C 0.399800 1.751400 0.730270
C150 C -0.187970 0.641900 0.874120
C151 C -0.136890 0.770500 0.819670
C152 C 0.043360 0.774680 0.792020
C153 C 0.234900 1.237830 0.923650
C154 C 0.175360 0.649910 0.820070
C155 C 0.372170 1.117400 0.962610
C156 C 0.329170 0.931130 0.975220
C157 C 0.126350 0.520750 0.877260
C158 C 0.544700 1.185100 0.987970
C159 C 0.329170 0.568870 0.475220
C160 C -0.055730 -0.018060 0.402870
C161 C 0.455300 -0.185100 0.012030
C162 C 0.873650 0.479250 1.122740
C163 C 0.824640 0.350090 1.179930
C164 C 0.956640 0.225320 1.207980
C165 C 0.670830 0.068870 0.024780
C166 C 1.136890 0.229500 1.180330
C167 C 0.627830 -0.117400 0.037390
C168 C 1.187970 0.358100 1.125880
C169 C 0.765100 -0.237830 0.076350
C170 C 1.055730 0.481940 1.097130
C171 C 0.600200 -0.751400 0.269730
C172 C 0.600200 0.248600 1.269730
C173 C 1.055730 -0.518060 0.097130
C174 C 1.187970 -0.641900 0.125880
C175 C 1.136890 -0.770500 0.180330
C176 C 0.765100 0.762170 1.076350
C177 C 0.956640 -0.774680 0.207980
C178 C 0.627830 0.882600 1.037390
C179 C 0.670830 1.068870 1.024780
C180 C 0.824640 -0.649910 0.179930
C181 C 0.455300 0.814900 1.012030
C182 C 0.873650 -0.520750 0.122740
C183 C -0.187970 -0.141900 0.374120
C184 C 0.544700 0.314900 0.487970
C185 C 0.873650 1.020750 0.622740
C186 C 0.824640 1.149910 0.679930
C187 C 0.956640 1.274680 0.707980
C188 C 0.544700 0.185100 -0.012030
C189 C 1.136890 1.270500 0.680330
C190 C 0.329170 -0.068870 -0.024780
C191 C 1.187970 1.141900 0.625880
C192 C 0.372170 0.117400 -0.037390
C193 C 1.055730 1.018060 0.597130
C194 C 0.234900 0.237830 -0.076350
C195 C 0.600200 1.251400 0.769730
C196 C 0.399800 0.751400 -0.269730
C197 C -0.055730 0.518060 -0.097130
C198 C -0.187970 0.641900 -0.125880
C199 C 0.765100 0.737830 0.576350
C200 C -0.136890 0.770500 -0.180330
C201 C 0.627830 0.617400 0.537390
C202 C 0.670830 0.431130 0.524780
C203 C 0.043360 0.774680 -0.207980
C204 C 0.455300 0.685100 0.512030
C205 C 0.175360 0.649910 -0.179930
C206 C -0.136890 -0.270500 0.319670
C207 C 0.126350 0.520750 -0.122740
C208 C 0.126350 -0.020750 0.377260
C209 C 0.175360 -0.149910 0.320070
C210 C 0.043360 -0.274680 0.292020
N211 N 0.268450 1.407490 -0.090410
N212 N 0.731550 0.907490 0.590410
N213 N 0.268450 0.407490 -0.090410
N214 N 0.731550 0.592510 1.090410
N215 N 0.731550 -0.407490 0.090410
N216 N 0.268450 1.407490 0.909590
N217 N 0.268450 0.407490 0.909590
N218 N 0.731550 0.592510 0.090410
N219 N 0.731550 -0.407490 1.090410
N220 N 0.268450 0.092510 0.409590
O221 O 0.646590 -0.638830 1.205170
O222 O 0.353410 1.638830 -0.205170
O223 O 0.353410 0.638830 0.794830
O224 O 0.646590 0.361170 0.205170
O225 O 0.646590 -0.638830 0.205170
O226 O 0.353410 1.638830 0.794830
O227 O 0.353410 0.638830 -0.205170
O228 O 0.646590 0.361170 1.205170
O229 O 0.646590 1.138830 0.705170
O230 O 0.353410 -0.138830 0.294830

#END
