
#######################################################################
#
#                 Cambridge Crystallographic Data Centre
#                                CCDC 
#
#######################################################################
#
# If this CIF has been generated from an entry in the Cambridge 
# Structural Database, then it will include bibliographic, chemical, 
# crystal, experimental, refinement or atomic coordinate data resulting 
# from the CCDC's data processing and validation procedures.
#
#######################################################################

data_LICHOV
_symmetry_cell_setting           orthorhombic
_symmetry_space_group_name_H-M   'P n m a'
_symmetry_Int_Tables_number      62
_space_group_name_Hall           '-P 2ac 2n'
loop_
_symmetry_equiv_pos_site_id
_symmetry_equiv_pos_as_xyz
1 x,y,z
2 1/2-x,-y,1/2+z
3 1/2+x,1/2-y,1/2-z
4 -x,1/2+y,-z
5 -x,-y,-z
6 1/2+x,y,1/2-z
7 1/2-x,1/2+y,1/2+z
8 x,1/2-y,z
_cell_length_a                   8.2526(6)
_cell_length_b                   6.5210(2)
_cell_length_c                   19.7707(2)
_cell_angle_alpha                90
_cell_angle_beta                 90
_cell_angle_gamma                90
_cell_volume                     1063.96
loop_
_atom_site_label
_atom_site_type_symbol
_atom_site_fract_x
_atom_site_fract_y
_atom_site_fract_z
O1 O 0.55153(15) 0.7500 0.35591(6)
O2 O 0.81203(14) 0.7500 0.39178(6)
O3 O 0.74913(15) 0.7500 0.59367(6)
O4 O 0.74354(16) 0.7500 0.72455(7)
N1 N 0.61998(17) 0.7500 0.46941(7)
C1 C 0.4690(2) 0.7500 0.50134(9)
C2 C 0.46311(19) 0.7500 0.57333(8)
C3 C 0.3110(2) 0.7500 0.60528(9)
C4 C 0.1685(2) 0.7500 0.56890(9)
C5 C 0.1762(2) 0.7500 0.49842(9)
C6 C 0.3232(2) 0.7500 0.46504(9)
C7 C 0.6504(2) 0.7500 0.40150(8)
C8 C 0.8622(2) 0.7500 0.32124(8)
C9 C 1.0447(2) 0.7500 0.32077(10)
C10 C 0.6094(2) 0.7500 0.61591(8)
C11 C 0.5904(2) 0.7500 0.69238(9)
H1 H 0.7053 0.7500 0.4961
H2 H 0.3062 0.7500 0.6533
H3 H 0.0668 0.7500 0.5914
H4 H 0.0786 0.7500 0.4729
H5 H 0.3255 0.7500 0.4170
H6 H 0.8202 0.8733 0.2979
H7 H 0.8202 0.6267 0.2979
H8 H 1.0836 0.7500 0.2739
H9 H 1.0846 0.6273 0.3440
H10 H 1.0846 0.8727 0.3440
H11 H 0.5286 0.8729 0.7065
H12 H 0.5286 0.6271 0.7065
O1 O 0.94847(15) 0.2500 0.85591(6)
O2 O 0.68797(14) 0.2500 0.89178(6)
O3 O 0.75087(15) 0.2500 1.09367(6)
O4 O 0.75646(16) 0.2500 1.22455(7)
N1 N 0.88002(17) 0.2500 0.96941(7)
C1 C 1.0310(2) 0.2500 1.00134(9)
C2 C 1.03689(19) 0.2500 1.07333(8)
C3 C 1.1890(2) 0.2500 1.10528(9)
C4 C 1.3315(2) 0.2500 1.06890(9)
C5 C 1.3238(2) 0.2500 0.99842(9)
C6 C 1.1768(2) 0.2500 0.96504(9)
C7 C 0.8496(2) 0.2500 0.90150(8)
C8 C 0.6378(2) 0.2500 0.82124(8)
C9 C 0.4553(2) 0.2500 0.82077(10)
C10 C 0.8906(2) 0.2500 1.11591(8)
C11 C 0.9096(2) 0.2500 1.19238(9)
H1 H 0.7947 0.2500 0.9961
H2 H 1.1938 0.2500 1.1533
H3 H 1.4332 0.2500 1.0914
H4 H 1.4214 0.2500 0.9729
H5 H 1.1745 0.2500 0.9170
H6 H 0.6798 0.1267 0.7979
H7 H 0.6798 0.3733 0.7979
H8 H 0.4164 0.2500 0.7739
H9 H 0.4154 0.3727 0.8440
H10 H 0.4154 0.1273 0.8440
H11 H 0.9714 0.1271 1.2065
H12 H 0.9714 0.3729 1.2065
O1 O 0.05153(15) 0.7500 0.14409(6)
O2 O 0.31203(14) 0.7500 0.10822(6)
O3 O 0.24913(15) 0.7500 -0.09367(6)
O4 O 0.24354(16) 0.7500 -0.22455(7)
N1 N 0.11998(17) 0.7500 0.03059(7)
C1 C -0.0310(2) 0.7500 -0.00134(9)
C2 C -0.03689(19) 0.7500 -0.07333(8)
C3 C -0.1890(2) 0.7500 -0.10528(9)
C4 C -0.3315(2) 0.7500 -0.06890(9)
C5 C -0.3238(2) 0.7500 0.00158(9)
C6 C -0.1768(2) 0.7500 0.03496(9)
C7 C 0.1504(2) 0.7500 0.09850(8)
C8 C 0.3622(2) 0.7500 0.17876(8)
C9 C 0.5447(2) 0.7500 0.17923(10)
C10 C 0.1094(2) 0.7500 -0.11591(8)
C11 C 0.0904(2) 0.7500 -0.19238(9)
H1 H 0.2053 0.7500 0.0039
H2 H -0.1938 0.7500 -0.1533
H3 H -0.4332 0.7500 -0.0914
H4 H -0.4214 0.7500 0.0271
H5 H -0.1745 0.7500 0.0830
H6 H 0.3202 0.6267 0.2021
H7 H 0.3202 0.8733 0.2021
H8 H 0.5836 0.7500 0.2261
H9 H 0.5846 0.8727 0.1560
H10 H 0.5846 0.6273 0.1560
H11 H 0.0286 0.6271 -0.2065
H12 H 0.0286 0.8729 -0.2065
O1 O 0.44847(15) 0.2500 0.64409(6)
O2 O 0.18797(14) 0.2500 0.60822(6)
O3 O 0.25087(15) 0.2500 0.40633(6)
O4 O 0.25646(16) 0.2500 0.27545(7)
N1 N 0.38002(17) 0.2500 0.53059(7)
C1 C 0.5310(2) 0.2500 0.49866(9)
C2 C 0.53689(19) 0.2500 0.42667(8)
C3 C 0.6890(2) 0.2500 0.39472(9)
C4 C 0.8315(2) 0.2500 0.43110(9)
C5 C 0.8238(2) 0.2500 0.50158(9)
C6 C 0.6768(2) 0.2500 0.53496(9)
C7 C 0.3496(2) 0.2500 0.59850(8)
C8 C 0.1378(2) 0.2500 0.67876(8)
C9 C -0.0447(2) 0.2500 0.67923(10)
C10 C 0.3906(2) 0.2500 0.38409(8)
C11 C 0.4096(2) 0.2500 0.30762(9)
H1 H 0.2947 0.2500 0.5039
H2 H 0.6938 0.2500 0.3467
H3 H 0.9332 0.2500 0.4086
H4 H 0.9214 0.2500 0.5271
H5 H 0.6745 0.2500 0.5830
H6 H 0.1798 0.3733 0.7021
H7 H 0.1798 0.1267 0.7021
H8 H -0.0836 0.2500 0.7261
H9 H -0.0846 0.1273 0.6560
H10 H -0.0846 0.3727 0.6560
H11 H 0.4714 0.3729 0.2935
H12 H 0.4714 0.1271 0.2935
H13? H 0.8168 0.7624 0.6953
H13? H 0.6832 0.2376 0.1953
H13? H 0.3168 0.7376 0.8047
H13? H 0.1832 0.2624 0.3047
H13? H 0.1832 0.2376 0.3047
H13? H 0.3168 0.7624 0.8047
H13? H 0.6832 0.2624 0.1953
H13? H 0.8168 0.7376 0.6953

#END
