./LICLOY01_from_POSCAR.cif_generated_by_CrystalShift
_symmetry_cell_setting triclinic
_symmetry_space_group_name_H-M 'P 1'
loop_
_symmetry_equiv_pos_site_id
_symmetry_equiv_pos_as_xyz
1 x,y,z
_cell_length_a 9.325900
_cell_length_b 10.523000
_cell_length_c 12.231000
_cell_angle_alpha 79.390000
_cell_angle_beta 81.480000
_cell_angle_gamma 80.660000
_cell_volume 1155.456243
loop_
_atom_site_label
_atom_site_type_symbol
_atom_site_fract_x
_atom_site_fract_y
_atom_site_fract_z
H1 H -0.126100 0.872300 0.134000
H2 H -0.348200 1.003400 0.171300
H3 H -0.555200 0.909300 0.256400
H4 H -0.540000 0.683200 0.307300
H5 H 0.778200 0.448400 0.879400
H6 H -0.316200 0.551500 0.277100
H7 H 0.506800 0.509200 0.172900
H8 H 0.727200 0.391000 0.108800
H9 H 1.219300 0.812500 0.203000
H10 H 0.726400 0.213500 0.020300
H11 H 1.204500 0.989900 0.058500
H12 H 0.505400 0.153200 -0.003500
H13 H 1.040700 1.178700 0.081300
H14 H 0.283200 0.269300 0.062500
H15 H 0.897600 1.192400 0.253800
H16 H 0.342200 0.468300 0.416900
H17 H 0.909900 1.014200 0.398900
H18 H 0.578000 0.393900 0.466700
H19 H 0.686000 0.181700 0.449500
H20 H 0.855400 0.818000 0.475400
H21 H 0.563400 0.044200 0.380200
H22 H 0.327700 0.118300 0.327300
H23 H 0.144600 0.182000 0.524600
H24 H 0.672300 0.881700 0.672700
H25 H 0.090100 -0.014200 0.601100
H26 H 0.436600 0.955800 0.619800
H27 H 0.102400 -0.192400 0.746200
H28 H 0.314000 0.818300 0.550500
H29 H -0.040700 -0.178700 0.918700
H30 H 0.422000 0.606100 0.533300
H31 H -0.204500 0.010100 0.941500
H32 H 0.657800 0.531700 0.583100
H33 H -0.219300 0.187500 0.797000
H34 H 0.221800 0.551600 0.120600
H35 H 1.126100 0.127700 0.866000
H36 H 0.716800 0.730700 0.937500
H37 H 1.348200 -0.003400 0.828700
H38 H 0.494600 0.846800 1.003500
H39 H 1.555200 0.090700 0.743600
H40 H 0.273600 0.786500 0.979700
H41 H 1.540000 0.316800 0.692700
H42 H 0.272800 0.609000 0.891200
H43 H 1.316200 0.448500 0.722900
H44 H 0.493200 0.490800 0.827100
C45 C 1.002520 0.490770 0.741170
C46 C 1.051450 0.379540 0.819540
C47 C 1.198480 0.301610 0.796520
C48 C 1.322600 0.356580 0.745250
C49 C 0.493840 0.564060 0.862120
C50 C 1.455390 0.278430 0.726600
C51 C 0.363110 0.633760 0.900810
C52 C 1.464500 0.144550 0.757370
C53 C 0.363500 0.738810 0.953140
C54 C 1.341600 0.088770 0.808190
C55 C 0.494500 0.774640 0.966950
C56 C 1.209410 0.166340 0.829260
C57 C 0.626500 0.705980 0.927790
C58 C -0.341600 0.911230 0.191810
C59 C -0.464500 0.855450 0.242630
C60 C -0.455390 0.721570 0.273400
C61 C -0.322600 0.643420 0.254750
C62 C 0.624810 0.600950 0.874350
C63 C -0.198480 0.698390 0.203480
C64 C -0.063550 0.106160 0.684370
C65 C -0.152510 0.111130 0.786530
C66 C 0.859600 0.554980 0.752070
C67 C -0.143900 0.005500 0.872390
C68 C 0.612160 0.617460 0.591270
C69 C -0.047700 -0.107230 0.858730
C70 C 0.473200 0.661900 0.561190
C71 C 0.038200 -0.114660 0.756950
C72 C 0.409080 0.787800 0.571790
C73 C 0.030500 -0.008530 0.670510
C74 C 0.481800 0.869510 0.612890
C75 C -0.070910 0.223290 0.593900
C76 C 0.055860 0.238520 0.513250
C77 C 0.621320 0.826050 0.644390
C78 C 0.051220 0.332690 0.420560
C79 C 0.316260 0.300270 0.366570
C80 C 0.378680 0.173950 0.355610
C81 C 0.683740 0.699730 0.633430
C82 C 0.518200 0.130490 0.387110
C83 C 0.948780 0.667310 0.579440
C84 C 0.590920 0.212200 0.428210
C85 C 0.944140 0.761480 0.486750
C86 C 0.526800 0.338100 0.438810
C87 C 1.070910 0.776710 0.406100
C88 C 0.387840 0.382540 0.408730
C89 C 0.969500 1.008530 0.329490
C90 C 0.140400 0.445020 0.247930
C91 C 0.375190 0.399050 0.125650
C92 C 0.373500 0.294020 0.072210
C93 C 0.961800 1.114660 0.243050
C94 C 0.505500 0.225360 0.033050
C95 C 1.047700 1.107230 0.141270
C96 C 0.636500 0.261190 0.046860
C97 C 1.143900 0.994500 0.127610
C98 C 0.636890 0.366240 0.099190
C99 C 1.152510 0.888870 0.213470
C100 C 0.506160 0.435940 0.137880
C101 C 1.063550 0.893840 0.315630
C102 C -0.002520 0.509230 0.258830
C103 C -0.051450 0.620460 0.180460
C104 C -0.209410 0.833660 0.170740
N105 N 0.240830 0.476060 0.160690
N106 N 0.829860 0.650610 0.661860
N107 N 0.170140 0.349390 0.338140
N108 N 0.759170 0.523940 0.839310
O109 O 0.970330 0.340050 0.906330
O110 O -0.184960 0.302990 0.589100
O111 O 1.184960 0.697010 0.410900
O112 O 0.029670 0.659950 0.093670
S113 S -0.098330 0.445970 0.387970
S114 S 1.098330 0.554030 0.612030

#END
