
#######################################################################
#
#                 Cambridge Crystallographic Data Centre
#                                CCDC 
#
#######################################################################
#
# If this CIF has been generated from an entry in the Cambridge 
# Structural Database, then it will include bibliographic, chemical, 
# crystal, experimental, refinement or atomic coordinate data resulting 
# from the CCDC's data processing and validation procedures.
#
#######################################################################

data_LICLIU
_symmetry_cell_setting           triclinic
_symmetry_space_group_name_H-M   'P -1'
_symmetry_Int_Tables_number      2
_space_group_name_Hall           '-P 1'
loop_
_symmetry_equiv_pos_site_id
_symmetry_equiv_pos_as_xyz
1 x,y,z
2 -x,-y,-z
_cell_length_a                   8.9748(9)
_cell_length_b                   10.4010(10)
_cell_length_c                   12.3827(12)
_cell_angle_alpha                96.702(5)
_cell_angle_beta                 99.469(4)
_cell_angle_gamma                108.771(4)
_cell_volume                     1061.54
loop_
_atom_site_label
_atom_site_type_symbol
_atom_site_fract_x
_atom_site_fract_y
_atom_site_fract_z
C1 C 0.19058(15) 0.57200(12) 0.24190(10)
C2 C 0.23092(16) 0.71654(12) 0.20710(10)
C3 C 0.39402(17) 0.80423(14) 0.26827(12)
C4 C 0.4846(2) 0.93746(16) 0.25903(15)
H1 H 0.4430 0.9855 0.2106
C5 C 0.6389(3) 0.9960(2) 0.32448(18)
H2 H 0.7023 1.0846 0.3194
C6 C 0.7002(2) 0.9259(2) 0.39673(18)
H3 H 0.8048 0.9676 0.4388
C7 C 0.6100(2) 0.79436(19) 0.40864(15)
H4 H 0.6510 0.7483 0.4592
C8 C 0.45609(17) 0.73399(14) 0.34221(11)
C9 C 0.33433(15) 0.59797(13) 0.34036(10)
C10 C 0.02438(15) 0.51959(12) 0.26785(9)
C11 C -0.09957(15) 0.40980(13) 0.19664(10)
H5 H -0.0812 0.3716 0.1306
C12 C -0.24917(15) 0.35646(14) 0.22216(10)
C13 C -0.28326(16) 0.41181(15) 0.31940(11)
C14 C -0.16276(16) 0.52626(15) 0.38791(11)
H6 H -0.1827 0.5682 0.4518
C15 C -0.01357(15) 0.57787(13) 0.36139(10)
C16 C 0.20405(14) 0.35061(12) 0.14043(10)
C17 C 0.23034(16) 0.29097(14) 0.04086(10)
C18 C 0.2132(2) 0.15304(15) 0.02210(13)
H7 H 0.2272 0.1134 -0.0451
C19 C 0.1752(2) 0.07305(15) 0.10233(13)
H8 H 0.1649 -0.0196 0.0902
C20 C 0.15326(17) 0.13307(14) 0.19955(12)
C21 C 0.16604(16) 0.27046(13) 0.22062(11)
H9 H 0.1494 0.3082 0.2875
C22 C 0.2860(4) 0.3248(3) -0.13691(17)
H10 H 0.3733 0.2900 -0.1273
H11 H 0.3084 0.3962 -0.1808
H12 H 0.1882 0.2511 -0.1742
C23 C -0.3563(3) 0.1947(3) 0.0551(2)
H13 H -0.3362 0.2657 0.0107
H14 H -0.4525 0.1193 0.0180
H15 H -0.2669 0.1625 0.0654
N1 N 0.21476(14) 0.48780(11) 0.14905(9)
H16 H 0.2382 0.5269 0.0936
N2 N -0.43067(17) 0.35306(19) 0.34411(13)
H17 H -0.4519 0.3868 0.4041
H18 H -0.5020 0.2824 0.2997
O1 O 0.14400(14) 0.74348(11) 0.13543(9)
O2 O 0.34650(13) 0.51900(11) 0.40292(8)
O3 O 0.26838(16) 0.37926(12) -0.03170(9)
O4 O -0.37534(13) 0.24717(13) 0.15718(9)
Cl1 Cl 0.12704(5) 0.72571(4) 0.44835(3)
Cl2 Cl 0.10389(8) 0.03434(5) 0.30158(4)
C1 C 0.80942(15) 0.42800(12) 0.75810(10)
C2 C 0.76908(16) 0.28346(12) 0.79290(10)
C3 C 0.60598(17) 0.19577(14) 0.73173(12)
C4 C 0.5154(2) 0.06254(16) 0.74097(15)
H1 H 0.5570 0.0145 0.7894
C5 C 0.3611(3) 0.0040(2) 0.67552(18)
H2 H 0.2977 -0.0846 0.6806
C6 C 0.2998(2) 0.0741(2) 0.60327(18)
H3 H 0.1952 0.0324 0.5612
C7 C 0.3900(2) 0.20564(19) 0.59136(15)
H4 H 0.3490 0.2517 0.5408
C8 C 0.54391(17) 0.26601(14) 0.65779(11)
C9 C 0.66567(15) 0.40203(13) 0.65964(10)
C10 C 0.97562(15) 0.48041(12) 0.73215(9)
C11 C 1.09957(15) 0.59020(13) 0.80336(10)
H5 H 1.0812 0.6284 0.8694
C12 C 1.24917(15) 0.64354(14) 0.77784(10)
C13 C 1.28326(16) 0.58819(15) 0.68060(11)
C14 C 1.16276(16) 0.47374(15) 0.61209(11)
H6 H 1.1827 0.4318 0.5482
C15 C 1.01357(15) 0.42213(13) 0.63861(10)
C16 C 0.79595(14) 0.64939(12) 0.85957(10)
C17 C 0.76966(16) 0.70903(14) 0.95914(10)
C18 C 0.7868(2) 0.84696(15) 0.97790(13)
H7 H 0.7728 0.8866 1.0451
C19 C 0.8248(2) 0.92695(15) 0.89767(13)
H8 H 0.8351 1.0196 0.9098
C20 C 0.84674(17) 0.86693(14) 0.80045(12)
C21 C 0.83396(16) 0.72954(13) 0.77938(11)
H9 H 0.8506 0.6918 0.7125
C22 C 0.7140(4) 0.6752(3) 1.13691(17)
H10 H 0.6267 0.7100 1.1273
H11 H 0.6916 0.6038 1.1808
H12 H 0.8118 0.7489 1.1742
C23 C 1.3563(3) 0.8053(3) 0.9449(2)
H13 H 1.3362 0.7343 0.9893
H14 H 1.4525 0.8807 0.9820
H15 H 1.2669 0.8375 0.9346
N1 N 0.78524(14) 0.51220(11) 0.85095(9)
H16 H 0.7618 0.4731 0.9064
N2 N 1.43067(17) 0.64694(19) 0.65589(13)
H17 H 1.4519 0.6132 0.5959
H18 H 1.5020 0.7176 0.7003
O1 O 0.85600(14) 0.25652(11) 0.86457(9)
O2 O 0.65350(13) 0.48100(11) 0.59708(8)
O3 O 0.73162(16) 0.62074(12) 1.03170(9)
O4 O 1.37534(13) 0.75283(13) 0.84282(9)
Cl1 Cl 0.87296(5) 0.27429(4) 0.55165(3)
Cl2 Cl 0.89611(8) 0.96566(5) 0.69842(4)

#END
