
#######################################################################
#
#                 Cambridge Crystallographic Data Centre
#                                CCDC 
#
#######################################################################
#
# If this CIF has been generated from an entry in the Cambridge 
# Structural Database, then it will include bibliographic, chemical, 
# crystal, experimental, refinement or atomic coordinate data resulting 
# from the CCDC's data processing and validation procedures.
#
#######################################################################

data_ABEGIY
_symmetry_cell_setting           orthorhombic
_symmetry_space_group_name_H-M   'P b c a'
_symmetry_Int_Tables_number      61
_space_group_name_Hall           '-P 2ac 2ab'
loop_
_symmetry_equiv_pos_site_id
_symmetry_equiv_pos_as_xyz
1 x,y,z
2 1/2-x,-y,1/2+z
3 -x,1/2+y,1/2-z
4 1/2+x,1/2-y,-z
5 -x,-y,-z
6 1/2+x,y,1/2-z
7 x,1/2-y,1/2+z
8 1/2-x,1/2+y,z
_cell_length_a                   10.0406(15)
_cell_length_b                   13.420(2)
_cell_length_c                   15.040(2)
_cell_angle_alpha                90
_cell_angle_beta                 90
_cell_angle_gamma                90
_cell_volume                     2026.56
loop_
_atom_site_label
_atom_site_type_symbol
_atom_site_fract_x
_atom_site_fract_y
_atom_site_fract_z
O1 O 0.14650(9) 0.82654(6) 0.08561(7)
O2 O 0.18276(12) 0.67893(8) 0.02690(10)
C1 C 0.23305(14) 0.75046(10) 0.06129(10)
C2 C 0.37053(14) 0.76655(11) 0.08026(10)
H1 H 0.4328 0.7187 0.0637
C3 C 0.41131(14) 0.84918(12) 0.12147(10)
H2 H 0.5012 0.8578 0.1342
C4 C 0.31883(14) 0.92371(11) 0.14596(10)
H3 H 0.3475 0.9808 0.1753
C5 C 0.18918(13) 0.91148(9) 0.12661(8)
C6 C 0.08523(14) 0.98275(10) 0.14486(9)
H4 H 0.1085 1.0396 0.1767
C7 C -0.04138(14) 0.97384(9) 0.11986(9)
H5 H -0.0641 0.9157 0.0898
C8 C -0.14868(12) 1.04589(9) 0.13466(8)
C9 C -0.27362(14) 1.02825(11) 0.09762(9)
H6 H -0.2883 0.9699 0.0657
C10 C -0.37574(15) 1.09593(13) 0.10764(11)
H7 H -0.4586 1.0830 0.0825
C11 C -0.35577(15) 1.18240(11) 0.15454(11)
H8 H -0.4244 1.2284 0.1606
C12 C -0.23345(16) 1.20048(11) 0.19260(10)
H9 H -0.2199 1.2587 0.2249
C13 C -0.13079(14) 1.13306(10) 0.18333(9)
H10 H -0.0489 1.1460 0.2098
O1 O 0.35350(9) 0.17346(6) 0.58561(7)
O2 O 0.31724(12) 0.32107(8) 0.52690(10)
C1 C 0.26695(14) 0.24954(10) 0.56129(10)
C2 C 0.12947(14) 0.23345(11) 0.58026(10)
H1 H 0.0672 0.2813 0.5637
C3 C 0.08869(14) 0.15082(12) 0.62147(10)
H2 H -0.0012 0.1422 0.6342
C4 C 0.18117(14) 0.07629(11) 0.64596(10)
H3 H 0.1525 0.0192 0.6753
C5 C 0.31082(13) 0.08852(9) 0.62661(8)
C6 C 0.41477(14) 0.01725(10) 0.64486(9)
H4 H 0.3915 -0.0396 0.6767
C7 C 0.54138(14) 0.02616(9) 0.61986(9)
H5 H 0.5641 0.0843 0.5898
C8 C 0.64868(12) -0.04589(9) 0.63466(8)
C9 C 0.77362(14) -0.02825(11) 0.59762(9)
H6 H 0.7883 0.0301 0.5657
C10 C 0.87574(15) -0.09593(13) 0.60764(11)
H7 H 0.9586 -0.0830 0.5825
C11 C 0.85577(15) -0.18240(11) 0.65454(11)
H8 H 0.9244 -0.2284 0.6606
C12 C 0.73345(16) -0.20048(11) 0.69260(10)
H9 H 0.7199 -0.2587 0.7249
C13 C 0.63079(14) -0.13306(10) 0.68333(9)
H10 H 0.5489 -0.1460 0.7098
O1 O 0.85350(9) 0.32654(6) 0.41439(7)
O2 O 0.81724(12) 0.17893(8) 0.47310(10)
C1 C 0.76695(14) 0.25046(10) 0.43871(10)
C2 C 0.62947(14) 0.26655(11) 0.41974(10)
H1 H 0.5672 0.2187 0.4363
C3 C 0.58869(14) 0.34918(12) 0.37853(10)
H2 H 0.4988 0.3578 0.3658
C4 C 0.68117(14) 0.42371(11) 0.35404(10)
H3 H 0.6525 0.4808 0.3247
C5 C 0.81082(13) 0.41148(9) 0.37339(8)
C6 C 0.91477(14) 0.48275(10) 0.35514(9)
H4 H 0.8915 0.5396 0.3233
C7 C 1.04138(14) 0.47384(9) 0.38014(9)
H5 H 1.0641 0.4157 0.4102
C8 C 1.14868(12) 0.54589(9) 0.36534(8)
C9 C 1.27362(14) 0.52825(11) 0.40238(9)
H6 H 1.2883 0.4699 0.4343
C10 C 1.37574(15) 0.59593(13) 0.39236(11)
H7 H 1.4586 0.5830 0.4175
C11 C 1.35577(15) 0.68240(11) 0.34546(11)
H8 H 1.4244 0.7284 0.3394
C12 C 1.23345(16) 0.70048(11) 0.30740(10)
H9 H 1.2199 0.7587 0.2751
C13 C 1.13079(14) 0.63306(10) 0.31667(9)
H10 H 1.0489 0.6460 0.2902
O1 O 0.64650(9) 0.67346(6) 0.91439(7)
O2 O 0.68276(12) 0.82107(8) 0.97310(10)
C1 C 0.73305(14) 0.74954(10) 0.93871(10)
C2 C 0.87053(14) 0.73345(11) 0.91974(10)
H1 H 0.9328 0.7813 0.9363
C3 C 0.91131(14) 0.65082(12) 0.87853(10)
H2 H 1.0012 0.6422 0.8658
C4 C 0.81883(14) 0.57629(11) 0.85404(10)
H3 H 0.8475 0.5192 0.8247
C5 C 0.68918(13) 0.58852(9) 0.87339(8)
C6 C 0.58523(14) 0.51725(10) 0.85514(9)
H4 H 0.6085 0.4604 0.8233
C7 C 0.45862(14) 0.52616(9) 0.88014(9)
H5 H 0.4359 0.5843 0.9102
C8 C 0.35132(12) 0.45411(9) 0.86534(8)
C9 C 0.22638(14) 0.47175(11) 0.90238(9)
H6 H 0.2117 0.5301 0.9343
C10 C 0.12426(15) 0.40407(13) 0.89236(11)
H7 H 0.0414 0.4170 0.9175
C11 C 0.14423(15) 0.31760(11) 0.84546(11)
H8 H 0.0756 0.2716 0.8394
C12 C 0.26655(16) 0.29952(11) 0.80740(10)
H9 H 0.2801 0.2413 0.7751
C13 C 0.36921(14) 0.36694(10) 0.81667(9)
H10 H 0.4511 0.3540 0.7902
O1 O 0.85350(9) 0.17346(6) 0.91439(7)
O2 O 0.81724(12) 0.32107(8) 0.97310(10)
C1 C 0.76695(14) 0.24954(10) 0.93871(10)
C2 C 0.62947(14) 0.23345(11) 0.91974(10)
H1 H 0.5672 0.2813 0.9363
C3 C 0.58869(14) 0.15082(12) 0.87853(10)
H2 H 0.4988 0.1422 0.8658
C4 C 0.68117(14) 0.07629(11) 0.85404(10)
H3 H 0.6525 0.0192 0.8247
C5 C 0.81082(13) 0.08852(9) 0.87339(8)
C6 C 0.91477(14) 0.01725(10) 0.85514(9)
H4 H 0.8915 -0.0396 0.8233
C7 C 1.04138(14) 0.02616(9) 0.88014(9)
H5 H 1.0641 0.0843 0.9102
C8 C 1.14868(12) -0.04589(9) 0.86534(8)
C9 C 1.27362(14) -0.02825(11) 0.90238(9)
H6 H 1.2883 0.0301 0.9343
C10 C 1.37574(15) -0.09593(13) 0.89236(11)
H7 H 1.4586 -0.0830 0.9175
C11 C 1.35577(15) -0.18240(11) 0.84546(11)
H8 H 1.4244 -0.2284 0.8394
C12 C 1.23345(16) -0.20048(11) 0.80740(10)
H9 H 1.2199 -0.2587 0.7751
C13 C 1.13079(14) -0.13306(10) 0.81667(9)
H10 H 1.0489 -0.1460 0.7902
O1 O 0.64650(9) 0.82654(6) 0.41439(7)
O2 O 0.68276(12) 0.67893(8) 0.47310(10)
C1 C 0.73305(14) 0.75046(10) 0.43871(10)
C2 C 0.87053(14) 0.76655(11) 0.41974(10)
H1 H 0.9328 0.7187 0.4363
C3 C 0.91131(14) 0.84918(12) 0.37853(10)
H2 H 1.0012 0.8578 0.3658
C4 C 0.81883(14) 0.92371(11) 0.35404(10)
H3 H 0.8475 0.9808 0.3247
C5 C 0.68918(13) 0.91148(9) 0.37339(8)
C6 C 0.58523(14) 0.98275(10) 0.35514(9)
H4 H 0.6085 1.0396 0.3233
C7 C 0.45862(14) 0.97384(9) 0.38014(9)
H5 H 0.4359 0.9157 0.4102
C8 C 0.35132(12) 1.04589(9) 0.36534(8)
C9 C 0.22638(14) 1.02825(11) 0.40238(9)
H6 H 0.2117 0.9699 0.4343
C10 C 0.12426(15) 1.09593(13) 0.39236(11)
H7 H 0.0414 1.0830 0.4175
C11 C 0.14423(15) 1.18240(11) 0.34546(11)
H8 H 0.0756 1.2284 0.3394
C12 C 0.26655(16) 1.20048(11) 0.30740(10)
H9 H 0.2801 1.2587 0.2751
C13 C 0.36921(14) 1.13306(10) 0.31667(9)
H10 H 0.4511 1.1460 0.2902
O1 O 0.14650(9) 0.67346(6) 0.58561(7)
O2 O 0.18276(12) 0.82107(8) 0.52690(10)
C1 C 0.23305(14) 0.74954(10) 0.56129(10)
C2 C 0.37053(14) 0.73345(11) 0.58026(10)
H1 H 0.4328 0.7813 0.5637
C3 C 0.41131(14) 0.65082(12) 0.62147(10)
H2 H 0.5012 0.6422 0.6342
C4 C 0.31883(14) 0.57629(11) 0.64596(10)
H3 H 0.3475 0.5192 0.6753
C5 C 0.18918(13) 0.58852(9) 0.62661(8)
C6 C 0.08523(14) 0.51725(10) 0.64486(9)
H4 H 0.1085 0.4604 0.6767
C7 C -0.04138(14) 0.52616(9) 0.61986(9)
H5 H -0.0641 0.5843 0.5898
C8 C -0.14868(12) 0.45411(9) 0.63466(8)
C9 C -0.27362(14) 0.47175(11) 0.59762(9)
H6 H -0.2883 0.5301 0.5657
C10 C -0.37574(15) 0.40407(13) 0.60764(11)
H7 H -0.4586 0.4170 0.5825
C11 C -0.35577(15) 0.31760(11) 0.65454(11)
H8 H -0.4244 0.2716 0.6606
C12 C -0.23345(16) 0.29952(11) 0.69260(10)
H9 H -0.2199 0.2413 0.7249
C13 C -0.13079(14) 0.36694(10) 0.68333(9)
H10 H -0.0489 0.3540 0.7098
O1 O 0.35350(9) 0.32654(6) 0.08561(7)
O2 O 0.31724(12) 0.17893(8) 0.02690(10)
C1 C 0.26695(14) 0.25046(10) 0.06129(10)
C2 C 0.12947(14) 0.26655(11) 0.08026(10)
H1 H 0.0672 0.2187 0.0637
C3 C 0.08869(14) 0.34918(12) 0.12147(10)
H2 H -0.0012 0.3578 0.1342
C4 C 0.18117(14) 0.42371(11) 0.14596(10)
H3 H 0.1525 0.4808 0.1753
C5 C 0.31082(13) 0.41148(9) 0.12661(8)
C6 C 0.41477(14) 0.48275(10) 0.14486(9)
H4 H 0.3915 0.5396 0.1767
C7 C 0.54138(14) 0.47384(9) 0.11986(9)
H5 H 0.5641 0.4157 0.0898
C8 C 0.64868(12) 0.54589(9) 0.13466(8)
C9 C 0.77362(14) 0.52825(11) 0.09762(9)
H6 H 0.7883 0.4699 0.0657
C10 C 0.87574(15) 0.59593(13) 0.10764(11)
H7 H 0.9586 0.5830 0.0825
C11 C 0.85577(15) 0.68240(11) 0.15454(11)
H8 H 0.9244 0.7284 0.1606
C12 C 0.73345(16) 0.70048(11) 0.19260(10)
H9 H 0.7199 0.7587 0.2249
C13 C 0.63079(14) 0.63306(10) 0.18333(9)
H10 H 0.5489 0.6460 0.2098

#END
