./ABIVUC_from_xyz.cif_generated_by_CrystalShift
_symmetry_cell_setting triclinic
_symmetry_space_group_name_H-M 'P 1'
loop_
_symmetry_equiv_pos_site_id
_symmetry_equiv_pos_as_xyz
1 x,y,z
_cell_length_a 10.129000
_cell_length_b 9.265000
_cell_length_c 15.696000
_cell_angle_alpha 90.000000
_cell_angle_beta 91.970000
_cell_angle_gamma 90.000000
_cell_volume 1472.123422
loop_
_atom_site_label
_atom_site_type_symbol
_atom_site_fract_x
_atom_site_fract_y
_atom_site_fract_z
Fe1 Fe 0.653590 0.158550 0.312790
N2 N 0.500600 0.280100 0.358580
N3 N 0.661100 0.092100 0.439440
C4 C 0.414800 0.365100 0.316300
H5 H 0.419100 0.371100 0.257400
C6 C 0.319300 0.445000 0.356700
H7 H 0.259900 0.501800 0.325000
C8 C 0.313700 0.439000 0.443800
H9 H 0.251500 0.493800 0.471700
C10 C 0.400900 0.351000 0.490500
C11 C 0.400600 0.336200 0.581600
H12 H 0.341300 0.389600 0.612700
C13 C 0.485600 0.245500 0.622400
H14 H 0.484100 0.238000 0.681400
C15 C 0.578400 0.160400 0.576900
C16 C 0.668400 0.063300 0.616100
H17 H 0.671700 0.053000 0.675000
C18 C 0.751400 -0.016200 0.567100
H19 H 0.811800 -0.079900 0.592500
C20 C 0.743600 0.000300 0.478400
H21 H 0.798500 -0.055400 0.445500
C22 C 0.580600 0.172300 0.487800
C23 C 0.492100 0.270700 0.444700
C24 C 0.593500 -0.210500 0.125600
C25 C 0.538400 -0.099500 0.063450
C26 C 0.507900 -0.144800 -0.019100
H27 H 0.512500 -0.242600 -0.032020
C28 C 0.529300 0.047800 0.082970
C29 C 0.558200 0.100900 0.171620
O30 O 0.617000 0.220200 0.182580
O31 O 0.527400 0.023800 0.234330
O32 O 0.524500 -0.318200 0.140240
O33 O 0.711200 -0.187100 0.152590
O34 O 0.803200 0.027500 0.275260
C35 C 0.470700 -0.047800 -0.082970
C36 C 0.461600 0.099500 -0.063450
C37 C 0.406500 0.210500 -0.125600
O38 O 0.475500 0.318200 -0.140240
O39 O 0.288800 0.187100 -0.152590
C40 C 0.492100 0.144800 0.019100
H41 H 0.487500 0.242600 0.032020
C42 C 0.441800 -0.100900 -0.171620
O43 O 0.383000 -0.220200 -0.182580
O44 O 0.472600 -0.023800 -0.234330
Fe45 Fe 0.346410 -0.158550 -0.312790
N46 N 0.499400 -0.280100 -0.358580
N47 N 0.338900 -0.092100 -0.439440
C48 C 0.585200 -0.365100 -0.316300
H49 H 0.580900 -0.371100 -0.257400
C50 C 0.680700 -0.445000 -0.356700
H51 H 0.740100 -0.501800 -0.325000
C52 C 0.686300 -0.439000 -0.443800
H53 H 0.748500 -0.493800 -0.471700
C54 C 0.599100 -0.351000 -0.490500
C55 C 0.599400 -0.336200 -0.581600
H56 H 0.658700 -0.389600 -0.612700
C57 C 0.514400 -0.245500 -0.622400
H58 H 0.515900 -0.238000 -0.681400
C59 C 0.421600 -0.160400 -0.576900
C60 C 0.331600 -0.063300 -0.616100
H61 H 0.328300 -0.053000 -0.675000
C62 C 0.248600 0.016200 -0.567100
H63 H 0.188200 0.079900 -0.592500
C64 C 0.256400 -0.000300 -0.478400
H65 H 0.201500 0.055400 -0.445500
C66 C 0.419400 -0.172300 -0.487800
C67 C 0.507900 -0.270700 -0.444700
O68 O 0.196800 -0.027500 -0.275260
O69 O 0.788800 0.312900 0.347410
Fe70 Fe 0.846410 -0.341450 0.187210
Fe71 Fe 0.153590 0.341450 -0.187210
O72 O 0.211200 -0.312900 -0.347410
Fe73 Fe 0.653590 1.158550 0.312790
N74 N 0.500600 1.280100 0.358580
N75 N 0.661100 1.092100 0.439440
C76 C 0.414800 1.365100 0.316300
H77 H 0.419100 1.371100 0.257400
C78 C 0.319300 1.445000 0.356700
H79 H 0.259900 1.501800 0.325000
C80 C 0.313700 1.439000 0.443800
H81 H 0.251500 1.493800 0.471700
C82 C 0.400900 1.351000 0.490500
C83 C 0.400600 1.336200 0.581600
H84 H 0.341300 1.389600 0.612700
C85 C 0.485600 1.245500 0.622400
H86 H 0.484100 1.238000 0.681400
C87 C 0.578400 1.160400 0.576900
C88 C 0.668400 1.063300 0.616100
H89 H 0.671700 1.053000 0.675000
C90 C 0.751400 0.983800 0.567100
H91 H 0.811800 0.920100 0.592500
C92 C 0.743600 1.000300 0.478400
H93 H 0.798500 0.944600 0.445500
C94 C 0.580600 1.172300 0.487800
C95 C 0.492100 1.270700 0.444700
C96 C 0.593500 0.789500 0.125600
C97 C 0.538400 0.900500 0.063450
C98 C 0.507900 0.855200 -0.019100
H99 H 0.512500 0.757400 -0.032020
C100 C 0.529300 1.047800 0.082970
C101 C 0.558200 1.100900 0.171620
O102 O 0.617000 1.220200 0.182580
O103 O 0.527400 1.023800 0.234330
O104 O 0.524500 0.681800 0.140240
O105 O 0.711200 0.812900 0.152590
O106 O 0.803200 1.027500 0.275260
C107 C 0.470700 0.952200 -0.082970
C108 C 0.461600 1.099500 -0.063450
C109 C 0.406500 1.210500 -0.125600
O110 O 0.475500 1.318200 -0.140240
O111 O 0.288800 1.187100 -0.152590
C112 C 0.492100 1.144800 0.019100
H113 H 0.487500 1.242600 0.032020
C114 C 0.441800 0.899100 -0.171620
O115 O 0.383000 0.779800 -0.182580
O116 O 0.472600 0.976200 -0.234330
Fe117 Fe 0.346410 0.841450 -0.312790
N118 N 0.499400 0.719900 -0.358580
N119 N 0.338900 0.907900 -0.439440
C120 C 0.585200 0.634900 -0.316300
H121 H 0.580900 0.628900 -0.257400
C122 C 0.680700 0.555000 -0.356700
H123 H 0.740100 0.498200 -0.325000
C124 C 0.686300 0.561000 -0.443800
H125 H 0.748500 0.506200 -0.471700
C126 C 0.599100 0.649000 -0.490500
C127 C 0.599400 0.663800 -0.581600
H128 H 0.658700 0.610400 -0.612700
C129 C 0.514400 0.754500 -0.622400
H130 H 0.515900 0.762000 -0.681400
C131 C 0.421600 0.839600 -0.576900
C132 C 0.331600 0.936700 -0.616100
H133 H 0.328300 0.947000 -0.675000
C134 C 0.248600 1.016200 -0.567100
H135 H 0.188200 1.079900 -0.592500
C136 C 0.256400 0.999700 -0.478400
H137 H 0.201500 1.055400 -0.445500
C138 C 0.419400 0.827700 -0.487800
C139 C 0.507900 0.729300 -0.444700
O140 O 0.196800 0.972500 -0.275260
O141 O 0.788800 1.312900 0.347410
Fe142 Fe 0.846410 0.658550 0.187210
Fe143 Fe 0.153590 1.341450 -0.187210
O144 O 0.211200 0.687100 -0.347410
N145 N 0.999400 0.780100 0.141420
N146 N 0.838900 0.592100 0.060560
C147 C 1.085200 0.865100 0.183700
H148 H 1.080900 0.871100 0.242600
C149 C 1.180700 0.945000 0.143300
H150 H 1.240100 1.001800 0.175000
C151 C 1.186300 0.939000 0.056200
H152 H 1.248500 0.993800 0.028300
C153 C 1.099100 0.851000 0.009500
C154 C 1.099400 0.836200 -0.081600
H155 H 1.158700 0.889600 -0.112700
C156 C 1.014400 0.745500 -0.122400
H157 H 1.015900 0.738000 -0.181400
C158 C 0.921600 0.660400 -0.076900
C159 C 0.831600 0.563300 -0.116100
H160 H 0.828300 0.553000 -0.175000
C161 C 0.748600 0.483800 -0.067100
H162 H 0.688200 0.420100 -0.092500
C163 C 0.756400 0.500300 0.021600
H164 H 0.701500 0.444600 0.054500
C165 C 0.919400 0.672300 0.012200
C166 C 1.007900 0.770700 0.055300
C167 C 0.906500 0.289500 0.374400
C168 C 0.961600 0.400500 0.436550
C169 C 0.992100 0.355200 0.519100
H170 H 0.987500 0.257400 0.532020
C171 C 0.970700 0.547800 0.417030
C172 C 0.941800 0.600900 0.328380
O173 O 0.883000 0.720200 0.317420
O174 O 0.972600 0.523800 0.265670
O175 O 0.975500 0.181800 0.359760
O176 O 0.696800 0.527500 0.224740
C177 C 1.029300 0.452200 0.582970
C178 C 1.038400 0.599500 0.563450
C179 C 1.093500 0.710500 0.625600
O180 O 1.024500 0.818200 0.640240
O181 O 1.211200 0.687100 0.652590
C182 C 1.007900 0.644800 0.480900
H183 H 1.012500 0.742600 0.467980
C184 C 1.058200 0.399100 0.671620
O185 O 1.117000 0.279800 0.682580
O186 O 1.027400 0.476200 0.734330
Fe187 Fe 1.153590 0.341450 0.812790
N188 N 1.000600 0.219900 0.858580
N189 N 1.161100 0.407900 0.939440
C190 C 0.914800 0.134900 0.816300
H191 H 0.919100 0.128900 0.757400
C192 C 0.819300 0.055000 0.856700
H193 H 0.759900 -0.001800 0.825000
C194 C 0.813700 0.061000 0.943800
H195 H 0.751500 0.006200 0.971700
C196 C 0.900900 0.149000 0.990500
C197 C 0.900600 0.163800 1.081600
H198 H 0.841300 0.110400 1.112700
C199 C 0.985600 0.254500 1.122400
H200 H 0.984100 0.262000 1.181400
C201 C 1.078400 0.339600 1.076900
C202 C 1.168400 0.436700 1.116100
H203 H 1.171700 0.447000 1.175000
C204 C 1.251400 0.516200 1.067100
H205 H 1.311800 0.579900 1.092500
C206 C 1.243600 0.499700 0.978400
H207 H 1.298500 0.555400 0.945500
C208 C 1.080600 0.327700 0.987800
C209 C 0.992100 0.229300 0.944700
O210 O 1.303200 0.472500 0.775260
Fe211 Fe 1.346410 0.841450 0.687210
O212 O 1.288800 0.187100 0.847410
Fe213 Fe 0.653590 0.158550 1.312790
N214 N 0.500600 0.280100 1.358580
N215 N 0.661100 0.092100 1.439440
C216 C 0.414800 0.365100 1.316300
H217 H 0.419100 0.371100 1.257400
C218 C 0.319300 0.445000 1.356700
H219 H 0.259900 0.501800 1.325000
C220 C 0.313700 0.439000 1.443800
H221 H 0.251500 0.493800 1.471700
C222 C 0.400900 0.351000 1.490500
C223 C 0.400600 0.336200 1.581600
H224 H 0.341300 0.389600 1.612700
C225 C 0.485600 0.245500 1.622400
H226 H 0.484100 0.238000 1.681400
C227 C 0.578400 0.160400 1.576900
C228 C 0.668400 0.063300 1.616100
H229 H 0.671700 0.053000 1.675000
C230 C 0.751400 -0.016200 1.567100
H231 H 0.811800 -0.079900 1.592500
C232 C 0.743600 0.000300 1.478400
H233 H 0.798500 -0.055400 1.445500
C234 C 0.580600 0.172300 1.487800
C235 C 0.492100 0.270700 1.444700
C236 C 0.593500 -0.210500 1.125600
C237 C 0.538400 -0.099500 1.063450
C238 C 0.507900 -0.144800 0.980900
H239 H 0.512500 -0.242600 0.967980
C240 C 0.529300 0.047800 1.082970
C241 C 0.558200 0.100900 1.171620
O242 O 0.617000 0.220200 1.182580
O243 O 0.527400 0.023800 1.234330
O244 O 0.524500 -0.318200 1.140240
O245 O 0.711200 -0.187100 1.152590
O246 O 0.803200 0.027500 1.275260
C247 C 0.470700 -0.047800 0.917030
C248 C 0.461600 0.099500 0.936550
C249 C 0.406500 0.210500 0.874400
O250 O 0.475500 0.318200 0.859760
O251 O 0.288800 0.187100 0.847410
C252 C 0.492100 0.144800 1.019100
H253 H 0.487500 0.242600 1.032020
C254 C 0.441800 -0.100900 0.828380
O255 O 0.383000 -0.220200 0.817420
O256 O 0.472600 -0.023800 0.765670
Fe257 Fe 0.346410 -0.158550 0.687210
N258 N 0.499400 -0.280100 0.641420
N259 N 0.338900 -0.092100 0.560560
C260 C 0.585200 -0.365100 0.683700
H261 H 0.580900 -0.371100 0.742600
C262 C 0.680700 -0.445000 0.643300
H263 H 0.740100 -0.501800 0.675000
C264 C 0.686300 -0.439000 0.556200
H265 H 0.748500 -0.493800 0.528300
C266 C 0.599100 -0.351000 0.509500
C267 C 0.599400 -0.336200 0.418400
H268 H 0.658700 -0.389600 0.387300
C269 C 0.514400 -0.245500 0.377600
H270 H 0.515900 -0.238000 0.318600
C271 C 0.421600 -0.160400 0.423100
C272 C 0.331600 -0.063300 0.383900
H273 H 0.328300 -0.053000 0.325000
C274 C 0.248600 0.016200 0.432900
H275 H 0.188200 0.079900 0.407500
C276 C 0.256400 -0.000300 0.521600
H277 H 0.201500 0.055400 0.554500
C278 C 0.419400 -0.172300 0.512200
C279 C 0.507900 -0.270700 0.555300
O280 O 0.196800 -0.027500 0.724740
O281 O 0.788800 0.312900 1.347410
Fe282 Fe 0.846410 -0.341450 1.187210
Fe283 Fe 0.153590 0.341450 0.812790
O284 O 0.211200 -0.312900 0.652590
Fe285 Fe 0.653590 1.158550 1.312790
N286 N 0.500600 1.280100 1.358580
N287 N 0.661100 1.092100 1.439440
C288 C 0.414800 1.365100 1.316300
H289 H 0.419100 1.371100 1.257400
C290 C 0.319300 1.445000 1.356700
H291 H 0.259900 1.501800 1.325000
C292 C 0.313700 1.439000 1.443800
H293 H 0.251500 1.493800 1.471700
C294 C 0.400900 1.351000 1.490500
C295 C 0.400600 1.336200 1.581600
H296 H 0.341300 1.389600 1.612700
C297 C 0.485600 1.245500 1.622400
H298 H 0.484100 1.238000 1.681400
C299 C 0.578400 1.160400 1.576900
C300 C 0.668400 1.063300 1.616100
H301 H 0.671700 1.053000 1.675000
C302 C 0.751400 0.983800 1.567100
H303 H 0.811800 0.920100 1.592500
C304 C 0.743600 1.000300 1.478400
H305 H 0.798500 0.944600 1.445500
C306 C 0.580600 1.172300 1.487800
C307 C 0.492100 1.270700 1.444700
C308 C 0.593500 0.789500 1.125600
C309 C 0.538400 0.900500 1.063450
C310 C 0.507900 0.855200 0.980900
H311 H 0.512500 0.757400 0.967980
C312 C 0.529300 1.047800 1.082970
C313 C 0.558200 1.100900 1.171620
O314 O 0.617000 1.220200 1.182580
O315 O 0.527400 1.023800 1.234330
O316 O 0.524500 0.681800 1.140240
O317 O 0.711200 0.812900 1.152590
O318 O 0.803200 1.027500 1.275260
C319 C 0.470700 0.952200 0.917030
C320 C 0.461600 1.099500 0.936550
C321 C 0.406500 1.210500 0.874400
O322 O 0.475500 1.318200 0.859760
O323 O 0.288800 1.187100 0.847410
C324 C 0.492100 1.144800 1.019100
H325 H 0.487500 1.242600 1.032020
C326 C 0.441800 0.899100 0.828380
O327 O 0.383000 0.779800 0.817420
O328 O 0.472600 0.976200 0.765670
Fe329 Fe 0.346410 0.841450 0.687210
N330 N 0.499400 0.719900 0.641420
N331 N 0.338900 0.907900 0.560560
C332 C 0.585200 0.634900 0.683700
H333 H 0.580900 0.628900 0.742600
C334 C 0.680700 0.555000 0.643300
H335 H 0.740100 0.498200 0.675000
C336 C 0.686300 0.561000 0.556200
H337 H 0.748500 0.506200 0.528300
C338 C 0.599100 0.649000 0.509500
C339 C 0.599400 0.663800 0.418400
H340 H 0.658700 0.610400 0.387300
C341 C 0.514400 0.754500 0.377600
H342 H 0.515900 0.762000 0.318600
C343 C 0.421600 0.839600 0.423100
C344 C 0.331600 0.936700 0.383900
H345 H 0.328300 0.947000 0.325000
C346 C 0.248600 1.016200 0.432900
H347 H 0.188200 1.079900 0.407500
C348 C 0.256400 0.999700 0.521600
H349 H 0.201500 1.055400 0.554500
C350 C 0.419400 0.827700 0.512200
C351 C 0.507900 0.729300 0.555300
O352 O 0.196800 0.972500 0.724740
O353 O 0.788800 1.312900 1.347410
Fe354 Fe 0.846410 0.658550 1.187210
Fe355 Fe 0.153590 1.341450 0.812790
O356 O 0.211200 0.687100 0.652590
Fe357 Fe -0.153590 0.658550 0.187210
N358 N -0.000600 0.780100 0.141420
N359 N -0.161100 0.592100 0.060560
C360 C 0.085200 0.865100 0.183700
H361 H 0.080900 0.871100 0.242600
C362 C 0.180700 0.945000 0.143300
H363 H 0.240100 1.001800 0.175000
C364 C 0.186300 0.939000 0.056200
H365 H 0.248500 0.993800 0.028300
C366 C 0.099100 0.851000 0.009500
C367 C 0.099400 0.836200 -0.081600
H368 H 0.158700 0.889600 -0.112700
C369 C 0.014400 0.745500 -0.122400
H370 H 0.015900 0.738000 -0.181400
C371 C -0.078400 0.660400 -0.076900
C372 C -0.168400 0.563300 -0.116100
H373 H -0.171700 0.553000 -0.175000
C374 C -0.251400 0.483800 -0.067100
H375 H -0.311800 0.420100 -0.092500
C376 C -0.243600 0.500300 0.021600
H377 H -0.298500 0.444600 0.054500
C378 C -0.080600 0.672300 0.012200
C379 C 0.007900 0.770700 0.055300
C380 C -0.093500 0.289500 0.374400
C381 C -0.038400 0.400500 0.436550
C382 C -0.007900 0.355200 0.519100
H383 H -0.012500 0.257400 0.532020
C384 C -0.029300 0.547800 0.417030
C385 C -0.058200 0.600900 0.328380
O386 O -0.117000 0.720200 0.317420
O387 O -0.027400 0.523800 0.265670
O388 O -0.024500 0.181800 0.359760
O389 O -0.211200 0.312900 0.347410
O390 O -0.303200 0.527500 0.224740
C391 C 0.029300 0.452200 0.582970
C392 C 0.038400 0.599500 0.563450
C393 C 0.093500 0.710500 0.625600
O394 O 0.024500 0.818200 0.640240
C395 C 0.007900 0.644800 0.480900
H396 H 0.012500 0.742600 0.467980
C397 C 0.058200 0.399100 0.671620
O398 O 0.117000 0.279800 0.682580
O399 O 0.027400 0.476200 0.734330
N400 N 0.000600 0.219900 0.858580
N401 N 0.161100 0.407900 0.939440
C402 C -0.085200 0.134900 0.816300
H403 H -0.080900 0.128900 0.757400
C404 C -0.180700 0.055000 0.856700
H405 H -0.240100 -0.001800 0.825000
C406 C -0.186300 0.061000 0.943800
H407 H -0.248500 0.006200 0.971700
C408 C -0.099100 0.149000 0.990500
C409 C -0.099400 0.163800 1.081600
H410 H -0.158700 0.110400 1.112700
C411 C -0.014400 0.254500 1.122400
H412 H -0.015900 0.262000 1.181400
C413 C 0.078400 0.339600 1.076900
C414 C 0.168400 0.436700 1.116100
H415 H 0.171700 0.447000 1.175000
C416 C 0.251400 0.516200 1.067100
H417 H 0.311800 0.579900 1.092500
C418 C 0.243600 0.499700 0.978400
H419 H 0.298500 0.555400 0.945500
C420 C 0.080600 0.327700 0.987800
C421 C -0.007900 0.229300 0.944700
O422 O 0.303200 0.472500 0.775260
O423 O -0.288800 0.812900 0.152590
Fe424 Fe -0.346410 0.158550 0.312790

#END
