./ABIWAL_from_xyz.cif_generated_by_CrystalShift
_symmetry_cell_setting triclinic
_symmetry_space_group_name_H-M 'P 1'
loop_
_symmetry_equiv_pos_site_id
_symmetry_equiv_pos_as_xyz
1 x,y,z
_cell_length_a 8.260300
_cell_length_b 11.816200
_cell_length_c 14.413800
_cell_angle_alpha 90.000000
_cell_angle_beta 105.309000
_cell_angle_gamma 90.000000
_cell_volume 1356.942857
loop_
_atom_site_label
_atom_site_type_symbol
_atom_site_fract_x
_atom_site_fract_y
_atom_site_fract_z
Cd1 Cd 1.000000 0.500000 0.500000
C2 C 0.499200 0.979500 0.406100
H3 H 0.497800 0.966700 0.342200
C4 C 0.572900 0.901400 0.475100
C5 C 0.572500 0.923400 0.569500
H6 H 0.621600 0.871600 0.617300
C7 C 0.655600 0.799700 0.451600
C8 C 0.771800 0.729700 0.508200
H9 H 0.810500 0.734900 0.574800
C10 C 0.738400 0.672800 0.364700
H11 H 0.747300 0.631300 0.311500
C12 C 0.910700 0.405400 -0.039300
H13 H 0.850200 0.341300 -0.065000
C14 C 0.948200 0.424800 0.058700
H15 H 0.912700 0.373300 0.098000
C16 C 1.037900 0.519800 0.099400
C17 C 1.073000 0.537500 0.202800
C18 C 1.022000 0.479800 0.272300
H19 H 0.954100 0.415800 0.261600
C20 C 1.173800 0.616600 0.344200
H21 H 1.231800 0.666300 0.391400
C22 C 0.664200 0.357500 0.362800
C23 C 0.523100 0.422900 0.384600
H24 H 0.482400 0.383100 0.432000
H25 H 0.433800 0.431300 0.327000
H26 H 0.562800 0.496300 0.409000
N27 N 0.823300 0.650900 0.452700
N28 N 0.636700 0.762200 0.360300
H29 H 0.571400 0.790500 0.308900
N30 N 1.086300 0.530600 0.360900
N31 N 1.170100 0.624700 0.250900
H32 H 1.219700 0.675500 0.225600
O33 O 0.808500 0.369500 0.413000
O34 O 0.626500 0.289400 0.294100
Cd35 Cd -0.000000 1.500000 0.500000
Cd36 Cd 1.000000 0.500000 -0.500000
C37 C 0.500800 1.020500 0.593900
H38 H 0.502200 1.033300 0.657800
C39 C 0.427100 1.098600 0.524900
C40 C 0.427500 1.076600 0.430500
H41 H 0.378400 1.128400 0.382700
C42 C 0.344400 1.200300 0.548400
C43 C 0.228200 1.270300 0.491800
H44 H 0.189500 1.265100 0.425200
C45 C 0.261600 1.327200 0.635300
H46 H 0.252700 1.368700 0.688500
C47 C 1.089300 0.594600 0.039300
H48 H 1.149800 0.658700 0.065000
C49 C 1.051800 0.575200 -0.058700
H50 H 1.087300 0.626700 -0.098000
C51 C 0.962100 0.480200 -0.099400
C52 C 0.927000 0.462500 -0.202800
C53 C 0.978000 0.520200 -0.272300
H54 H 1.045900 0.584200 -0.261600
C55 C 0.826200 0.383400 -0.344200
H56 H 0.768200 0.333700 -0.391400
C57 C 1.335800 0.642500 0.637200
C58 C 1.476900 0.577100 0.615400
H59 H 1.517600 0.616900 0.568000
H60 H 1.566200 0.568700 0.673000
H61 H 1.437200 0.503700 0.591000
N62 N 0.176700 1.349100 0.547300
N63 N 1.176700 0.349100 0.547300
N64 N 0.363300 1.237800 0.639700
H65 H 0.428600 1.209500 0.691100
N66 N 0.913700 0.469400 -0.360900
N67 N 0.913700 0.469400 0.639100
N68 N 0.829900 0.375300 -0.250900
H69 H 0.780300 0.324500 -0.225600
O70 O 1.191500 0.630500 0.587000
O71 O 1.373500 0.710600 0.705900
Cd72 Cd 0.000000 0.000000 0.000000
C73 C 0.500800 0.479500 0.093900
H74 H 0.502200 0.466700 0.157800
C75 C 0.427100 0.401400 0.024900
C76 C 0.427500 0.423400 -0.069500
H77 H 0.378400 0.371600 -0.117300
C78 C 0.344400 0.299700 0.048400
C79 C 0.228200 0.229700 -0.008200
H80 H 0.189500 0.234900 -0.074800
C81 C 0.261600 0.172800 0.135300
H82 H 0.252700 0.131300 0.188500
C83 C 0.089300 -0.094600 0.539300
H84 H 0.149800 -0.158700 0.565000
C85 C 0.051800 -0.075200 0.441300
H86 H 0.087300 -0.126700 0.402000
C87 C -0.037900 0.019800 0.400600
C88 C -0.073000 0.037500 0.297200
C89 C -0.022000 -0.020200 0.227700
H90 H 0.045900 -0.084200 0.238400
C91 C -0.173800 0.116600 0.155800
H92 H -0.231800 0.166300 0.108600
C93 C 0.335800 -0.142500 0.137200
C94 C 0.476900 -0.077100 0.115400
H95 H 0.517600 -0.116900 0.068000
H96 H 0.566200 -0.068700 0.173000
H97 H 0.437200 -0.003700 0.091000
N98 N 0.176700 0.150900 0.047300
N99 N 0.363300 0.262200 0.139700
H100 H 0.428600 0.290500 0.191100
N101 N -0.086300 0.030600 0.139100
N102 N -0.170100 0.124700 0.249100
H103 H -0.219700 0.175500 0.274400
O104 O 0.191500 -0.130500 0.087000
O105 O 0.373500 -0.210600 0.205900
Cd106 Cd 1.000000 1.000000 0.000000
Cd107 Cd 0.000000 0.000000 1.000000
C108 C 0.499200 0.520500 -0.093900
H109 H 0.497800 0.533300 -0.157800
C110 C 0.572900 0.598600 -0.024900
C111 C 0.572500 0.576600 0.069500
H112 H 0.621600 0.628400 0.117300
C113 C 0.655600 0.700300 -0.048400
C114 C 0.771800 0.770300 0.008200
H115 H 0.810500 0.765100 0.074800
C116 C 0.738400 0.827200 -0.135300
H117 H 0.747300 0.868700 -0.188500
C118 C -0.089300 0.094600 0.460700
H119 H -0.149800 0.158700 0.435000
C120 C -0.051800 0.075200 0.558700
H121 H -0.087300 0.126700 0.598000
C122 C 0.037900 -0.019800 0.599400
C123 C 0.073000 -0.037500 0.702800
C124 C 0.022000 0.020200 0.772300
H125 H -0.045900 0.084200 0.761600
C126 C 0.173800 -0.116600 0.844200
H127 H 0.231800 -0.166300 0.891400
C128 C -0.335800 0.142500 -0.137200
C129 C -0.476900 0.077100 -0.115400
H130 H -0.517600 0.116900 -0.068000
H131 H -0.566200 0.068700 -0.173000
H132 H -0.437200 0.003700 -0.091000
N133 N 0.823300 0.849100 -0.047300
N134 N -0.176700 -0.150900 -0.047300
N135 N 0.636700 0.737800 -0.139700
H136 H 0.571400 0.709500 -0.191100
N137 N 0.086300 -0.030600 0.860900
N138 N 0.086300 -0.030600 -0.139100
N139 N 0.170100 -0.124700 0.750900
H140 H 0.219700 -0.175500 0.725600
O141 O -0.191500 0.130500 -0.087000
O142 O -0.373500 0.210600 -0.205900
Cd143 Cd 1.000000 1.000000 1.000000
C144 C 0.499200 0.520500 0.906100
H145 H 0.497800 0.533300 0.842200
C146 C 0.572900 0.598600 0.975100
C147 C 0.572500 0.576600 1.069500
H148 H 0.621600 0.628400 1.117300
C149 C 0.655600 0.700300 0.951600
C150 C 0.771800 0.770300 1.008200
H151 H 0.810500 0.765100 1.074800
C152 C 0.738400 0.827200 0.864700
H153 H 0.747300 0.868700 0.811500
C154 C 0.910700 1.094600 0.460700
H155 H 0.850200 1.158700 0.435000
C156 C 0.948200 1.075200 0.558700
H157 H 0.912700 1.126700 0.598000
C158 C 1.037900 0.980200 0.599400
C159 C 1.073000 0.962500 0.702800
C160 C 1.022000 1.020200 0.772300
H161 H 0.954100 1.084200 0.761600
C162 C 1.173800 0.883400 0.844200
H163 H 1.231800 0.833700 0.891400
C164 C 0.664200 1.142500 0.862800
C165 C 0.523100 1.077100 0.884600
H166 H 0.482400 1.116900 0.932000
H167 H 0.433800 1.068700 0.827000
H168 H 0.562800 1.003700 0.909000
N169 N 0.823300 0.849100 0.952700
N170 N 0.636700 0.737800 0.860300
H171 H 0.571400 0.709500 0.808900
N172 N 1.086300 0.969400 0.860900
N173 N 1.170100 0.875300 0.750900
H174 H 1.219700 0.824500 0.725600
O175 O 0.808500 1.130500 0.913000
O176 O 0.626500 1.210600 0.794100
C177 C 0.500800 0.479500 1.093900
H178 H 0.502200 0.466700 1.157800
C179 C 0.427100 0.401400 1.024900
C180 C 0.427500 0.423400 0.930500
H181 H 0.378400 0.371600 0.882700
C182 C 0.344400 0.299700 1.048400
C183 C 0.228200 0.229700 0.991800
H184 H 0.189500 0.234900 0.925200
C185 C 0.261600 0.172800 1.135300
H186 H 0.252700 0.131300 1.188500
C187 C 1.089300 0.905400 0.539300
H188 H 1.149800 0.841300 0.565000
C189 C 1.051800 0.924800 0.441300
H190 H 1.087300 0.873300 0.402000
C191 C 0.962100 1.019800 0.400600
C192 C 0.927000 1.037500 0.297200
C193 C 0.978000 0.979800 0.227700
H194 H 1.045900 0.915800 0.238400
C195 C 0.826200 1.116600 0.155800
H196 H 0.768200 1.166300 0.108600
C197 C 1.335800 0.857500 1.137200
C198 C 1.476900 0.922900 1.115400
H199 H 1.517600 0.883100 1.068000
H200 H 1.566200 0.931300 1.173000
H201 H 1.437200 0.996300 1.091000
N202 N 0.176700 0.150900 1.047300
N203 N 1.176700 1.150900 1.047300
N204 N 0.363300 0.262200 1.139700
H205 H 0.428600 0.290500 1.191100
N206 N 0.913700 1.030600 0.139100
N207 N 0.913700 1.030600 1.139100
N208 N 0.829900 1.124700 0.249100
H209 H 0.780300 1.175500 0.274400
O210 O 1.191500 0.869500 1.087000
O211 O 1.373500 0.789400 1.205900
Cd212 Cd -0.000000 0.500000 0.500000
C213 C 0.500800 0.020500 0.593900
H214 H 0.502200 0.033300 0.657800
C215 C 0.427100 0.098600 0.524900
C216 C 0.427500 0.076600 0.430500
H217 H 0.378400 0.128400 0.382700
C218 C 0.344400 0.200300 0.548400
C219 C 0.228200 0.270300 0.491800
H220 H 0.189500 0.265100 0.425200
C221 C 0.261600 0.327200 0.635300
H222 H 0.252700 0.368700 0.688500
C223 C 0.089300 0.594600 1.039300
H224 H 0.149800 0.658700 1.065000
C225 C 0.051800 0.575200 0.941300
H226 H 0.087300 0.626700 0.902000
C227 C -0.037900 0.480200 0.900600
C228 C -0.073000 0.462500 0.797200
C229 C -0.022000 0.520200 0.727700
H230 H 0.045900 0.584200 0.738400
C231 C -0.173800 0.383400 0.655800
H232 H -0.231800 0.333700 0.608600
C233 C 0.335800 0.642500 0.637200
C234 C 0.476900 0.577100 0.615400
H235 H 0.517600 0.616900 0.568000
H236 H 0.566200 0.568700 0.673000
H237 H 0.437200 0.503700 0.591000
N238 N 0.176700 0.349100 0.547300
N239 N 0.363300 0.237800 0.639700
H240 H 0.428600 0.209500 0.691100
N241 N -0.086300 0.469400 0.639100
N242 N -0.170100 0.375300 0.749100
H243 H -0.219700 0.324500 0.774400
O244 O 0.191500 0.630500 0.587000
O245 O 0.373500 0.710600 0.705900
Cd246 Cd 1.000000 -0.500000 0.500000
Cd247 Cd -0.000000 0.500000 1.500000
C248 C 0.499200 -0.020500 0.406100
H249 H 0.497800 -0.033300 0.342200
C250 C 0.572900 -0.098600 0.475100
C251 C 0.572500 -0.076600 0.569500
H252 H 0.621600 -0.128400 0.617300
C253 C 0.655600 -0.200300 0.451600
C254 C 0.771800 -0.270300 0.508200
H255 H 0.810500 -0.265100 0.574800
C256 C 0.738400 -0.327200 0.364700
H257 H 0.747300 -0.368700 0.311500
C258 C -0.089300 0.405400 0.960700
H259 H -0.149800 0.341300 0.935000
C260 C -0.051800 0.424800 1.058700
H261 H -0.087300 0.373300 1.098000
C262 C 0.037900 0.519800 1.099400
C263 C 0.073000 0.537500 1.202800
C264 C 0.022000 0.479800 1.272300
H265 H -0.045900 0.415800 1.261600
C266 C 0.173800 0.616600 1.344200
H267 H 0.231800 0.666300 1.391400
C268 C -0.335800 0.357500 0.362800
C269 C -0.476900 0.422900 0.384600
H270 H -0.517600 0.383100 0.432000
H271 H -0.566200 0.431300 0.327000
H272 H -0.437200 0.496300 0.409000
N273 N 0.823300 -0.349100 0.452700
N274 N -0.176700 0.650900 0.452700
N275 N 0.636700 -0.237800 0.360300
H276 H 0.571400 -0.209500 0.308900
N277 N 0.086300 0.530600 1.360900
N278 N 0.086300 0.530600 0.360900
N279 N 0.170100 0.624700 1.250900
H280 H 0.219700 0.675500 1.225600
O281 O -0.191500 0.369500 0.413000
O282 O -0.373500 0.289400 0.294100

#END
