./ABIYUI_from_xyz.cif_generated_by_CrystalShift
_symmetry_cell_setting triclinic
_symmetry_space_group_name_H-M 'P 1'
loop_
_symmetry_equiv_pos_site_id
_symmetry_equiv_pos_as_xyz
1 x,y,z
_cell_length_a 10.831400
_cell_length_b 12.082800
_cell_length_c 15.526900
_cell_angle_alpha 90.000000
_cell_angle_beta 90.132000
_cell_angle_gamma 90.000000
_cell_volume 2032.056554
loop_
_atom_site_label
_atom_site_type_symbol
_atom_site_fract_x
_atom_site_fract_y
_atom_site_fract_z
I1 I 0.380910 0.746830 1.120280
Br2 Br 0.629230 0.632090 1.009590
C3 C 0.474900 0.658100 0.953200
C4 C 0.263500 0.738600 0.935100
C5 C 0.282600 0.856100 0.895800
C6 C 0.317100 0.526700 0.768300
C7 C 0.380400 0.707800 0.989000
C8 C 0.248800 0.653300 0.863200
C9 C 0.476200 0.616500 0.862700
H10 H 0.517400 0.669800 0.826000
H11 H 0.521700 0.547500 0.860100
C12 C 0.147800 0.734600 0.992300
N13 N 0.352700 0.599200 0.832500
C14 C 0.146600 0.618900 0.817800
C15 C 0.075900 0.825300 1.009500
H16 H 0.097000 0.893300 0.985700
C17 C 0.242800 0.879900 0.812600
H18 H 0.208800 0.823900 0.779000
C19 C 0.189500 0.536900 0.757700
C20 C 0.014100 0.659900 0.821100
H21 H -0.024600 0.633000 0.872500
H22 H -0.030100 0.633100 0.771600
H23 H 0.013500 0.739300 0.821100
C24 C 0.388800 0.454500 0.719500
H25 H 0.473600 0.448500 0.727800
C26 C 0.131600 0.471100 0.695300
H27 H 0.046600 0.475400 0.687100
C28 C 0.341600 1.047900 0.909900
H29 H 0.375200 1.104300 0.943300
C30 C 0.327800 0.392300 0.658200
H31 H 0.372800 0.343800 0.624000
C32 C 0.331300 0.941800 0.943500
H33 H 0.357900 0.928300 0.999600
C34 C 0.302700 1.069800 0.827900
H35 H 0.309700 1.140900 0.805500
C36 C -0.027100 0.817900 1.061400
H37 H -0.074300 0.880600 1.072100
C38 C 0.011300 0.626800 1.080100
H39 H -0.010600 0.558800 1.103600
C40 C 0.253200 0.986200 0.778900
H41 H 0.226500 1.000700 0.723000
C42 C -0.060200 0.718100 1.097500
H43 H -0.129300 0.712600 1.132700
C44 C 0.114000 0.633500 1.029100
H45 H 0.161300 0.570700 1.018900
C46 C 0.201300 0.400100 0.646100
H47 H 0.163100 0.356900 0.604300
I48 I 0.619090 0.246830 0.379720
Br49 Br 0.370770 0.132090 0.490410
C50 C 0.525100 0.158100 0.546800
C51 C 0.736500 0.238600 0.564900
C52 C 0.717400 0.356100 0.604200
C53 C 0.682900 0.026700 0.731700
C54 C 0.619600 0.207800 0.511000
C55 C 0.751200 0.153300 0.636800
C56 C 0.523800 0.116500 0.637300
H57 H 0.482600 0.169800 0.674000
H58 H 0.478300 0.047500 0.639900
C59 C 0.852200 0.234600 0.507700
N60 N 0.647300 0.099200 0.667500
C61 C 0.853400 0.118900 0.682200
C62 C 0.924100 0.325300 0.490500
H63 H 0.903000 0.393300 0.514300
C64 C 0.757200 0.379900 0.687400
H65 H 0.791200 0.323900 0.721000
C66 C 0.810500 0.036900 0.742300
C67 C 0.985900 0.159900 0.678900
H68 H 1.024600 0.133000 0.627500
H69 H 1.030100 0.133100 0.728400
H70 H 0.986500 0.239300 0.678900
C71 C 0.611200 -0.045500 0.780500
H72 H 0.526400 -0.051500 0.772200
C73 C 0.868400 -0.028900 0.804700
H74 H 0.953400 -0.024600 0.812900
C75 C 0.658400 0.547900 0.590100
H76 H 0.624800 0.604300 0.556700
C77 C 0.672200 -0.107700 0.841800
H78 H 0.627200 -0.156200 0.876000
C79 C 0.668700 0.441800 0.556500
H80 H 0.642100 0.428300 0.500400
C81 C 0.697300 0.569800 0.672100
H82 H 0.690300 0.640900 0.694500
C83 C 1.027100 0.317900 0.438600
H84 H 1.074300 0.380600 0.427900
C85 C 0.988700 0.126800 0.419900
H86 H 1.010600 0.058800 0.396400
C87 C 0.746800 0.486200 0.721100
H88 H 0.773500 0.500700 0.777000
C89 C 1.060200 0.218100 0.402500
H90 H 1.129300 0.212600 0.367300
C91 C 0.886000 0.133500 0.470900
H92 H 0.838700 0.070700 0.481100
C93 C 0.798700 -0.099900 0.853900
H94 H 0.836900 -0.143100 0.895700
I95 I 0.619090 0.253170 -0.120280
Br96 Br 0.370770 0.367910 -0.009590
C97 C 0.525100 0.341900 0.046800
C98 C 0.736500 0.261400 0.064900
C99 C 0.717400 0.143900 0.104200
C100 C 0.682900 0.473300 0.231700
C101 C 0.619600 0.292200 0.011000
C102 C 0.751200 0.346700 0.136800
C103 C 0.523800 0.383500 0.137300
H104 H 0.482600 0.330200 0.174000
H105 H 0.478300 0.452500 0.139900
C106 C 0.852200 0.265400 0.007700
N107 N 0.647300 0.400800 0.167500
C108 C 0.853400 0.381100 0.182200
C109 C 0.924100 0.174700 -0.009500
H110 H 0.903000 0.106700 0.014300
C111 C 0.757200 0.120100 0.187400
H112 H 0.791200 0.176100 0.221000
C113 C 0.810500 0.463100 0.242300
C114 C 0.985900 0.340100 0.178900
H115 H 1.024600 0.367000 0.127500
H116 H 1.030100 0.366900 0.228400
H117 H 0.986500 0.260700 0.178900
C118 C 0.611200 0.545500 0.280500
H119 H 0.526400 0.551500 0.272200
C120 C 0.868400 0.528900 0.304700
H121 H 0.953400 0.524600 0.312900
C122 C 0.658400 -0.047900 0.090100
H123 H 0.624800 -0.104300 0.056700
C124 C 0.672200 0.607700 0.341800
H125 H 0.627200 0.656200 0.376000
C126 C 0.668700 0.058200 0.056500
H127 H 0.642100 0.071700 0.000400
C128 C 0.697300 -0.069800 0.172100
H129 H 0.690300 -0.140900 0.194500
C130 C 1.027100 0.182100 -0.061400
H131 H 1.074300 0.119400 -0.072100
C132 C 0.988700 0.373200 -0.080100
H133 H 1.010600 0.441200 -0.103600
C134 C 0.746800 0.013800 0.221100
H135 H 0.773500 -0.000700 0.277000
C136 C 1.060200 0.281900 -0.097500
H137 H 1.129300 0.287400 -0.132700
C138 C 0.886000 0.366500 -0.029100
H139 H 0.838700 0.429300 -0.018900
C140 C 0.798700 0.599900 0.353900
H141 H 0.836900 0.643100 0.395700
I142 I 0.380910 0.753170 0.620280
Br143 Br 0.629230 0.867910 0.509590
C144 C 0.474900 0.841900 0.453200
C145 C 0.263500 0.761400 0.435100
C146 C 0.282600 0.643900 0.395800
C147 C 0.317100 0.973300 0.268300
C148 C 0.380400 0.792200 0.489000
C149 C 0.248800 0.846700 0.363200
C150 C 0.476200 0.883500 0.362700
H151 H 0.517400 0.830200 0.326000
H152 H 0.521700 0.952500 0.360100
C153 C 0.147800 0.765400 0.492300
N154 N 0.352700 0.900800 0.332500
C155 C 0.146600 0.881100 0.317800
C156 C 0.075900 0.674700 0.509500
H157 H 0.097000 0.606700 0.485700
C158 C 0.242800 0.620100 0.312600
H159 H 0.208800 0.676100 0.279000
C160 C 0.189500 0.963100 0.257700
C161 C 0.014100 0.840100 0.321100
H162 H -0.024600 0.867000 0.372500
H163 H -0.030100 0.866900 0.271600
H164 H 0.013500 0.760700 0.321100
C165 C 0.388800 1.045500 0.219500
H166 H 0.473600 1.051500 0.227800
C167 C 0.131600 1.028900 0.195300
H168 H 0.046600 1.024600 0.187100
C169 C 0.341600 0.452100 0.409900
H170 H 0.375200 0.395700 0.443300
C171 C 0.327800 1.107700 0.158200
H172 H 0.372800 1.156200 0.124000
C173 C 0.331300 0.558200 0.443500
H174 H 0.357900 0.571700 0.499600
C175 C 0.302700 0.430200 0.327900
H176 H 0.309700 0.359100 0.305500
C177 C -0.027100 0.682100 0.561400
H178 H -0.074300 0.619400 0.572100
C179 C 0.011300 0.873200 0.580100
H180 H -0.010600 0.941200 0.603600
C181 C 0.253200 0.513800 0.278900
H182 H 0.226500 0.499300 0.223000
C183 C -0.060200 0.781900 0.597500
H184 H -0.129300 0.787400 0.632700
C185 C 0.114000 0.866500 0.529100
H186 H 0.161300 0.929300 0.518900
C187 C 0.201300 1.099900 0.146100
H188 H 0.163100 1.143100 0.104300

#END
