./ABOGAC_from_xyz.cif_generated_by_CrystalShift
_symmetry_cell_setting triclinic
_symmetry_space_group_name_H-M 'P 1'
loop_
_symmetry_equiv_pos_site_id
_symmetry_equiv_pos_as_xyz
1 x,y,z
_cell_length_a 7.369000
_cell_length_b 14.000000
_cell_length_c 18.060000
_cell_angle_alpha 106.500000
_cell_angle_beta 100.900000
_cell_angle_gamma 100.080000
_cell_volume 1701.669679
loop_
_atom_site_label
_atom_site_type_symbol
_atom_site_fract_x
_atom_site_fract_y
_atom_site_fract_z
O1 O 0.864900 1.165690 0.324270
C2 C 0.723200 1.167000 0.362660
O3 O 0.696000 1.247060 0.394760
C4 C 0.610300 1.068110 0.362680
C5 C 0.453900 1.078280 0.405510
H6 H 0.341600 1.024900 0.375300
H7 H 0.426000 1.144100 0.411100
H8 H 0.494700 1.072300 0.457400
C9 C 0.654500 0.982710 0.327970
C10 C 0.540400 0.882930 0.330840
H11 H 0.446400 0.903700 0.359900
C12 C 0.656300 0.834880 0.381830
C13 C 0.851000 0.871070 0.412980
H14 H 0.916600 0.923000 0.398400
C15 C 0.948300 0.832300 0.464520
H16 H 1.080100 0.855300 0.483200
C17 C 0.849500 0.758000 0.489110
H18 H 0.914700 0.730800 0.524300
C19 C 0.657200 0.725300 0.461390
H20 H 0.591600 0.676900 0.479300
C21 C 0.557100 0.761530 0.407850
C22 C 0.352900 0.721410 0.384140
H23 H 0.297800 0.704300 0.422400
C24 C 0.237400 0.706410 0.316120
H25 H 0.110200 0.677000 0.310600
C26 C 0.281500 0.729590 0.247960
C27 C 0.165200 0.669540 0.176430
H28 H 0.070300 0.614300 0.173600
C29 C 0.185500 0.689000 0.108330
H30 H 0.106100 0.646200 0.059300
C31 C 0.321600 0.770800 0.111730
H32 H 0.333600 0.784000 0.065000
C33 C 0.439000 0.832660 0.182420
H34 H 0.530000 0.889200 0.184400
C35 C 0.424500 0.812430 0.251370
C36 C 0.808400 0.985560 0.288960
C37 C 0.865900 0.901550 0.250530
H38 H 0.806800 0.837100 0.250500
C39 C 1.009000 0.909600 0.211900
H40 H 1.043700 0.850700 0.185900
C41 C 1.101500 1.003500 0.211110
H42 H 1.197000 1.008200 0.184300
C43 C 1.052100 1.087500 0.249340
H44 H 1.115100 1.151800 0.250600
C45 C 0.907500 1.078300 0.286930
O46 O 0.135100 -0.165690 0.675730
C47 C 0.276800 -0.167000 0.637340
O48 O 0.304000 -0.247060 0.605240
C49 C 0.389700 -0.068110 0.637320
C50 C 0.546100 -0.078280 0.594490
H51 H 0.658400 -0.024900 0.624700
H52 H 0.574000 -0.144100 0.588900
H53 H 0.505300 -0.072300 0.542600
C54 C 0.345500 0.017290 0.672030
C55 C 0.459600 0.117070 0.669160
H56 H 0.553600 0.096300 0.640100
C57 C 0.343700 0.165120 0.618170
C58 C 0.149000 0.128930 0.587020
H59 H 0.083400 0.077000 0.601600
C60 C 0.051700 0.167700 0.535480
H61 H -0.080100 0.144700 0.516800
C62 C 0.150500 0.242000 0.510890
H63 H 0.085300 0.269200 0.475700
C64 C 0.342800 0.274700 0.538610
H65 H 0.408400 0.323100 0.520700
C66 C 0.442900 0.238470 0.592150
C67 C 0.647100 0.278590 0.615860
H68 H 0.702200 0.295700 0.577600
C69 C 0.762600 0.293590 0.683880
H70 H 0.889800 0.323000 0.689400
C71 C 0.718500 0.270410 0.752040
C72 C 0.834800 0.330460 0.823570
H73 H 0.929700 0.385700 0.826400
C74 C 0.814500 0.311000 0.891670
H75 H 0.893900 0.353800 0.940700
C76 C 0.678400 0.229200 0.888270
H77 H 0.666400 0.216000 0.935000
C78 C 0.561000 0.167340 0.817580
H79 H 0.470000 0.110800 0.815600
C80 C 0.575500 0.187570 0.748630
C81 C 0.191600 0.014440 0.711040
C82 C 0.134100 0.098450 0.749470
H83 H 0.193200 0.162900 0.749500
C84 C -0.009000 0.090400 0.788100
H85 H -0.043700 0.149300 0.814100
C86 C -0.101500 -0.003500 0.788890
H87 H -0.197000 -0.008200 0.815700
C88 C -0.052100 -0.087500 0.750660
H89 H -0.115100 -0.151800 0.749400
C90 C 0.092500 -0.078300 0.713070
O91 O 0.843000 0.081810 0.048470
C92 C 0.706300 0.080900 0.090570
O93 O 0.608000 -0.000810 0.083420
C94 C 0.692300 0.177280 0.140670
C95 C 0.522400 0.167270 0.175580
H96 H 0.525800 0.232500 0.212700
H97 H 0.525700 0.117600 0.202800
H98 H 0.407500 0.145300 0.133500
C99 C 0.825300 0.262430 0.152380
C100 C 0.817500 0.360660 0.209630
H101 H 0.707700 0.341500 0.230300
C102 C 0.767900 0.440290 0.172480
C103 C 0.772200 0.433480 0.096310
H104 H 0.813600 0.379600 0.066400
C105 C 0.717900 0.502830 0.061660
H106 H 0.723700 0.496500 0.009500
C107 C 0.656000 0.580500 0.104780
H108 H 0.623000 0.629800 0.083100
C109 C 0.642000 0.586530 0.179200
H110 H 0.592600 0.637900 0.207500
C111 C 0.700200 0.517230 0.213900
C112 C 0.676500 0.529300 0.292300
H113 H 0.572600 0.554000 0.304200
C114 C 0.785400 0.509500 0.349220
H115 H 0.750100 0.522600 0.397200
C116 C 0.952300 0.470000 0.347400
C117 C 1.091800 0.502300 0.417250
H118 H 1.076000 0.549600 0.462000
C119 C 1.251300 0.467500 0.423000
H120 H 1.342800 0.490500 0.471400
C121 C 1.279300 0.400000 0.359500
H122 H 1.389500 0.375900 0.363100
C123 C 1.143800 0.367740 0.290130
H124 H 1.161100 0.319900 0.246000
C125 C 0.981400 0.403020 0.282340
C126 C 0.976000 0.259160 0.109750
C127 C 1.121200 0.341760 0.115590
H128 H 1.128400 0.406200 0.150800
C129 C 1.253600 0.331900 0.071700
H130 H 1.348100 0.388900 0.077200
C131 C 1.246100 0.239100 0.020350
H132 H 1.334800 0.231300 -0.009900
C133 C 1.107900 0.157900 0.013710
H134 H 1.101500 0.093800 -0.021900
C135 C 0.976800 0.167460 0.058090
O136 O 0.157000 0.918190 0.951530
C137 C 0.293700 0.919100 0.909430
O138 O 0.392000 1.000810 0.916580
C139 C 0.307700 0.822720 0.859330
C140 C 0.477600 0.832730 0.824420
H141 H 0.474200 0.767500 0.787300
H142 H 0.474300 0.882400 0.797200
H143 H 0.592500 0.854700 0.866500
C144 C 0.174700 0.737570 0.847620
C145 C 0.182500 0.639340 0.790370
H146 H 0.292300 0.658500 0.769700
C147 C 0.232100 0.559710 0.827520
C148 C 0.227800 0.566520 0.903690
H149 H 0.186400 0.620400 0.933600
C150 C 0.282100 0.497170 0.938340
H151 H 0.276300 0.503500 0.990500
C152 C 0.344000 0.419500 0.895220
H153 H 0.377000 0.370200 0.916900
C154 C 0.358000 0.413470 0.820800
H155 H 0.407400 0.362100 0.792500
C156 C 0.299800 0.482770 0.786100
C157 C 0.323500 0.470700 0.707700
H158 H 0.427400 0.446000 0.695800
C159 C 0.214600 0.490500 0.650780
H160 H 0.249900 0.477400 0.602800
C161 C 0.047700 0.530000 0.652600
C162 C -0.091800 0.497700 0.582750
H163 H -0.076000 0.450400 0.538000
C164 C -0.251300 0.532500 0.577000
H165 H -0.342800 0.509500 0.528600
C166 C -0.279300 0.600000 0.640500
H167 H -0.389500 0.624100 0.636900
C168 C -0.143800 0.632260 0.709870
H169 H -0.161100 0.680100 0.754000
C170 C 0.018600 0.596980 0.717660
C171 C 0.024000 0.740840 0.890250
C172 C -0.121200 0.658240 0.884410
H173 H -0.128400 0.593800 0.849200
C174 C -0.253600 0.668100 0.928300
H175 H -0.348100 0.611100 0.922800
C176 C -0.246100 0.760900 0.979650
H177 H -0.334800 0.768700 1.009900
C178 C -0.107900 0.842100 0.986290
H179 H -0.101500 0.906200 1.021900
C180 C 0.023200 0.832540 0.941910

#END
