C:\cif_editor\VEWSIC_layer_moved.cif_generated_by_CrystalShift
_symmetry_cell_setting triclinic
_symmetry_space_group_name_H-M 'P 1'
loop_
_symmetry_equiv_pos_site_id
_symmetry_equiv_pos_as_xyz
1 x,y,z
_cell_length_a 25.093655
_cell_length_b 4.021000
_cell_length_c 19.824000
_cell_angle_alpha 90.000000
_cell_angle_beta 38.100356
_cell_angle_gamma 90.000000
_cell_volume 1234.250016
loop_
_atom_site_label
_atom_site_type_symbol
_atom_site_fract_x
_atom_site_fract_y
_atom_site_fract_z
C1 C 0.666900 0.949100 0.793800
C2 C 0.601000 0.785300 0.827500
H3 H 0.547500 0.749200 0.903000
C4 C 0.613500 0.673900 0.750100
H5 H 0.568000 0.563800 0.772400
C6 C 0.692900 0.721600 0.638600
C7 C 0.756700 0.893200 0.608800
H8 H 0.809800 0.937700 0.533800
C9 C 0.744900 1.001300 0.685800
H10 H 0.790300 1.110400 0.664000
C11 C 0.703400 0.585600 0.560100
C12 C 0.800000 0.557000 0.371000
C13 C 0.748100 0.632900 0.368900
H14 H 0.695600 0.750800 0.428000
C15 C 0.772200 0.537700 0.281400
H16 H 0.736500 0.588000 0.279400
C17 C 0.848100 0.369600 0.196700
C18 C 0.901300 0.293800 0.197600
H19 H 0.954400 0.180500 0.137500
C20 C 0.876700 0.383600 0.285700
H21 H 0.911600 0.328000 0.288700
O22 O 0.781200 0.665600 0.455210
O23 O 0.651700 0.412100 0.583200
Br24 Br 0.650180 1.107120 0.900000
Br25 Br 0.880860 0.235890 0.075640
C26 C 0.583100 0.449100 0.206200
C27 C 0.649000 0.285300 0.172500
H28 H 0.702500 0.249200 0.097000
C29 C 0.636500 0.173900 0.249900
H30 H 0.682000 0.063800 0.227600
C31 C 0.557100 0.221600 0.361400
C32 C 0.493300 0.393200 0.391200
H33 H 0.440200 0.437700 0.466200
C34 C 0.505100 0.501300 0.314200
H35 H 0.459700 0.610400 0.336000
C36 C 0.546600 0.085600 0.439900
C37 C 0.450000 0.057000 0.629000
C38 C 0.501900 0.132900 0.631100
H39 H 0.554400 0.250800 0.572000
C40 C 0.477800 0.037700 0.718600
H41 H 0.513500 0.088000 0.720600
C42 C 0.401900 -0.130400 0.803300
C43 C 0.348700 -0.206200 0.802400
H44 H 0.295600 -0.319500 0.862500
C45 C 0.373300 -0.116400 0.714300
H46 H 0.338400 -0.172000 0.711300
O47 O 0.468800 0.165600 0.544790
O48 O 0.598300 -0.087900 0.416800
Br49 Br 0.599820 0.607120 0.100000
Br50 Br 0.369140 -0.264110 0.924360
C51 C 1.083100 0.050900 -0.793800
C52 C 1.149000 0.214700 -0.827500
H53 H 1.202500 0.250800 -0.903000
C54 C 1.136500 0.326100 -0.750100
H55 H 1.182000 0.436200 -0.772400
C56 C 1.057100 0.278400 -0.638600
C57 C 0.993300 0.106800 -0.608800
H58 H 0.940200 0.062300 -0.533800
C59 C 1.005100 -0.001300 -0.685800
H60 H 0.959700 -0.110400 -0.664000
C61 C 1.046600 0.414400 -0.560100
C62 C 0.950000 0.443000 -0.371000
C63 C 1.001900 0.367100 -0.368900
H64 H 1.054400 0.249200 -0.428000
C65 C 0.977800 0.462300 -0.281400
H66 H 1.013500 0.412000 -0.279400
C67 C 0.901900 0.630400 -0.196700
C68 C 0.848700 0.706200 -0.197600
H69 H 0.795600 0.819500 -0.137500
C70 C 0.873300 0.616400 -0.285700
H71 H 0.838400 0.672000 -0.288700
O72 O 0.968800 0.334400 -0.455210
O73 O 1.098300 0.587900 -0.583200
Br74 Br 1.099820 -0.107120 -0.900000
Br75 Br 0.869140 0.764110 -0.075640
C76 C 1.166900 0.550900 -0.206200
C77 C 1.101000 0.714700 -0.172500
H78 H 1.047500 0.750800 -0.097000
C79 C 1.113500 0.826100 -0.249900
H80 H 1.068000 0.936200 -0.227600
C81 C 1.192900 0.778400 -0.361400
C82 C 1.256700 0.606800 -0.391200
H83 H 1.309800 0.562300 -0.466200
C84 C 1.244900 0.498700 -0.314200
H85 H 1.290300 0.389600 -0.336000
C86 C 1.203400 0.914400 -0.439900
C87 C 1.300000 0.943000 -0.629000
C88 C 1.248100 0.867100 -0.631100
H89 H 1.195600 0.749200 -0.572000
C90 C 1.272200 0.962300 -0.718600
H91 H 1.236500 0.912000 -0.720600
C92 C 1.348100 1.130400 -0.803300
C93 C 1.401300 1.206200 -0.802400
H94 H 1.454400 1.319500 -0.862500
C95 C 1.376700 1.116400 -0.714300
H96 H 1.411600 1.172000 -0.711300
O97 O 1.281200 0.834400 -0.544790
O98 O 1.151700 1.087900 -0.416800
Br99 Br 1.150180 0.392880 -0.100000
Br100 Br 1.380860 1.264110 -0.924360

#END
