
#######################################################################
#
#                 Cambridge Crystallographic Data Centre
#                                CCDC 
#
#######################################################################
#
# If this CIF has been generated from an entry in the Cambridge 
# Structural Database, then it will include bibliographic, chemical, 
# crystal, experimental, refinement or atomic coordinate data resulting 
# from the CCDC's data processing and validation procedures.
#
#######################################################################

data_ABEJIC
_symmetry_cell_setting           triclinic
_symmetry_space_group_name_H-M   'P -1'
_symmetry_Int_Tables_number      2
_space_group_name_Hall           '-P 1'
loop_
_symmetry_equiv_pos_site_id
_symmetry_equiv_pos_as_xyz
1 x,y,z
2 -x,-y,-z
_cell_length_a                   10.4374(4)
_cell_length_b                   10.5171(4)
_cell_length_c                   11.0370(5)
_cell_angle_alpha                104.297(4)
_cell_angle_beta                 97.447(4)
_cell_angle_gamma                117.915(4)
_cell_volume                     993.965
loop_
_atom_site_label
_atom_site_type_symbol
_atom_site_fract_x
_atom_site_fract_y
_atom_site_fract_z
C1 C 0.17489(9) -0.13587(9) 0.22917(8)
C2 C 0.28047(10) -0.06956(10) 0.35433(9)
H1 H 0.3551 0.0369 0.3868
C3 C 0.27566(11) -0.15770(11) 0.42869(9)
H2 H 0.3467 -0.1118 0.5124
C4 C 0.16563(11) -0.31656(11) 0.38164(10)
H3 H 0.1632 -0.3768 0.4338
C5 C 0.06265(10) -0.38386(10) 0.26140(9)
H4 H -0.0106 -0.4907 0.2307
C6 C 0.06387(9) -0.29591(9) 0.18174(9)
C7 C -0.04127(10) -0.36293(10) 0.05645(9)
H5 H -0.1170 -0.4690 0.0251
C8 C -0.03485(10) -0.27640(10) -0.01994(9)
H6 H -0.1050 -0.3234 -0.1042
C9 C 0.07514(10) -0.11813(10) 0.02563(9)
H7 H 0.0792 -0.0597 -0.0287
C10 C 0.17699(9) -0.04722(9) 0.14839(8)
C11 C 0.28290(10) 0.11547(10) 0.19752(9)
C12 C 0.37098(10) 0.25177(10) 0.24456(9)
C13 C 0.47820(10) 0.41384(10) 0.30055(8)
C14 C 0.42960(10) 0.51858(10) 0.32667(9)
H8 H 0.3244 0.4818 0.3075
C15 C 0.53347(11) 0.67559(10) 0.38028(9)
H9 H 0.4991 0.7456 0.3971
C16 C 0.68798(10) 0.73063(10) 0.40940(9)
H10 H 0.7588 0.8381 0.4463
C17 C 0.73875(10) 0.62877(10) 0.38459(9)
H11 H 0.8443 0.6671 0.4043
C18 C 0.63551(10) 0.46975(9) 0.33061(8)
C19 C 0.68702(9) 0.36387(10) 0.30657(8)
C20 C 0.72865(9) 0.27358(10) 0.28698(8)
C21 C 0.77591(10) 0.16411(10) 0.26551(8)
C22 C 0.92466(10) 0.21020(10) 0.32051(9)
H12 H 0.9960 0.3155 0.3698
C23 C 0.97154(10) 0.10276(11) 0.30428(9)
H13 H 1.0736 0.1360 0.3436
C24 C 0.87049(10) -0.04941(11) 0.23205(9)
H14 H 0.9031 -0.1209 0.2225
C25 C 0.71763(10) -0.10143(10) 0.17135(9)
C26 C 0.61271(11) -0.25752(10) 0.09275(10)
H15 H 0.6451 -0.3293 0.0792
C27 C 0.46528(11) -0.30586(10) 0.03622(10)
H16 H 0.3966 -0.4104 -0.0171
C28 C 0.41511(10) -0.20083(10) 0.05699(9)
H17 H 0.3122 -0.2356 0.0190
C29 C 0.51407(10) -0.04870(10) 0.13174(9)
H18 H 0.4791 0.0210 0.1449
C30 C 0.66802(9) 0.00516(9) 0.18939(8)
C1 C 0.82511(9) 1.13587(9) 0.77083(8)
C2 C 0.71953(10) 1.06956(10) 0.64567(9)
H1 H 0.6449 0.9631 0.6132
C3 C 0.72434(11) 1.15770(11) 0.57131(9)
H2 H 0.6533 1.1118 0.4876
C4 C 0.83437(11) 1.31656(11) 0.61836(10)
H3 H 0.8368 1.3768 0.5662
C5 C 0.93735(10) 1.38386(10) 0.73860(9)
H4 H 1.0106 1.4907 0.7693
C6 C 0.93613(9) 1.29591(9) 0.81826(9)
C7 C 1.04127(10) 1.36293(10) 0.94355(9)
H5 H 1.1170 1.4690 0.9749
C8 C 1.03485(10) 1.27640(10) 1.01994(9)
H6 H 1.1050 1.3234 1.1042
C9 C 0.92486(10) 1.11813(10) 0.97437(9)
H7 H 0.9208 1.0597 1.0287
C10 C 0.82301(9) 1.04722(9) 0.85161(8)
C11 C 0.71710(10) 0.88453(10) 0.80248(9)
C12 C 0.62902(10) 0.74823(10) 0.75544(9)
C13 C 0.52180(10) 0.58616(10) 0.69945(8)
C14 C 0.57040(10) 0.48142(10) 0.67333(9)
H8 H 0.6756 0.5182 0.6925
C15 C 0.46653(11) 0.32441(10) 0.61972(9)
H9 H 0.5009 0.2544 0.6029
C16 C 0.31202(10) 0.26937(10) 0.59060(9)
H10 H 0.2412 0.1619 0.5537
C17 C 0.26125(10) 0.37123(10) 0.61541(9)
H11 H 0.1557 0.3329 0.5957
C18 C 0.36449(10) 0.53025(9) 0.66939(8)
C19 C 0.31298(9) 0.63613(10) 0.69343(8)
C20 C 0.27135(9) 0.72642(10) 0.71302(8)
C21 C 0.22409(10) 0.83589(10) 0.73449(8)
C22 C 0.07534(10) 0.78980(10) 0.67949(9)
H12 H 0.0040 0.6845 0.6302
C23 C 0.02846(10) 0.89724(11) 0.69572(9)
H13 H -0.0736 0.8640 0.6564
C24 C 0.12951(10) 1.04941(11) 0.76795(9)
H14 H 0.0969 1.1209 0.7775
C25 C 0.28237(10) 1.10143(10) 0.82865(9)
C26 C 0.38729(11) 1.25752(10) 0.90725(10)
H15 H 0.3549 1.3293 0.9208
C27 C 0.53472(11) 1.30586(10) 0.96378(10)
H16 H 0.6034 1.4104 1.0171
C28 C 0.58489(10) 1.20083(10) 0.94301(9)
H17 H 0.6878 1.2356 0.9810
C29 C 0.48593(10) 1.04870(10) 0.86826(9)
H18 H 0.5209 0.9790 0.8551
C30 C 0.33198(9) 0.99484(9) 0.81061(8)

#END
