./ABEKUN02_from_POSCAR.cif_generated_by_CrystalShift
_symmetry_cell_setting triclinic
_symmetry_space_group_name_H-M 'P 1'
loop_
_symmetry_equiv_pos_site_id
_symmetry_equiv_pos_as_xyz
1 x,y,z
_cell_length_a 10.148500
_cell_length_b 7.126500
_cell_length_c 20.071700
_cell_angle_alpha 90.000000
_cell_angle_beta 94.684000
_cell_angle_gamma 90.000000
_cell_volume 1446.803102
loop_
_atom_site_label
_atom_site_type_symbol
_atom_site_fract_x
_atom_site_fract_y
_atom_site_fract_z
H1 H -0.012000 0.679700 0.947800
H2 H 0.422000 0.376700 0.754800
H3 H 0.492700 0.684000 0.796000
H4 H 0.196300 0.317100 0.758000
H5 H 0.193200 0.066700 0.575900
H6 H 0.007300 0.184000 0.704000
H7 H 0.512000 0.179700 0.552200
H8 H 1.012000 0.320300 0.052200
H9 H 0.507300 0.316000 0.204000
H10 H 1.034200 0.209200 0.161800
H11 H 0.922000 0.123300 0.254800
H12 H 0.696300 0.182900 0.258000
H13 H 0.693200 0.433300 0.075900
H14 H 0.488000 0.820300 0.447800
H15 H 0.141500 0.656500 0.074500
H16 H 0.764500 0.941300 0.114000
H17 H 0.362700 0.734700 0.039100
H18 H 0.537100 0.897900 0.139400
H19 H 0.230000 0.938000 0.280200
H20 H 0.393400 0.939800 0.206100
H21 H 0.514600 0.709700 -0.030900
H22 H 0.692400 0.677000 -0.095500
H23 H -0.013700 0.662900 0.153600
H24 H 0.934000 0.905300 0.044200
H25 H -0.034200 0.790800 0.838200
H26 H 0.992700 0.816000 0.296000
H27 H 0.078000 0.876700 0.745200
H28 H 0.465800 0.709200 0.338200
H29 H 0.578000 0.623300 0.245200
H30 H 0.803700 0.682900 0.242000
H31 H 0.806800 0.933300 0.424100
H32 H 1.434000 0.594700 0.544200
H33 H 0.486300 0.837100 0.653600
H34 H 1.192400 0.823000 0.404500
H35 H 1.014600 0.790300 0.469100
H36 H 0.893400 0.560200 0.706100
H37 H 0.730000 0.562000 0.780200
H38 H 1.037100 0.602100 0.639400
H39 H 0.358500 0.156500 0.425500
H40 H -0.264500 0.441300 0.386000
H41 H 0.137300 0.234700 0.460900
H42 H -0.037100 0.397900 0.360600
H43 H 0.270000 0.438000 0.219800
H44 H 0.106600 0.439800 0.293900
H45 H -0.014600 0.209700 0.530900
H46 H -0.192400 0.177000 0.595500
H47 H 0.513700 0.162900 0.346400
H48 H -0.434000 0.405300 0.455800
H49 H 0.303700 0.817100 0.742000
H50 H 0.862700 0.765300 0.539100
H51 H 0.306800 0.566700 0.924100
H52 H 1.264500 0.558700 0.614000
H53 H 0.641500 0.843500 0.574500
H54 H 0.066000 0.094700 0.955800
H55 H 1.013700 0.337100 0.846400
H56 H 0.307600 0.323000 1.095500
H57 H 0.485400 0.290300 1.030900
H58 H 0.606600 0.060200 0.793900
H59 H 0.770000 0.062000 0.719800
H60 H 0.462900 0.102100 0.860600
H61 H 0.637300 0.265300 0.960900
H62 H 0.235500 0.058700 0.886000
H63 H 0.858500 0.343500 0.925500
H64 H 0.534200 0.290800 0.661800
C65 C 0.929590 0.281340 0.835690
C66 C 0.292870 0.269300 1.052190
C67 C 0.399640 0.251190 1.013840
C68 C 0.689200 0.118800 0.805930
C69 C 0.787660 0.121380 0.761940
C70 C 0.484950 0.156960 0.903170
C71 C 0.380200 0.174340 0.949710
C72 C 0.612790 0.215910 0.917740
C73 C 0.057410 0.764960 0.836990
C74 C 0.662680 0.785760 0.616670
C75 C 0.327160 0.688620 0.833270
C76 C 0.786760 0.705160 0.631420
C77 C 1.247170 0.614640 0.571200
C78 C 0.887210 0.715910 0.582260
C79 C 1.119800 0.674340 0.550290
C80 C 1.015050 0.656960 0.596830
C81 C 0.712340 0.621380 0.738060
C82 C 0.810800 0.618800 0.694070
C83 C 1.100360 0.751190 0.486160
C84 C 1.207130 0.769300 0.447810
C85 C 0.570410 0.781340 0.664310
C86 C 1.347890 0.637100 0.529180
C87 C 0.252830 0.114640 0.928800
C88 C 0.713240 0.205160 0.868580
C89 C 0.837320 0.285760 0.883330
C90 C -0.347890 0.362900 0.470820
C91 C 0.429590 0.218660 0.335690
C92 C -0.207130 0.230700 0.552190
C93 C -0.100360 0.248810 0.513840
C94 C 0.189200 0.381200 0.305930
C95 C 0.287660 0.378620 0.261940
C96 C -0.015050 0.343040 0.403170
C97 C 0.124950 0.815790 0.781940
C98 C 0.258860 0.780070 0.779570
C99 C 0.760940 0.867040 0.388270
C100 C 0.627560 0.825640 0.390470
C101 C 0.758860 0.719930 0.279570
C102 C 0.624950 0.684210 0.281940
C103 C 0.827160 0.811380 0.333270
C104 C 0.557410 0.735040 0.336990
C105 C -0.119800 0.325660 0.449710
C106 C 0.112790 0.284090 0.417740
C107 C -0.247170 0.385360 0.428800
C108 C 0.213240 0.294840 0.368580
C109 C 0.337320 0.214240 0.383330
C110 C 0.847890 0.862900 0.029180
C111 C 0.127560 0.674360 0.890470
C112 C 0.260940 0.632960 0.888270
C113 C 0.739060 0.367040 0.111730
C114 C 0.872440 0.325640 0.109530
C115 C 0.741140 0.219930 0.220430
C116 C 0.875050 0.184210 0.218060
C117 C 0.672840 0.311380 0.166730
C118 C 0.942590 0.235040 0.163010
C119 C 0.070410 0.718660 0.164310
C120 C 0.707130 0.730700 -0.052190
C121 C 0.600360 0.748810 -0.013840
C122 C 0.310800 0.881200 0.194070
C123 C 0.212340 0.878620 0.238060
C124 C 0.515050 0.843040 0.096830
C125 C 0.619800 0.825660 0.050290
C126 C 0.387210 0.784090 0.082260
C127 C 0.239060 0.132960 0.611730
C128 C 0.372440 0.174360 0.609530
C129 C 0.241140 0.280070 0.720430
C130 C 0.375050 0.315790 0.718060
C131 C 0.172840 0.188620 0.666730
C132 C 0.442590 0.264960 0.663010
C133 C 0.747170 0.885360 0.071200
C134 C 0.286760 0.794840 0.131420
C135 C 0.162680 0.714240 0.116670
C136 C 0.152110 0.137100 0.970820
N137 N 1.330760 0.715920 0.468520
N138 N 0.830760 0.784080 -0.031480
N139 N 0.406020 0.298130 0.275210
N140 N -0.330760 0.284080 0.531480
N141 N 0.906020 0.201870 0.775210
N142 N 0.169240 0.215920 1.031480
N143 N 0.593980 0.701870 0.724790
N144 N 0.093980 0.798130 0.224790
O145 O 0.568930 0.879580 0.446330
O146 O 0.540890 0.348480 0.164690
O147 O 0.931070 0.379580 0.053670
O148 O 0.068930 0.620420 0.946330
O149 O 0.459110 0.651520 0.835310
O150 O 0.040890 0.151520 0.664690
O151 O 0.431070 0.120420 0.553670
O152 O 0.959110 0.848480 0.335310

#END
