
#######################################################################
#
#                 Cambridge Crystallographic Data Centre
#                                CCDC 
#
#######################################################################
#
# If this CIF has been generated from an entry in the Cambridge 
# Structural Database, then it will include bibliographic, chemical, 
# crystal, experimental, refinement or atomic coordinate data resulting 
# from the CCDC's data processing and validation procedures.
#
#######################################################################

data_ABEKUO
_symmetry_cell_setting           monoclinic
_symmetry_space_group_name_H-M   'P 2/c'
_symmetry_Int_Tables_number      13
_space_group_name_Hall           '-P 2yc'
loop_
_symmetry_equiv_pos_site_id
_symmetry_equiv_pos_as_xyz
1 x,y,z
2 x,-y,1/2+z
3 -x,-y,-z
4 -x,y,1/2-z
_cell_length_a                   16.927(2)
_cell_length_b                   4.5244(5)
_cell_length_c                   19.673(2)
_cell_angle_alpha                90
_cell_angle_beta                 105.828(5)
_cell_angle_gamma                90
_cell_volume                     1449.52
loop_
_atom_site_label
_atom_site_type_symbol
_atom_site_fract_x
_atom_site_fract_y
_atom_site_fract_z
O1 O 0.46906(14) 0.7971(5) 0.54731(11)
O2 O 0.55689(14) 0.4231(6) 0.58201(11)
O3 O 0.57470(13) 0.5937(6) 0.72230(11)
N1 N 0.66025(15) 0.5730(7) 0.73040(13)
N2 N 0.80586(15) 0.6485(6) 0.90340(12)
N3 N 0.85988(16) 0.7732(6) 0.95175(13)
C1 C 0.52388(19) 0.6478(8) 0.59434(16)
C2 C 0.5416(2) 0.7907(8) 0.66556(16)
C3 C 0.69242(19) 0.4093(7) 0.78678(15)
C4 C 0.6478(2) 0.2676(8) 0.83366(17)
C5 C 0.78107(19) 0.3522(7) 0.79952(15)
C6 C 0.83809(18) 0.4609(7) 0.85880(14)
C7 C 0.9206(2) 0.3874(8) 0.87194(17)
C8 C 0.9458(2) 0.2030(8) 0.82658(17)
C9 C 0.8899(2) 0.0953(8) 0.76677(17)
C10 C 0.8080(2) 0.1681(8) 0.75322(16)
C11 C 0.82756(19) 0.9473(7) 0.99800(14)
C12 C 0.8830(2) 1.1286(7) 1.04418(15)
C13 C 0.8578(2) 1.2983(8) 1.09284(16)
C14 C 0.7775(2) 1.2874(8) 1.09551(16)
C15 C 0.7221(2) 1.1054(8) 1.04992(17)
C16 C 0.7466(2) 0.9344(7) 1.00096(16)
H1 H 0.4617 0.7184 0.5085
H2 H 0.5801 0.9515 0.6676
H3 H 0.4912 0.8748 0.6715
H4 H 0.5898 0.2978 0.8145
H5 H 0.6653 0.3540 0.8799
H6 H 0.6593 0.0595 0.8368
H7 H 0.9587 0.4631 0.9115
H8 H 1.0009 0.1502 0.8362
H9 H 0.9076 -0.0262 0.7357
H10 H 0.7705 0.0944 0.7131
H11 H 0.9373 1.1364 1.0425
H12 H 0.8952 1.4201 1.1238
H13 H 0.7605 1.4027 1.1281
H14 H 0.6679 1.0976 1.0521
H15 H 0.7091 0.8118 0.9703
O1 O 0.46906(14) 0.2029(5) 0.04731(11)
O2 O 0.55689(14) 0.5769(6) 0.08201(11)
O3 O 0.57470(13) 0.4063(6) 0.22230(11)
N1 N 0.66025(15) 0.4270(7) 0.23040(13)
N2 N 0.80586(15) 0.3515(6) 0.40340(12)
N3 N 0.85988(16) 0.2268(6) 0.45175(13)
C1 C 0.52388(19) 0.3522(8) 0.09434(16)
C2 C 0.5416(2) 0.2093(8) 0.16556(16)
C3 C 0.69242(19) 0.5907(7) 0.28678(15)
C4 C 0.6478(2) 0.7324(8) 0.33366(17)
C5 C 0.78107(19) 0.6478(7) 0.29952(15)
C6 C 0.83809(18) 0.5391(7) 0.35880(14)
C7 C 0.9206(2) 0.6126(8) 0.37194(17)
C8 C 0.9458(2) 0.7970(8) 0.32658(17)
C9 C 0.8899(2) 0.9047(8) 0.26677(17)
C10 C 0.8080(2) 0.8319(8) 0.25322(16)
C11 C 0.82756(19) 0.0527(7) 0.49800(14)
C12 C 0.8830(2) -0.1286(7) 0.54418(15)
C13 C 0.8578(2) -0.2983(8) 0.59284(16)
C14 C 0.7775(2) -0.2874(8) 0.59551(16)
C15 C 0.7221(2) -0.1054(8) 0.54992(17)
C16 C 0.7466(2) 0.0656(7) 0.50096(16)
H1 H 0.4617 0.2816 0.0085
H2 H 0.5801 0.0485 0.1676
H3 H 0.4912 0.1252 0.1715
H4 H 0.5898 0.7022 0.3145
H5 H 0.6653 0.6460 0.3799
H6 H 0.6593 0.9405 0.3368
H7 H 0.9587 0.5369 0.4115
H8 H 1.0009 0.8498 0.3362
H9 H 0.9076 1.0262 0.2357
H10 H 0.7705 0.9056 0.2131
H11 H 0.9373 -0.1364 0.5425
H12 H 0.8952 -0.4201 0.6238
H13 H 0.7605 -0.4027 0.6281
H14 H 0.6679 -0.0976 0.5521
H15 H 0.7091 0.1882 0.4703
O1 O 0.53094(14) 0.2029(5) 0.45269(11)
O2 O 0.44311(14) 0.5769(6) 0.41799(11)
O3 O 0.42530(13) 0.4063(6) 0.27770(11)
N1 N 0.33975(15) 0.4270(7) 0.26960(13)
N2 N 0.19414(15) 0.3515(6) 0.09660(12)
N3 N 0.14012(16) 0.2268(6) 0.04825(13)
C1 C 0.47612(19) 0.3522(8) 0.40566(16)
C2 C 0.4584(2) 0.2093(8) 0.33444(16)
C3 C 0.30758(19) 0.5907(7) 0.21322(15)
C4 C 0.3522(2) 0.7324(8) 0.16634(17)
C5 C 0.21893(19) 0.6478(7) 0.20048(15)
C6 C 0.16191(18) 0.5391(7) 0.14120(14)
C7 C 0.0794(2) 0.6126(8) 0.12806(17)
C8 C 0.0542(2) 0.7970(8) 0.17342(17)
C9 C 0.1101(2) 0.9047(8) 0.23323(17)
C10 C 0.1920(2) 0.8319(8) 0.24678(16)
C11 C 0.17244(19) 0.0527(7) 0.00200(14)
C12 C 0.1170(2) -0.1286(7) -0.04418(15)
C13 C 0.1422(2) -0.2983(8) -0.09284(16)
C14 C 0.2225(2) -0.2874(8) -0.09551(16)
C15 C 0.2779(2) -0.1054(8) -0.04992(17)
C16 C 0.2534(2) 0.0656(7) -0.00096(16)
H1 H 0.5383 0.2816 0.4915
H2 H 0.4199 0.0485 0.3324
H3 H 0.5088 0.1252 0.3285
H4 H 0.4102 0.7022 0.1855
H5 H 0.3347 0.6460 0.1201
H6 H 0.3407 0.9405 0.1632
H7 H 0.0413 0.5369 0.0885
H8 H -0.0009 0.8498 0.1638
H9 H 0.0924 1.0262 0.2643
H10 H 0.2295 0.9056 0.2869
H11 H 0.0627 -0.1364 -0.0425
H12 H 0.1048 -0.4201 -0.1238
H13 H 0.2395 -0.4027 -0.1281
H14 H 0.3321 -0.0976 -0.0521
H15 H 0.2909 0.1882 0.0297
O1 O 0.53094(14) 0.7971(5) 0.95269(11)
O2 O 0.44311(14) 0.4231(6) 0.91799(11)
O3 O 0.42530(13) 0.5937(6) 0.77770(11)
N1 N 0.33975(15) 0.5730(7) 0.76960(13)
N2 N 0.19414(15) 0.6485(6) 0.59660(12)
N3 N 0.14012(16) 0.7732(6) 0.54825(13)
C1 C 0.47612(19) 0.6478(8) 0.90566(16)
C2 C 0.4584(2) 0.7907(8) 0.83444(16)
C3 C 0.30758(19) 0.4093(7) 0.71322(15)
C4 C 0.3522(2) 0.2676(8) 0.66634(17)
C5 C 0.21893(19) 0.3522(7) 0.70048(15)
C6 C 0.16191(18) 0.4609(7) 0.64120(14)
C7 C 0.0794(2) 0.3874(8) 0.62806(17)
C8 C 0.0542(2) 0.2030(8) 0.67342(17)
C9 C 0.1101(2) 0.0953(8) 0.73323(17)
C10 C 0.1920(2) 0.1681(8) 0.74678(16)
C11 C 0.17244(19) 0.9473(7) 0.50200(14)
C12 C 0.1170(2) 1.1286(7) 0.45582(15)
C13 C 0.1422(2) 1.2983(8) 0.40716(16)
C14 C 0.2225(2) 1.2874(8) 0.40449(16)
C15 C 0.2779(2) 1.1054(8) 0.45008(17)
C16 C 0.2534(2) 0.9344(7) 0.49904(16)
H1 H 0.5383 0.7184 0.9915
H2 H 0.4199 0.9515 0.8324
H3 H 0.5088 0.8748 0.8285
H4 H 0.4102 0.2978 0.6855
H5 H 0.3347 0.3540 0.6201
H6 H 0.3407 0.0595 0.6632
H7 H 0.0413 0.4631 0.5885
H8 H -0.0009 0.1502 0.6638
H9 H 0.0924 -0.0262 0.7643
H10 H 0.2295 0.0944 0.7869
H11 H 0.0627 1.1364 0.4575
H12 H 0.1048 1.4201 0.3762
H13 H 0.2395 1.4027 0.3719
H14 H 0.3321 1.0976 0.4479
H15 H 0.2909 0.8118 0.5297

#END
