./ABEKUO_from_POSCAR.cif_generated_by_CrystalShift
_symmetry_cell_setting triclinic
_symmetry_space_group_name_H-M 'P 1'
loop_
_symmetry_equiv_pos_site_id
_symmetry_equiv_pos_as_xyz
1 x,y,z
_cell_length_a 16.927000
_cell_length_b 4.524400
_cell_length_c 19.673000
_cell_angle_alpha 90.000000
_cell_angle_beta 105.828000
_cell_angle_gamma 90.000000
_cell_volume 1449.522433
loop_
_atom_site_label
_atom_site_type_symbol
_atom_site_fract_x
_atom_site_fract_y
_atom_site_fract_z
H1 H 0.290900 0.811800 0.529700
H2 H 0.239500 1.402700 0.371900
H3 H 0.104800 1.420100 0.376200
H4 H 0.062700 1.136400 0.457500
H5 H 0.229500 0.094400 0.786900
H6 H 0.092400 -0.026200 0.764300
H7 H -0.000900 0.150200 0.663800
H8 H 0.041300 0.463100 0.588500
H9 H 0.340700 0.059500 0.663200
H10 H 0.334700 0.354000 0.620100
H11 H 0.410200 0.297800 0.685500
H12 H 0.508800 0.874800 0.828500
H13 H 0.419900 0.951500 0.832400
H14 H 0.538300 0.718400 0.991500
H15 H 0.290900 0.188200 0.029700
H16 H 0.332100 -0.097600 -0.052100
H17 H 0.239500 -0.402700 -0.128100
H18 H 0.104800 -0.420100 -0.123800
H19 H 0.062700 -0.136400 -0.042500
H20 H 0.229500 0.905600 0.286900
H21 H 0.092400 1.026200 0.264300
H22 H -0.000900 0.849800 0.163800
H23 H 0.461700 0.718400 0.508500
H24 H 0.580100 0.951500 0.667600
H25 H 0.491200 0.874800 0.671500
H26 H 0.589800 0.297800 0.814500
H27 H 0.665300 0.354000 0.879900
H28 H 0.659300 0.059500 0.836800
H29 H 0.958700 0.463100 0.911500
H30 H 1.000900 0.150200 0.836200
H31 H 0.907600 -0.026200 0.735700
H32 H 0.770500 0.094400 0.713100
H33 H 0.937300 1.136400 1.042500
H34 H 0.895200 1.420100 1.123800
H35 H 0.760500 1.402700 1.128100
H36 H 0.667900 1.097600 1.052100
H37 H 0.709100 0.811800 0.970300
H38 H 0.041300 0.536900 0.088500
H39 H 0.340700 0.940500 0.163200
H40 H 0.334700 0.646000 0.120100
H41 H 0.410200 0.702200 0.185500
H42 H 0.508800 0.125200 0.328500
H43 H 0.419900 0.048500 0.332400
H44 H 0.538300 0.281600 0.491500
H45 H 0.709100 0.188200 0.470300
H46 H 0.667900 -0.097600 0.552100
H47 H 0.760500 -0.402700 0.628100
H48 H 0.895200 -0.420100 0.623800
H49 H 0.937300 -0.136400 0.542500
H50 H 0.770500 0.905600 0.213100
H51 H 0.907600 1.026200 0.235700
H52 H 1.000900 0.849800 0.336200
H53 H 0.958700 0.536900 0.411500
H54 H 0.659300 0.940500 0.336800
H55 H 0.665300 0.646000 0.379900
H56 H 0.589800 0.702200 0.314500
H57 H 0.491200 0.125200 0.171500
H58 H 0.580100 0.048500 0.167600
H59 H 0.461700 0.281600 0.008500
H60 H 0.332100 1.097600 0.447900
C61 C 0.722100 -0.105400 0.549920
C62 C 0.777500 -0.287400 0.595510
C63 C 0.857800 -0.298300 0.592840
C64 C 0.883000 -0.128600 0.544180
C65 C 0.827560 0.052700 0.498000
C66 C 0.808000 0.831900 0.253220
C67 C 0.889900 0.904700 0.266770
C68 C 0.945800 0.797000 0.326580
C69 C 0.920600 0.612600 0.371940
C70 C 0.838090 0.539100 0.358800
C71 C 0.781070 0.647800 0.299520
C72 C 0.647800 0.732400 0.333660
C73 C 0.692420 0.590700 0.286780
C74 C 0.541600 0.209300 0.165560
C75 C 0.523880 0.647800 0.594340
C76 C 0.541600 0.790700 0.665560
C77 C 0.692420 0.409300 0.786780
C78 C 0.647800 0.267600 0.833660
C79 C 0.781070 0.352200 0.799520
C80 C 0.838090 0.460900 0.858800
C81 C 0.476120 0.352200 0.405660
C82 C 0.458400 0.209300 0.334440
C83 C 0.307580 0.590700 0.213220
C84 C 0.352200 0.732400 0.166340
C85 C 0.218930 0.647800 0.200480
C86 C 0.161910 0.539100 0.141200
C87 C 0.079400 0.612600 0.128060
C88 C 0.054200 0.797000 0.173420
C89 C 0.110100 0.904700 0.233230
C90 C 0.192000 0.831900 0.246780
C91 C 0.172440 0.052700 0.002000
C92 C 0.117000 -0.128600 -0.044180
C93 C 0.142200 -0.298300 -0.092840
C94 C 0.222500 -0.287400 -0.095510
C95 C 0.277900 -0.105400 -0.049920
C96 C 0.253400 0.065600 -0.000960
C97 C 0.523880 0.352200 0.094340
C98 C 0.920600 0.387400 0.871940
C99 C 0.945800 0.203000 0.826580
C100 C 0.253400 0.934400 0.499040
C101 C 0.277900 1.105400 0.450080
C102 C 0.222500 1.287400 0.404490
C103 C 0.142200 1.298300 0.407160
C104 C 0.746600 0.934400 1.000960
C105 C 0.722100 1.105400 1.049920
C106 C 0.777500 1.287400 1.095510
C107 C 0.857800 1.298300 1.092840
C108 C 0.883000 1.128600 1.044180
C109 C 0.827560 0.947300 0.998000
C110 C 0.808000 0.168100 0.753220
C111 C 0.889900 0.095300 0.766770
C112 C 0.117000 1.128600 0.455820
C113 C 0.172440 0.947300 0.502000
C114 C 0.192000 0.168100 0.746780
C115 C 0.110100 0.095300 0.733230
C116 C 0.054200 0.203000 0.673420
C117 C 0.079400 0.387400 0.628060
C118 C 0.476120 0.647800 0.905660
C119 C 0.458400 0.790700 0.834440
C120 C 0.307580 0.409300 0.713220
C121 C 0.352200 0.267600 0.666340
C122 C 0.218930 0.352200 0.700480
C123 C 0.161910 0.460900 0.641200
C124 C 0.746600 0.065600 0.500960
N125 N 0.194140 0.648500 0.596600
N126 N 0.339750 0.573000 0.769600
N127 N 0.660250 0.573000 0.730400
N128 N 0.805860 0.648500 0.903400
N129 N 0.859880 0.773200 0.951750
N130 N 0.339750 0.427000 0.269600
N131 N 0.194140 0.351500 0.096600
N132 N 0.140120 0.226800 0.048250
N133 N 0.660250 0.427000 0.230400
N134 N 0.805860 0.351500 0.403400
N135 N 0.859880 0.226800 0.451750
N136 N 0.140120 0.773200 0.548250
O137 O 0.556890 0.576900 0.082010
O138 O 0.469060 0.202900 0.047310
O139 O 0.425300 0.406300 0.277700
O140 O 0.443110 0.576900 0.417990
O141 O 0.530940 0.202900 0.452690
O142 O 0.530940 0.797100 0.952690
O143 O 0.443110 0.423100 0.917990
O144 O 0.425300 0.593700 0.777700
O145 O 0.574700 0.593700 0.722300
O146 O 0.556890 0.423100 0.582010
O147 O 0.574700 0.406300 0.222300
O148 O 0.469060 0.797100 0.547310

#END
