./ABELEY_from_POSCAR.cif_generated_by_CrystalShift
_symmetry_cell_setting triclinic
_symmetry_space_group_name_H-M 'P 1'
loop_
_symmetry_equiv_pos_site_id
_symmetry_equiv_pos_as_xyz
1 x,y,z
_cell_length_a 9.573000
_cell_length_b 11.389000
_cell_length_c 15.039000
_cell_angle_alpha 90.000000
_cell_angle_beta 94.317000
_cell_angle_gamma 90.000000
_cell_volume 1635.003544
loop_
_atom_site_label
_atom_site_type_symbol
_atom_site_fract_x
_atom_site_fract_y
_atom_site_fract_z
H1 H 0.114400 1.178800 0.335200
H2 H 0.041300 1.370300 0.314900
H3 H -0.329500 1.297000 0.394000
H4 H 0.958700 0.870300 0.185100
H5 H 1.329500 0.797000 0.106000
H6 H 1.268100 0.603300 0.082000
H7 H 1.105400 0.440300 0.094800
H8 H 0.836600 0.497900 0.135500
H9 H 0.603500 0.148900 0.131000
H10 H 0.666500 0.344000 0.139700
H11 H 0.295400 0.074600 -0.095200
H12 H 0.224100 -0.002100 0.193600
H13 H 0.268400 0.018300 0.047500
H14 H 0.341200 0.270600 0.236600
H15 H 0.397900 0.341900 -0.023500
H16 H 0.461100 0.555600 0.220700
H17 H 0.488900 0.424000 0.255000
H18 H 0.331800 0.471500 0.237600
H19 H -0.268100 1.103300 0.418000
H20 H -0.105400 0.940300 0.405200
H21 H 0.163400 0.997900 0.364500
H22 H 1.058200 0.249300 0.085700
H23 H 0.984800 0.057400 0.081900
H24 H 0.885600 -0.178800 0.664800
H25 H 0.958700 -0.370300 0.685100
H26 H 1.329500 -0.297000 0.606000
H27 H 1.268100 -0.103300 0.582000
H28 H 1.105400 0.059700 0.594800
H29 H 0.704600 0.574600 0.595200
H30 H 0.775900 0.497900 0.306400
H31 H 0.731600 0.518300 0.452500
H32 H 0.658800 0.770600 0.263400
H33 H 0.602100 0.841900 0.523500
H34 H 0.538900 1.055600 0.279300
H35 H 0.511100 0.924000 0.245000
H36 H 0.668200 0.971500 0.262400
H37 H 0.396500 0.648900 0.369000
H38 H 0.333500 0.844000 0.360300
H39 H -0.058200 0.749300 0.414300
H40 H 0.836600 0.002100 0.635500
H41 H 0.603500 0.351100 0.631000
H42 H 0.666500 0.156000 0.639700
H43 H 1.058200 0.250700 0.585700
H44 H 0.984800 0.442600 0.581900
H45 H 0.114400 0.321200 0.835200
H46 H 0.041300 0.129700 0.814900
H47 H 0.704600 0.925400 1.095200
H48 H 0.775900 1.002100 0.806400
H49 H 0.731600 0.981700 0.952500
H50 H 0.658800 0.729400 0.763400
H51 H 0.602100 0.658100 1.023500
H52 H 0.538900 0.444400 0.779300
H53 H 0.511100 0.576000 0.745000
H54 H 0.668200 0.528500 0.762400
H55 H 0.015200 0.557400 0.418100
H56 H -0.329500 0.203000 0.894000
H57 H -0.268100 0.396700 0.918000
H58 H -0.105400 0.559700 0.905200
H59 H 0.163400 0.502100 0.864500
H60 H 0.396500 0.851100 0.869000
H61 H 0.333500 0.656000 0.860300
H62 H -0.058200 0.750700 0.914300
H63 H 0.015200 0.942600 0.918100
H64 H 0.885600 0.678800 0.164800
H65 H 0.295400 0.425400 0.404800
H66 H 0.224100 0.502100 0.693600
H67 H 0.268400 0.481700 0.547500
H68 H 0.341200 0.229400 0.736600
H69 H 0.397900 0.158100 0.476500
H70 H 0.461100 -0.055600 0.720700
H71 H 0.488900 0.076000 0.755000
H72 H 0.331800 0.028500 0.737600
C73 C 0.426600 0.025400 0.717100
C74 C -0.202400 1.156200 0.395800
C75 C 0.081000 0.883300 0.906100
C76 C 0.036000 0.768800 0.903600
C77 C 0.129000 0.679300 0.885300
C78 C 0.265400 0.713400 0.872400
C79 C 0.302100 0.830500 0.877200
C80 C 0.091200 0.554800 0.878100
C81 C -0.033700 0.508100 0.888800
C82 C -0.070100 0.383400 0.877600
C83 C -0.202400 0.343800 0.895800
C84 C -0.238300 0.227700 0.881400
C85 C -0.022900 0.185400 0.835400
C86 C 0.021900 0.299600 0.847400
C87 C 0.373100 0.211900 0.521000
C88 C 0.377400 0.178100 0.610000
C89 C 0.338600 0.253800 0.676100
C90 C 0.295700 0.366700 0.651000
C91 C 0.294600 0.403600 0.563200
C92 C 0.332100 0.325200 0.498200
C93 C -0.022900 1.314600 0.335400
C94 C 0.021900 1.200400 0.347400
C95 C 0.573400 0.525400 0.782900
C96 C 0.626900 0.711900 0.979000
C97 C -0.070100 1.116600 0.377600
C98 C -0.033700 0.991900 0.388800
C99 C 0.919000 0.383300 0.593900
C100 C 0.964000 0.268800 0.596400
C101 C 0.871000 0.179300 0.614700
C102 C 0.734600 0.213400 0.627600
C103 C 0.697900 0.330500 0.622800
C104 C 0.908800 0.054800 0.621900
C105 C 1.033700 0.008100 0.611200
C106 C 1.070100 -0.116600 0.622400
C107 C 1.202400 -0.156200 0.604200
C108 C 1.238300 -0.272300 0.618600
C109 C 1.022900 -0.314600 0.664600
C110 C 0.978100 -0.200400 0.652600
C111 C 0.622600 0.678100 0.890000
C112 C 0.661400 0.753800 0.823900
C113 C 0.704300 0.866700 0.849000
C114 C 0.705400 0.903600 0.936800
C115 C 0.667900 0.825200 1.001800
C116 C 0.573400 0.974600 0.282900
C117 C 0.626900 0.788100 0.479000
C118 C 0.622600 0.821900 0.390000
C119 C 0.661400 0.746200 0.323900
C120 C 0.704300 0.633300 0.349000
C121 C 0.091200 0.945200 0.378100
C122 C 0.302100 0.669500 0.377200
C123 C 0.919000 0.116700 0.093900
C124 C 0.964000 0.231200 0.096400
C125 C 0.871000 0.320700 0.114700
C126 C 0.734600 0.286600 0.127600
C127 C 0.697900 0.169500 0.122800
C128 C 0.908800 0.445200 0.121900
C129 C 1.033700 0.491900 0.111200
C130 C 1.070100 0.616600 0.122400
C131 C 1.202400 0.656200 0.104200
C132 C 1.238300 0.772300 0.118600
C133 C 1.022900 0.814600 0.164600
C134 C 0.978100 0.700400 0.152600
C135 C 0.705400 0.596400 0.436800
C136 C 0.667900 0.674800 0.501800
C137 C 0.426600 0.474600 0.217100
C138 C 0.373100 0.288100 0.021000
C139 C 0.377400 0.321900 0.110000
C140 C 0.338600 0.246200 0.176100
C141 C 0.295700 0.133300 0.151000
C142 C 0.294600 0.096400 0.063200
C143 C 0.332100 0.174800 -0.001800
C144 C -0.238300 1.272300 0.381400
C145 C 0.265400 0.786600 0.372400
C146 C 0.129000 0.820700 0.385300
C147 C 0.081000 0.616700 0.406100
C148 C 0.036000 0.731200 0.403600
N149 N 0.212300 0.583300 0.392700
N150 N 1.151200 0.851900 0.149200
N151 N 0.787700 0.083300 0.107300
N152 N 1.151200 -0.351900 0.649200
N153 N 0.787700 0.416700 0.607300
N154 N -0.151200 0.148100 0.850800
N155 N 0.212300 0.916700 0.892700
N156 N -0.151200 1.351900 0.350800
O157 O 0.423600 0.065200 0.627000
O158 O 0.254700 0.438900 0.716400
O159 O 0.329600 0.357700 0.410900
O160 O 0.576400 0.565200 0.873000
O161 O 0.745300 0.938900 0.783600
O162 O 0.670400 0.857700 1.089100
O163 O 0.576400 0.934800 0.373000
O164 O 0.745300 0.561100 0.283600
O165 O 0.670400 0.642300 0.589100
O166 O 0.423600 0.434800 0.127000
O167 O 0.254700 0.061100 0.216400
O168 O 0.329600 0.142300 -0.089100

#END
