
#######################################################################
#
#                 Cambridge Crystallographic Data Centre
#                                CCDC 
#
#######################################################################
#
# If this CIF has been generated from an entry in the Cambridge 
# Structural Database, then it will include bibliographic, chemical, 
# crystal, experimental, refinement or atomic coordinate data resulting 
# from the CCDC's data processing and validation procedures.
#
#######################################################################

data_ABESIK
_symmetry_cell_setting           triclinic
_symmetry_space_group_name_H-M   'P -1'
_symmetry_Int_Tables_number      2
_space_group_name_Hall           '-P 1'
loop_
_symmetry_equiv_pos_site_id
_symmetry_equiv_pos_as_xyz
1 x,y,z
2 -x,-y,-z
_cell_length_a                   3.85010(10)
_cell_length_b                   11.4482(3)
_cell_length_c                   13.0504(3)
_cell_angle_alpha                109.8409(10)
_cell_angle_beta                 92.9891(9)
_cell_angle_gamma                99.2004(10)
_cell_volume                     530.593
loop_
_atom_site_label
_atom_site_type_symbol
_atom_site_fract_x
_atom_site_fract_y
_atom_site_fract_z
Cl1 Cl 0.80966(9) 0.83122(3) 0.46829(3)
Cl2 Cl 0.05951(10) 0.36169(3) 0.34530(3)
Cl3 Cl -0.13183(10) 0.36458(3) 0.10681(3)
C1 C 0.4488(4) 0.71178(13) 0.26217(12)
C2 C 0.5374(4) 0.70580(13) 0.36535(12)
C3 C 0.4194(4) 0.59877(13) 0.39064(12)
H1 H 0.4816 0.5978 0.4617
C4 C 0.2102(4) 0.49321(14) 0.31170(12)
C5 C 0.1246(4) 0.49499(13) 0.20769(12)
C6 C 0.2426(4) 0.60282(13) 0.18410(12)
H2 H 0.1816 0.6029 0.1126
C7 C 0.5523(4) 0.82519(13) 0.23063(12)
C8 C 0.5000(4) 0.94448(14) 0.29679(12)
H3 H 0.4152 0.9556 0.3659
C9 C 0.5716(4) 1.04634(14) 0.26171(13)
H4 H 0.5352 1.1271 0.3070
C10 C 0.6960(4) 1.03155(15) 0.16099(13)
H5 H 0.7458 1.1019 0.1375
C11 C 0.7473(4) 0.91324(15) 0.09469(13)
H6 H 0.8314 0.9024 0.0255
C12 C 0.6757(4) 0.81087(14) 0.12939(12)
H7 H 0.7112 0.7302 0.0837
Cl1 Cl 0.19034(9) 0.16878(3) 0.53171(3)
Cl2 Cl 0.94049(10) 0.63831(3) 0.65470(3)
Cl3 Cl 1.13183(10) 0.63542(3) 0.89319(3)
C1 C 0.5512(4) 0.28822(13) 0.73783(12)
C2 C 0.4626(4) 0.29420(13) 0.63465(12)
C3 C 0.5806(4) 0.40123(13) 0.60936(12)
H1 H 0.5184 0.4022 0.5383
C4 C 0.7898(4) 0.50679(14) 0.68830(12)
C5 C 0.8754(4) 0.50501(13) 0.79231(12)
C6 C 0.7574(4) 0.39718(13) 0.81590(12)
H2 H 0.8184 0.3971 0.8874
C7 C 0.4477(4) 0.17481(13) 0.76937(12)
C8 C 0.5000(4) 0.05552(14) 0.70321(12)
H3 H 0.5848 0.0444 0.6341
C9 C 0.4284(4) -0.04634(14) 0.73829(13)
H4 H 0.4648 -0.1271 0.6930
C10 C 0.3040(4) -0.03155(15) 0.83901(13)
H5 H 0.2542 -0.1019 0.8625
C11 C 0.2527(4) 0.08676(15) 0.90531(13)
H6 H 0.1686 0.0976 0.9745
C12 C 0.3243(4) 0.18913(14) 0.87061(12)
H7 H 0.2888 0.2698 0.9163

#END
