./ABETIN_from_POSCAR.cif_generated_by_CrystalShift
_symmetry_cell_setting triclinic
_symmetry_space_group_name_H-M 'P 1'
loop_
_symmetry_equiv_pos_site_id
_symmetry_equiv_pos_as_xyz
1 x,y,z
_cell_length_a 26.962900
_cell_length_b 26.962900
_cell_length_c 27.536500
_cell_angle_alpha 90.000000
_cell_angle_beta 90.000000
_cell_angle_gamma 90.000000
_cell_volume 20018.979777
loop_
_atom_site_label
_atom_site_type_symbol
_atom_site_fract_x
_atom_site_fract_y
_atom_site_fract_z
H1 H 0.554500 0.993500 0.244200
H2 H 0.445500 0.506500 0.244200
H3 H 0.743500 0.195500 0.494200
H4 H 0.606500 0.472000 0.837000
H5 H 0.366300 0.449700 0.656200
H6 H 0.582000 0.463100 0.715500
H7 H 0.396900 0.455600 0.578600
H8 H 0.530000 0.445500 0.734300
H9 H 0.335700 0.809800 0.543500
H10 H 0.514000 0.529400 0.632800
H11 H 0.340800 0.852000 0.513400
H12 H 0.477900 0.524300 0.708400
H13 H 0.614500 0.414900 0.844700
H14 H 0.335100 0.864500 0.594700
H15 H 0.548000 0.475800 0.565300
H16 H 0.305200 0.900400 0.560900
H17 H 0.278000 0.856500 0.587000
H18 H 0.286900 0.832000 0.465500
H19 H 0.634000 0.506600 0.537800
H20 H 0.304500 0.780000 0.484300
H21 H 0.709400 0.466600 0.534500
H22 H 0.164300 0.190200 0.043500
H23 H 0.660800 0.375900 0.435400
H24 H 0.159200 0.148000 0.013400
H25 H 0.583300 0.411800 0.437000
H26 H 0.756500 0.804500 0.994200
H27 H 0.945500 0.993500 0.755800
H28 H 0.602000 0.409200 0.763400
H29 H 0.633700 0.550300 0.343800
H30 H 0.164900 0.135500 0.094700
H31 H 0.603100 0.544400 0.421400
H32 H 0.194800 0.099600 0.060900
H33 H 0.222000 0.143500 0.087000
H34 H 0.486000 0.470600 0.367200
H35 H 0.213100 0.168000 -0.034500
H36 H 0.522100 0.475700 0.291600
H37 H 0.195500 0.220000 -0.015700
H38 H 0.059800 0.085700 0.206500
H39 H 0.452000 0.524200 0.434700
H40 H 0.102000 0.090800 0.236600
H41 H 0.559800 0.414300 0.793500
H42 H 0.114500 0.085100 0.155300
H43 H 0.366000 0.493400 0.462200
H44 H 0.150400 0.055200 0.189100
H45 H 0.290600 0.533400 0.465500
H46 H 0.106500 0.028000 0.163000
H47 H 0.339200 0.624100 0.564600
H48 H 0.082000 0.036900 0.284500
H49 H 0.416700 0.588200 0.563000
H50 H 0.243500 0.304500 0.505800
H51 H 0.554500 0.006500 0.255800
H52 H 0.756500 0.195500 0.505800
H53 H 0.054500 0.493500 0.744200
H54 H 0.945500 0.006500 0.744200
H55 H 0.243500 0.695500 0.994200
H56 H 0.256500 0.304500 0.494200
H57 H 0.445500 0.493500 0.255800
H58 H 0.743500 0.804500 0.005800
H59 H 0.030000 0.054500 0.265700
H60 H 0.800300 0.116300 0.906200
H61 H 0.835700 0.690200 0.456500
H62 H 0.794400 0.146900 0.828600
H63 H 0.840800 0.648000 0.486600
H64 H 0.835100 0.635500 0.405300
H65 H 0.720600 0.264000 0.882800
H66 H 0.805200 0.599600 0.439100
H67 H 0.725700 0.227900 0.958400
H68 H 0.778000 0.643500 0.413000
H69 H 0.786900 0.668000 0.534500
H70 H 0.774200 0.298000 0.815300
H71 H 0.804500 0.720000 0.515700
H72 H 0.440200 0.914300 0.706500
H73 H 0.398000 0.909200 0.736600
H74 H 0.743400 0.384000 0.787800
H75 H 0.470000 0.054500 0.734300
H76 H 0.783400 0.459400 0.784500
H77 H 0.385500 0.914900 0.655300
H78 H 0.874100 0.410800 0.685400
H79 H 0.349600 0.944800 0.689100
H80 H 0.838200 0.333300 0.687000
H81 H 0.054500 0.506500 0.755800
H82 H 0.393500 0.972000 0.663000
H83 H 0.699700 0.383700 0.593800
H84 H 0.418000 0.963100 0.784500
H85 H 0.705600 0.353100 0.671400
H86 H 0.470000 0.945500 0.765700
H87 H 0.164300 0.809800 0.456500
H88 H 0.779400 0.236000 0.617200
H89 H 0.159200 0.852000 0.486600
H90 H 0.774300 0.272100 0.541600
H91 H 0.418000 0.036900 0.715500
H92 H 0.164900 0.864500 0.405300
H93 H 0.725800 0.202000 0.684700
H94 H 0.194800 0.900400 0.439100
H95 H 0.222000 0.856500 0.413000
H96 H 0.213100 0.832000 0.534500
H97 H 0.756600 0.116000 0.712200
H98 H 0.195500 0.780000 0.515700
H99 H 0.716600 0.040600 0.715500
H100 H 0.940200 0.585700 0.293500
H101 H 0.625900 0.089200 0.814600
H102 H 0.898000 0.590800 0.263400
H103 H 0.661800 0.166700 0.813000
H104 H 0.256500 0.695500 0.005800
H105 H 0.445500 0.006500 0.755800
H106 H 0.554500 0.493500 0.755800
H107 H 0.256500 0.804500 0.505800
H108 H 0.243500 0.195500 0.005800
H109 H 0.054500 0.006500 0.244200
H110 H 0.756500 0.695500 0.494200
H111 H 0.445500 0.993500 0.744200
H112 H 0.885500 0.585100 0.344700
H113 H 0.633700 0.050300 0.656200
H114 H 0.849600 0.555200 0.310900
H115 H 0.603100 0.044400 0.578600
H116 H 0.893500 0.528000 0.337000
H117 H 0.918000 0.536900 0.215500
H118 H 0.486000 -0.029400 0.632800
H119 H 0.970000 0.554500 0.234300
H120 H 0.522100 -0.024300 0.708400
H121 H 0.059800 0.914300 0.293500
H122 H 0.102000 0.909200 0.263400
H123 H 0.452000 0.024200 0.565300
H124 H 0.393500 0.028000 0.837000
H125 H 0.114500 0.914900 0.344700
H126 H 0.150400 0.944800 0.310900
H127 H 0.366000 -0.006600 0.537800
H128 H 0.106500 0.972000 0.337000
H129 H 0.290600 0.033400 0.534500
H130 H 0.082000 0.963100 0.215500
H131 H 0.339200 0.124100 0.435400
H132 H 0.030000 0.945500 0.234300
H133 H 0.416700 0.088200 0.437000
H134 H 0.243500 0.804500 0.494200
H135 H 0.945500 0.506500 0.255800
H136 H 0.835700 0.309800 0.043500
H137 H 0.366300 -0.050300 0.343800
H138 H 0.840800 0.352000 0.013400
H139 H 0.396900 -0.044400 0.421400
H140 H 0.349600 0.055200 0.810900
H141 H 0.835100 0.364500 0.094700
H142 H 0.514000 0.029400 0.367200
H143 H 0.805200 0.400400 0.060900
H144 H 0.477900 0.024300 0.291600
H145 H 0.778000 0.356500 0.087000
H146 H 0.786900 0.332000 -0.034500
H147 H 0.548000 -0.024200 0.434700
H148 H 0.804500 0.280000 -0.015700
H149 H 0.664300 0.690200 0.543500
H150 H 0.659200 0.648000 0.513400
H151 H 0.634000 0.006600 0.462200
H152 H 0.385500 0.085100 0.844700
H153 H 0.709400 -0.033400 0.465500
H154 H 0.664900 0.635500 0.594700
H155 H 0.660800 -0.124100 0.564600
H156 H 0.694800 0.599600 0.560900
H157 H 0.583300 -0.088200 0.563000
H158 H 0.054500 0.993500 0.255800
H159 H 0.756500 0.304500 0.005800
H160 H 0.743500 0.695500 0.505800
H161 H 0.554500 0.506500 0.744200
H162 H 0.256500 0.195500 0.994200
H163 H 0.945500 0.493500 0.244200
H164 H 0.743500 0.304500 0.994200
H165 H 0.722000 0.643500 0.587000
H166 H 0.699700 0.883700 0.406200
H167 H 0.713100 0.668000 0.465500
H168 H 0.705600 0.853100 0.328600
H169 H 0.695500 0.720000 0.484300
H170 H 0.559800 0.585700 0.706500
H171 H 0.779400 0.736000 0.382800
H172 H 0.602000 0.590800 0.736600
H173 H 0.774300 0.772100 0.458400
H174 H 0.398000 0.090800 0.763400
H175 H 0.614500 0.585100 0.655300
H176 H 0.725800 0.702000 0.315300
H177 H 0.650400 0.555200 0.689100
H178 H 0.606500 0.528000 0.663000
H179 H 0.582000 0.536900 0.784500
H180 H 0.756600 0.616000 0.287800
H181 H 0.530000 0.554500 0.765700
H182 H 0.716600 0.540600 0.284500
H183 H 0.335700 0.190200 0.956500
H184 H 0.625900 0.589200 0.185400
H185 H 0.340800 0.148000 0.986600
H186 H 0.661800 0.666700 0.187000
H187 H 0.559800 0.914300 0.206500
H188 H 0.602000 0.909200 0.236600
H189 H 0.440200 0.085700 0.793500
H190 H 0.800300 0.616300 0.093800
H191 H 0.335100 0.135500 0.905300
H192 H 0.794400 0.646900 0.171400
H193 H 0.305200 0.099600 0.939100
H194 H 0.278000 0.143500 0.913000
H195 H 0.720600 0.764000 0.117200
H196 H 0.286900 0.168000 1.034500
H197 H 0.725700 0.727900 0.041600
H198 H 0.304500 0.220000 1.015700
H199 H 0.940200 0.414300 0.206500
H200 H 0.774200 0.798000 0.184700
H201 H 0.898000 0.409200 0.236600
H202 H 0.885500 0.414900 0.155300
H203 H 0.849600 0.444800 0.189100
H204 H 0.743400 0.884000 0.212200
H205 H 0.893500 0.472000 0.163000
H206 H 0.783400 0.959400 0.215500
H207 H 0.918000 0.463100 0.284500
H208 H 0.874100 0.910800 0.314600
H209 H 0.970000 0.445500 0.265700
H210 H 0.838200 0.833300 0.313000
H211 H 0.614500 0.914900 0.155300
H212 H 0.650400 0.944800 0.189100
H213 H 0.606500 0.972000 0.163000
H214 H 0.664300 0.309800 0.956500
H215 H 0.582000 0.963100 0.284500
H216 H 0.530000 0.945500 0.265700
H217 H 0.659200 0.352000 0.986600
H218 H 0.440200 0.585700 0.206500
H219 H 0.304500 0.720000 -0.015700
H220 H 0.366300 0.550300 0.843800
H221 H 0.664900 0.364500 0.905300
H222 H 0.396900 0.544400 0.921400
H223 H 0.694800 0.400400 0.939100
H224 H 0.722000 0.356500 0.913000
H225 H 0.514000 0.470600 0.867200
H226 H 0.713100 0.332000 1.034500
H227 H 0.477900 0.475700 0.791600
H228 H 0.695500 0.280000 1.015700
H229 H 0.286900 0.668000 -0.034500
H230 H 0.548000 0.524200 0.934700
H231 H 0.278000 0.643500 0.087000
H232 H 0.305200 0.599600 0.060900
H233 H 0.335100 0.635500 0.094700
H234 H 0.634000 0.493400 0.962200
H235 H 0.416700 -0.088200 0.063000
H236 H 0.709400 0.533400 0.965500
H237 H 0.339200 -0.124100 0.064600
H238 H 0.660800 0.624100 1.064600
H239 H 0.290600 -0.033400 -0.034500
H240 H 0.583300 0.588200 1.063000
H241 H 0.398000 0.590800 0.236600
H242 H 0.385500 0.585100 0.155300
H243 H 0.366000 0.006600 -0.037800
H244 H 0.633700 0.449700 1.156200
H245 H 0.452000 -0.024200 -0.065300
H246 H 0.603100 0.455600 1.078600
H247 H 0.522100 0.024300 -0.208400
H248 H 0.486000 0.029400 -0.132800
H249 H 0.486000 0.529400 1.132800
H250 H 0.603100 -0.044400 -0.078600
H251 H 0.522100 0.524300 1.208400
H252 H 0.633700 -0.050300 -0.156200
H253 H 0.340800 0.648000 0.013400
H254 H 0.452000 0.475800 1.065300
H255 H 0.335700 0.690200 0.043500
H256 H 0.583300 0.088200 -0.063000
H257 H 0.660800 0.124100 -0.064600
H258 H 0.366000 0.506600 1.037800
H259 H 0.709400 0.033400 0.034500
H260 H 0.290600 0.466600 1.034500
H261 H 0.634000 -0.006600 0.037800
H262 H 0.339200 0.375900 0.935400
H263 H 0.548000 0.024200 0.065300
H264 H 0.416700 0.411800 0.937000
H265 H 0.349600 0.555200 0.189100
H266 H 0.393500 0.528000 0.163000
H267 H 0.477900 -0.024300 0.208400
H268 H 0.418000 0.536900 0.284500
H269 H 0.470000 0.554500 0.265700
H270 H 0.514000 -0.029400 0.132800
H271 H 0.396900 0.044400 0.078600
H272 H 1.133700 0.449700 0.343800
H273 H 0.366300 0.050300 0.156200
H274 H 1.103100 0.455600 0.421400
H275 H 0.030000 0.554500 0.734300
H276 H 0.082000 0.536900 0.715500
H277 H 0.986000 0.529400 0.367200
H278 H 1.083300 1.088200 0.563000
H279 H 1.022100 0.524300 0.291600
H280 H 1.160800 1.124100 0.564600
H281 H 1.209400 1.033400 0.465500
H282 H 0.952000 0.475800 0.434700
H283 H 1.134000 0.993400 0.462200
H284 H 1.048000 1.024200 0.434700
H285 H 0.977900 0.975700 0.291600
H286 H 0.866000 0.506600 0.462200
H287 H 1.014000 0.970600 0.367200
H288 H 0.790600 0.466600 0.465500
H289 H 0.896900 1.044400 0.421400
H290 H 0.839200 0.375900 0.564600
H291 H 0.866300 1.050300 0.343800
H292 H 0.916700 0.411800 0.563000
H293 H 0.664300 0.190200 0.456500
H294 H 0.916700 0.911800 0.437000
H295 H 0.866300 0.550300 0.656200
H296 H 0.839200 0.875900 0.435400
H297 H 0.896900 0.544400 0.578600
H298 H 0.790600 0.966600 0.534500
H299 H 0.866000 1.006600 0.537800
H300 H 1.014000 0.470600 0.632800
H301 H 0.952000 0.975800 0.565300
H302 H 0.977900 0.475700 0.708400
H303 H 1.022100 1.024300 0.708400
H304 H 0.986000 1.029400 0.632800
H305 H 1.048000 0.524200 0.565300
H306 H 1.103100 0.955600 0.578600
H307 H 1.133700 0.949700 0.656200
H308 H 0.106500 0.528000 0.837000
H309 H 1.134000 0.493400 0.537800
H310 H 0.150400 0.555200 0.810900
H311 H 1.209400 0.533400 0.534500
H312 H 0.114500 0.585100 0.844700
H313 H 1.160800 0.624100 0.435400
H314 H 0.102000 0.590800 0.763400
H315 H 1.083300 0.588200 0.437000
H316 H 0.659200 0.148000 0.486600
H317 H 0.664900 0.135500 0.405300
H318 H 0.694800 0.099600 0.439100
H319 H 0.722000 0.143500 0.413000
H320 H 0.059800 0.585700 0.793500
H321 H 0.695500 0.780000 -0.015700
H322 H 0.199700 0.616300 0.593800
H323 H -0.083300 0.588200 0.937000
H324 H 0.205600 0.646900 0.671400
H325 H -0.160800 0.624100 0.935400
H326 H -0.209400 0.533400 1.034500
H327 H 0.279400 0.764000 0.617200
H328 H -0.134000 0.493400 1.037800
H329 H 0.274300 0.727900 0.541600
H330 H -0.048000 0.524200 1.065300
H331 H 0.022100 0.475700 1.208400
H332 H 0.225800 0.798000 0.684700
H333 H -0.014000 0.470600 1.132800
H334 H 0.103100 0.544400 1.078600
H335 H 0.133700 0.550300 1.156200
H336 H 0.256600 0.884000 0.712200
H337 H 0.713100 0.832000 -0.034500
H338 H 0.216600 0.959400 0.715500
H339 H 0.083300 0.411800 1.063000
H340 H 0.125900 0.910800 0.814600
H341 H 0.160800 0.375900 1.064600
H342 H 0.161800 0.833300 0.813000
H343 H 0.713100 0.168000 0.534500
H344 H 0.695500 0.220000 0.515700
H345 H 0.209400 0.466600 0.965500
H346 H 0.300300 0.883700 0.906200
H347 H 0.134000 0.506600 0.962200
H348 H 0.294400 0.853100 0.828600
H349 H 0.048000 0.475800 0.934700
H350 H -0.022100 0.524300 0.791600
H351 H 0.220600 0.736000 0.882800
H352 H 0.014000 0.529400 0.867200
H353 H 0.225700 0.772100 0.958400
H354 H -0.103100 0.455600 0.921400
H355 H -0.133700 0.449700 0.843800
H356 H 0.274200 0.702000 0.815300
H357 H 0.722000 0.856500 0.087000
H358 H 0.694800 0.900400 0.060900
H359 H 0.664900 0.864500 0.094700
H360 H 0.243400 0.616000 0.787800
H361 H 0.659200 0.852000 0.013400
H362 H 0.283400 0.540600 0.784500
H363 H 0.664300 0.809800 0.043500
H364 H 0.374100 0.589200 0.685400
H365 H 0.470000 0.445500 0.234300
H366 H 0.338200 0.666700 0.687000
H367 H 0.418000 0.463100 0.215500
H368 H 0.835700 0.809800 0.956500
H369 H 0.840800 0.852000 0.986600
H370 H 0.835100 0.864500 0.905300
H371 H 0.805200 0.900400 0.939100
H372 H 1.083300 -0.088200 0.937000
H373 H 0.800300 0.883700 0.593800
H374 H 1.160800 -0.124100 0.935400
H375 H 0.794400 0.853100 0.671400
H376 H 1.209400 -0.033400 1.034500
H377 H 1.134000 0.006600 1.037800
H378 H 0.720600 0.736000 0.617200
H379 H 1.048000 -0.024200 1.065300
H380 H 0.725700 0.772100 0.541600
H381 H 0.977900 0.024300 1.208400
H382 H 1.014000 0.029400 1.132800
H383 H 0.774200 0.702000 0.684700
H384 H 0.896900 -0.044400 1.078600
H385 H 0.866300 -0.050300 1.156200
H386 H 0.393500 0.472000 0.337000
H387 H 0.743400 0.616000 0.712200
H388 H 0.349600 0.444800 0.310900
H389 H 0.783400 0.540600 0.715500
H390 H 0.916700 0.088200 1.063000
H391 H 0.874100 0.589200 0.814600
H392 H 0.839200 0.124100 1.064600
H393 H 0.838200 0.666700 0.813000
H394 H 0.778000 0.856500 0.913000
H395 H 0.790600 0.033400 0.965500
H396 H 0.699700 0.616300 0.906200
H397 H 0.866000 -0.006600 0.962200
H398 H 0.705600 0.646900 0.828600
H399 H 0.952000 0.024200 0.934700
H400 H 1.022100 -0.024300 0.791600
H401 H 0.779400 0.764000 0.882800
H402 H 0.986000 -0.029400 0.867200
H403 H 0.774300 0.727900 0.958400
H404 H 1.103100 0.044400 0.921400
H405 H 1.133700 0.050300 0.843800
H406 H 0.725800 0.798000 0.815300
H407 H 0.385500 0.414900 0.344700
H408 H 0.398000 0.409200 0.263400
H409 H 0.440200 0.414300 0.293500
H410 H 0.756600 0.884000 0.787800
H411 H 0.304500 0.280000 0.515700
H412 H 0.716600 0.959400 0.784500
H413 H 0.286900 0.332000 0.534500
H414 H 0.625900 0.910800 0.685400
H415 H -0.083300 0.411800 0.563000
H416 H 0.661800 0.833300 0.687000
H417 H -0.160800 0.375900 0.564600
H418 H 0.786900 0.832000 1.034500
H419 H 0.804500 0.780000 1.015700
H420 H -0.209400 0.466600 0.465500
H421 H -0.134000 0.506600 0.462200
H422 H -0.133700 0.949700 0.156200
H423 H -0.048000 0.475800 0.434700
H424 H -0.103100 0.955600 0.078600
H425 H 0.022100 0.524300 0.291600
H426 H -0.014000 0.529400 0.367200
H427 H 0.014000 1.029400 0.132800
H428 H 0.103100 0.455600 0.421400
H429 H -0.022100 1.024300 0.208400
H430 H 0.133700 0.449700 0.343800
H431 H 0.278000 0.356500 0.413000
H432 H 0.048000 0.975800 0.065300
H433 H 0.083300 0.588200 0.437000
H434 H 0.160800 0.624100 0.435400
H435 H 0.209400 0.533400 0.534500
H436 H 0.134000 1.006600 0.037800
H437 H 0.134000 0.493400 0.537800
H438 H 0.209400 0.966600 0.034500
H439 H 0.048000 0.524200 0.565300
H440 H 0.160800 0.875900 -0.064600
H441 H -0.022100 0.475700 0.708400
H442 H 0.083300 0.911800 -0.063000
H443 H 0.940200 0.914300 0.793500
H444 H 0.898000 0.909200 0.763400
H445 H 0.014000 0.470600 0.632800
H446 H 0.133700 1.050300 -0.156200
H447 H -0.103100 0.544400 0.578600
H448 H 0.103100 1.044400 -0.078600
H449 H -0.133700 0.550300 0.656200
H450 H 0.305200 0.400400 0.439100
H451 H -0.014000 0.970600 -0.132800
H452 H 0.335100 0.364500 0.405300
H453 H 0.022100 0.975700 -0.208400
H454 H 0.340800 0.352000 0.486600
H455 H 0.335700 0.309800 0.456500
H456 H -0.048000 1.024200 -0.065300
H457 H 0.583300 0.588200 0.063000
H458 H 0.660800 0.624100 0.064600
H459 H 0.709400 0.533400 -0.034500
H460 H -0.134000 0.993400 -0.037800
H461 H 0.634000 0.493400 -0.037800
H462 H -0.209400 1.033400 -0.034500
H463 H 0.548000 0.524200 -0.065300
H464 H -0.160800 1.124100 0.064600
H465 H 0.477900 0.475700 -0.208400
H466 H -0.083300 1.088200 0.063000
H467 H 0.885500 0.914900 0.844700
H468 H 0.849600 0.944800 0.810900
H469 H 0.893500 0.972000 0.837000
H470 H 0.514000 0.470600 -0.132800
H471 H 0.918000 0.963100 0.715500
H472 H 0.970000 0.945500 0.734300
H473 H 0.396900 0.544400 -0.078600
H474 H 0.164300 0.309800 0.543500
H475 H 0.159200 0.352000 0.513400
H476 H 0.366300 0.550300 -0.156200
H477 H 0.300300 0.616300 0.406200
H478 H 0.416700 0.411800 -0.063000
H479 H 0.294400 0.646900 0.328600
H480 H 0.339200 0.375900 -0.064600
H481 H 0.290600 0.466600 0.034500
H482 H 0.220600 0.764000 0.382800
H483 H 0.366000 0.506600 0.037800
H484 H 0.225700 0.727900 0.458400
H485 H 0.452000 0.475800 0.065300
H486 H 0.522100 0.524300 0.208400
H487 H 0.274200 0.798000 0.315300
H488 H 0.486000 0.529400 0.132800
H489 H 0.603100 0.455600 0.078600
H490 H 0.633700 0.449700 0.156200
H491 H 0.243400 0.884000 0.287800
H492 H 0.195500 0.720000 1.015700
H493 H 0.283400 0.959400 0.284500
H494 H 0.213100 0.668000 1.034500
H495 H 0.374100 0.910800 0.185400
H496 H 0.416700 1.088200 0.437000
H497 H 0.338200 0.833300 0.187000
H498 H 0.164900 0.364500 0.594700
H499 H 0.339200 1.124100 0.435400
H500 H 0.199700 0.883700 0.093800
H501 H 0.290600 1.033400 0.534500
H502 H 0.205600 0.853100 0.171400
H503 H 0.366000 0.993400 0.537800
H504 H 0.452000 1.024200 0.565300
H505 H 0.279400 0.736000 0.117200
H506 H 0.522100 0.975700 0.708400
H507 H 0.274300 0.772100 0.041600
H508 H 0.486000 0.970600 0.632800
H509 H 0.603100 1.044400 0.578600
H510 H 0.225800 0.702000 0.184700
H511 H 0.633700 1.050300 0.656200
H512 H 0.222000 0.643500 0.913000
H513 H 0.194800 0.599600 0.939100
H514 H 0.256600 0.616000 0.212200
H515 H 0.583300 0.911800 0.563000
H516 H 0.216600 0.540600 0.215500
H517 H 0.660800 0.875900 0.564600
H518 H 0.125900 0.589200 0.314600
H519 H 0.709400 0.966600 0.465500
H520 H 0.161800 0.666700 0.313000
H521 H 0.194800 0.400400 0.560900
H522 H 0.222000 0.356500 0.587000
H523 H 0.634000 1.006600 0.462200
H524 H 0.213100 0.332000 0.465500
H525 H 0.195500 0.280000 0.484300
H526 H 0.548000 0.975800 0.434700
H527 H 0.477900 1.024300 0.291600
H528 H 1.133700 0.550300 0.156200
H529 H 0.514000 1.029400 0.367200
H530 H 1.103100 0.544400 0.078600
H531 H 0.396900 0.955600 0.421400
H532 H 0.366300 0.949700 0.343800
H533 H 0.986000 0.470600 0.132800
H534 H 0.164900 0.635500 0.905300
H535 H 1.022100 0.475700 0.208400
H536 H 0.159200 0.648000 0.986600
H537 H 0.164300 0.690200 0.956500
H538 H 0.952000 0.524200 0.065300
H539 H 0.970000 0.054500 0.765700
H540 H 0.918000 0.036900 0.784500
H541 H 0.161800 0.333300 0.187000
H542 H 0.866000 0.493400 0.037800
H543 H 0.125900 0.410800 0.185400
H544 H 0.790600 0.533400 0.034500
H545 H 0.216600 0.459400 0.284500
H546 H 0.839200 0.624100 -0.064600
H547 H 0.256600 0.384000 0.287800
H548 H 0.916700 0.588200 -0.063000
H549 H 0.559800 0.085700 0.293500
H550 H 0.602000 0.090800 0.263400
H551 H 0.225800 0.298000 0.315300
H552 H 0.866300 0.449700 -0.156200
H553 H 0.274300 0.227900 0.458400
H554 H 0.896900 0.455600 -0.078600
H555 H 0.279400 0.264000 0.382800
H556 H 0.205600 0.146900 0.328600
H557 H 1.014000 0.529400 -0.132800
H558 H 0.199700 0.116300 0.406200
H559 H 0.977900 0.524300 -0.208400
H560 H 0.893500 0.028000 0.663000
H561 H 0.338200 0.166700 0.313000
H562 H 1.048000 0.475800 -0.065300
H563 H 0.374100 0.089200 0.314600
H564 H 0.283400 0.040600 0.215500
H565 H 0.243400 0.116000 0.212200
H566 H 1.134000 0.506600 -0.037800
H567 H 0.274200 0.202000 0.184700
H568 H 1.209400 0.466600 -0.034500
H569 H 0.225700 0.272100 0.041600
H570 H 1.160800 0.375900 0.064600
H571 H 0.220600 0.236000 0.117200
H572 H 1.083300 0.411800 0.063000
H573 H 0.614500 0.085100 0.344700
H574 H 0.650400 0.055200 0.310900
H575 H 0.606500 0.028000 0.337000
H576 H 0.294400 0.353100 0.171400
H577 H 0.582000 0.036900 0.215500
H578 H 0.530000 0.054500 0.234300
H579 H 0.300300 0.383700 0.093800
H580 H 0.849600 0.055200 0.689100
H581 H 0.199700 0.383700 0.906200
H582 H 0.885500 0.085100 0.655300
H583 H 0.205600 0.353100 0.828600
H584 H 0.898000 0.090800 0.736600
H585 H 0.940200 0.085700 0.706500
H586 H 0.279400 0.236000 0.882800
H587 H 0.838200 0.166700 0.187000
H588 H 0.274300 0.272100 0.958400
H589 H 0.874100 0.089200 0.185400
H590 H 0.783400 0.040600 0.284500
H591 H 0.225800 0.202000 0.815300
H592 H 0.743400 0.116000 0.287800
H593 H 0.774200 0.202000 0.315300
H594 H 0.725700 0.272100 0.458400
H595 H 0.256600 0.116000 0.787800
H596 H 0.720600 0.236000 0.382800
H597 H 0.216600 0.040600 0.784500
H598 H 0.794400 0.353100 0.328600
H599 H 0.125900 0.089200 0.685400
H600 H 0.800300 0.383700 0.406200
H601 H 0.161800 0.166700 0.687000
H602 H 0.835700 0.190200 0.543500
H603 H 0.661800 0.333300 0.313000
H604 H 0.300300 0.116300 0.593800
H605 H 0.625900 0.410800 0.314600
H606 H 0.294400 0.146900 0.671400
H607 H 0.716600 0.459400 0.215500
H608 H 0.756600 0.384000 0.212200
H609 H 0.220600 0.264000 0.617200
H610 H 0.725800 0.298000 0.184700
H611 H 0.225700 0.227900 0.541600
H612 H 0.774300 0.227900 0.041600
H613 H 0.779400 0.264000 0.117200
H614 H 0.274200 0.298000 0.684700
H615 H 0.705600 0.146900 0.171400
H616 H 0.699700 0.116300 0.093800
H617 H 0.030000 0.445500 0.765700
H618 H 0.243400 0.384000 0.712200
H619 H 0.082000 0.463100 0.784500
H620 H 0.283400 0.459400 0.715500
H621 H 0.106500 0.472000 0.663000
H622 H 0.374100 0.410800 0.814600
H623 H 0.150400 0.444800 0.689100
H624 H 0.338200 0.333300 0.813000
H625 H 0.840800 0.148000 0.513400
H626 H 0.835100 0.135500 0.594700
H627 H 0.805200 0.099600 0.560900
H628 H 0.778000 0.143500 0.587000
H629 H 0.583300 1.088200 0.937000
H630 H -0.133700 0.050300 0.343800
H631 H 0.660800 1.124100 0.935400
H632 H -0.103100 0.044400 0.421400
H633 H 0.709400 1.033400 1.034500
H634 H 0.634000 0.993400 1.037800
H635 H 0.014000 -0.029400 0.367200
H636 H 0.548000 1.024200 1.065300
H637 H -0.022100 -0.024300 0.291600
H638 H 0.477900 0.975700 1.208400
H639 H 0.514000 0.970600 1.132800
H640 H 0.048000 0.024200 0.434700
H641 H 0.396900 1.044400 1.078600
H642 H 0.366300 1.050300 1.156200
H643 H 0.114500 0.414900 0.655300
H644 H 0.134000 -0.006600 0.462200
H645 H 0.102000 0.409200 0.736600
H646 H 0.209400 0.033400 0.465500
H647 H 0.416700 0.911800 1.063000
H648 H 0.160800 0.124100 0.564600
H649 H 0.339200 0.875900 1.064600
H650 H 0.083300 0.088200 0.563000
H651 H 0.290600 0.966600 0.965500
H652 H 0.366000 1.006600 0.962200
H653 H 0.133700 -0.050300 0.656200
H654 H 0.452000 0.975800 0.934700
H655 H 0.103100 -0.044400 0.578600
H656 H 0.522100 1.024300 0.791600
H657 H 0.486000 1.029400 0.867200
H658 H -0.014000 0.029400 0.632800
H659 H 0.603100 0.955600 0.921400
H660 H 0.022100 0.024300 0.708400
H661 H 0.633700 0.949700 0.843800
H662 H 0.059800 0.414300 0.706500
H663 H -0.048000 -0.024200 0.565300
H664 H 0.804500 0.220000 0.484300
H665 H 0.786900 0.168000 0.465500
H666 H -0.083300 -0.088200 0.437000
H667 H -0.134000 0.006600 0.537800
H668 H -0.160800 -0.124100 0.435400
H669 H -0.209400 -0.033400 0.534500
H670 H 0.650400 0.444800 0.810900
C671 C -0.183600 -0.044600 0.514800
C672 C -0.108300 -0.076300 0.457100
C673 C -0.138300 -0.020300 0.517100
C674 C -0.099600 -0.036500 0.488000
C675 C -0.049400 -0.015100 0.493200
C676 C 0.789200 0.189200 0.493400
C677 C -0.028600 -0.014700 0.539000
C678 C 0.604300 0.967000 0.849000
C679 C 0.020300 -0.000600 0.547400
C680 C 0.586100 0.970100 0.895600
C681 C 0.038500 0.010400 0.682000
C682 C 0.541500 0.995500 0.903500
C683 C 0.516800 1.014300 0.863600
C684 C 0.016800 0.014300 0.636400
C685 C 0.538500 1.010400 0.818000
C686 C 0.041500 -0.004500 0.596500
C687 C 0.520300 0.999400 0.952600
C688 C 0.471400 0.985300 0.961000
C689 C 0.086100 -0.029900 0.604400
C690 C 0.450600 0.984900 1.006800
C691 C 0.400400 0.963500 1.012000
C692 C 0.361700 0.979700 0.982900
C693 C 0.104300 -0.033000 0.651000
C694 C 0.316400 0.955400 0.985200
C695 C 0.808000 0.133000 0.572000
C696 C 0.345000 0.902000 1.043200
C697 C 0.108300 0.076300 0.542900
C698 C 0.391700 0.923700 1.042900
C699 C 0.155000 0.098000 0.543200
C700 C 0.183600 0.044600 0.485200
C701 C 0.138300 0.020300 0.482900
C702 C 0.395700 1.033000 1.151000
C703 C 0.099600 0.036500 0.512000
C704 C 0.413900 1.029900 1.104400
C705 C 0.049400 0.015100 0.506800
C706 C 0.458500 1.004500 1.096500
C707 C 0.483200 0.985700 1.136400
C708 C 0.028600 0.014700 0.461000
C709 C 0.461500 0.989600 1.182000
C710 C -0.020300 0.000600 0.452600
C711 C 0.479700 1.000600 1.047400
C712 C 0.528600 1.014700 1.039000
C713 C -0.038500 -0.010400 0.318000
C714 C 0.549400 1.015100 0.993200
C715 C 0.599600 1.036500 0.988000
C716 C 0.638300 1.020300 1.017100
C717 C -0.016800 -0.014300 0.363600
C718 C 0.683600 1.044600 1.014800
C719 C -0.041500 0.004500 0.403500
C720 C 0.655000 1.098000 0.956800
C721 C -0.086100 0.029900 0.395600
C722 C 0.608300 1.076300 0.957100
C723 C -0.104300 0.033000 0.349000
C724 C 0.326300 0.358300 0.792900
C725 C 0.348000 0.405000 0.793200
C726 C 0.117000 0.442000 0.678000
C727 C 0.294600 0.433600 0.735200
C728 C 0.270300 0.388300 0.732900
C729 C 0.717000 0.145700 0.099000
C730 C 0.286500 0.349600 0.762000
C731 C 0.720100 0.163900 0.145600
C732 C 0.265100 0.299400 0.756800
C733 C 0.745500 0.208500 0.153500
C734 C 0.764300 0.233200 0.113600
C735 C 0.264700 0.278600 0.711000
C736 C 0.760400 0.211500 0.068000
C737 C 0.250600 0.229700 0.702600
C738 C 0.749400 0.229700 0.202600
C739 C 0.735300 0.278600 0.211000
C740 C 0.239600 0.211500 0.568000
C741 C 0.734900 0.299400 0.256800
C742 C 0.713500 0.349600 0.262000
C743 C 0.729700 0.388300 0.232900
C744 C 0.235700 0.233200 0.613600
C745 C 0.705400 0.433600 0.235200
C746 C 0.254500 0.208500 0.653500
C747 C 0.652000 0.405000 0.293200
C748 C 0.279900 0.163900 0.645600
C749 C 0.673700 0.358300 0.292900
C750 C 0.283000 0.145700 0.599000
C751 C 0.060800 0.460800 0.756600
C752 C 0.783000 0.354300 0.401000
C753 C 0.173700 0.141700 0.707100
C754 C 0.779900 0.336100 0.354400
C755 C 0.152000 0.095000 0.706800
C756 C 0.754500 0.291500 0.346500
C757 C 0.735700 0.266800 0.386400
C758 C 0.205400 0.066400 0.764800
C759 C 0.739600 0.288500 0.432000
C760 C 0.229700 0.111700 0.767100
C761 C 0.750600 0.270300 0.297400
C762 C 0.764700 0.221400 0.289000
C763 C 0.213500 0.150400 0.738000
C764 C 0.765100 0.200600 0.243200
C765 C 0.786500 0.150400 0.238000
C766 C 0.770300 0.111700 0.267100
C767 C 0.234900 0.200600 0.743200
C768 C 0.794600 0.066400 0.264800
C769 C 0.235300 0.221400 0.789000
C770 C 0.848000 0.095000 0.206800
C771 C 0.249400 0.270300 0.797400
C772 C 0.826300 0.141700 0.207100
C773 C 0.260400 0.288500 0.932000
C774 C 0.264300 0.266800 0.886400
C775 C 0.245500 0.291500 0.846500
C776 C 0.220100 0.336100 0.854400
C777 C 0.217000 0.354300 0.901000
C778 C 0.283000 0.354300 0.099000
C779 C 0.560800 0.039200 0.243400
C780 C 0.279900 0.336100 0.145600
C781 C 0.617000 0.058000 0.322000
C782 C 0.254500 0.291500 0.153500
C783 C 0.235700 0.266800 0.113600
C784 C 1.108300 0.423700 0.042900
C785 C 0.239600 0.288500 0.068000
C786 C 1.155000 0.402000 0.043200
C787 C 0.250600 0.270300 0.202600
C788 C 0.264700 0.221400 0.211000
C789 C 1.183600 0.455400 -0.014800
C790 C 0.265100 0.200600 0.256800
C791 C 0.286500 0.150400 0.262000
C792 C 0.270300 0.111700 0.232900
C793 C 1.138300 0.479700 -0.017100
C794 C 0.294600 0.066400 0.235200
C795 C 1.099600 0.463500 0.012000
C796 C 0.348000 0.095000 0.293200
C797 C 1.049400 0.484900 0.006800
C798 C 0.326300 0.141700 0.292900
C799 C 1.028600 0.485300 -0.039000
C800 C 0.979700 0.499400 -0.047400
C801 C 0.217000 0.145700 0.401000
C802 C 0.961500 0.510400 -0.182000
C803 C 0.220100 0.163900 0.354400
C804 C 0.983200 0.514300 -0.136400
C805 C 0.245500 0.208500 0.346500
C806 C 0.264300 0.233200 0.386400
C807 C 0.958500 0.495500 -0.096500
C808 C 0.260400 0.211500 0.432000
C809 C 0.913900 0.470100 -0.104400
C810 C 0.249400 0.229700 0.297400
C811 C 0.235300 0.278600 0.289000
C812 C 0.895700 0.467000 -0.151000
C813 C 0.234900 0.299400 0.243200
C814 C 0.213500 0.349600 0.238000
C815 C 0.229700 0.388300 0.267100
C816 C 0.891700 0.576300 -0.042900
C817 C 0.205400 0.433600 0.264800
C818 C 0.845000 0.598000 -0.043200
C819 C 0.152000 0.405000 0.206800
C820 C 0.816400 0.544600 0.014800
C821 C 0.173700 0.358300 0.207100
C822 C 0.861700 0.520300 0.017100
C823 C 0.883000 0.058000 0.678000
C824 C 0.900400 0.536500 -0.012000
C825 C 0.950600 0.515100 -0.006800
C826 C 0.939200 0.039200 0.756600
C827 C 0.971400 0.514700 0.039000
C828 C 1.020300 0.500600 0.047400
C829 C 1.038500 0.489600 0.182000
C830 C 0.395700 0.967000 0.349000
C831 C 1.016800 0.485700 0.136400
C832 C 0.413900 0.970100 0.395600
C833 C 1.041500 0.504500 0.096500
C834 C 0.458500 0.995500 0.403500
C835 C 0.483200 1.014300 0.363600
C836 C 1.086100 0.529900 0.104400
C837 C 0.461500 1.010400 0.318000
C838 C 1.104300 0.533000 0.151000
C839 C 0.479700 0.999400 0.452600
C840 C 0.528600 0.985300 0.461000
C841 C 0.210800 0.310800 0.493400
C842 C 0.549400 0.984900 0.506800
C843 C 0.599600 0.963500 0.512000
C844 C 0.638300 0.979700 0.482900
C845 C 0.192000 0.367000 0.572000
C846 C 0.683600 0.955400 0.485200
C847 C 0.173700 0.641700 0.292900
C848 C 0.655000 0.902000 0.543200
C849 C 0.152000 0.595000 0.293200
C850 C 0.608300 0.923700 0.542900
C851 C 0.205400 0.566400 0.235200
C852 C 0.229700 0.611700 0.232900
C853 C 0.213500 0.650400 0.262000
C854 C 0.604300 1.033000 0.651000
C855 C 0.234900 0.700600 0.256800
C856 C 0.586100 1.029900 0.604400
C857 C 0.235300 0.721400 0.211000
C858 C 0.541500 1.004500 0.596500
C859 C 0.516800 0.985700 0.636400
C860 C 0.249400 0.770300 0.202600
C861 C 0.538500 0.989600 0.682000
C862 C 0.260400 0.788500 0.068000
C863 C 0.520300 1.000600 0.547400
C864 C 0.471400 1.014700 0.539000
C865 C 0.264300 0.766800 0.113600
C866 C 0.450600 1.015100 0.493200
C867 C 0.400400 1.036500 0.488000
C868 C 0.361700 1.020300 0.517100
C869 C 0.245500 0.791500 0.153500
C870 C 0.316400 1.044600 0.514800
C871 C 0.220100 0.836100 0.145600
C872 C 0.345000 1.098000 0.456800
C873 C 0.217000 0.854300 0.099000
C874 C 0.391700 1.076300 0.457100
C875 C 0.326300 0.858300 0.207100
C876 C 0.192000 0.633000 0.928000
C877 C 0.348000 0.905000 0.206800
C878 C 0.294600 0.933600 0.264800
C879 C 0.604300 0.467000 0.151000
C880 C 0.270300 0.888300 0.267100
C881 C 0.586100 0.470100 0.104400
C882 C 0.286500 0.849600 0.238000
C883 C 0.541500 0.495500 0.096500
C884 C 0.516800 0.514300 0.136400
C885 C 0.265100 0.799400 0.243200
C886 C 0.538500 0.510400 0.182000
C887 C 0.264700 0.778600 0.289000
C888 C 0.520300 0.499400 0.047400
C889 C 0.471400 0.485300 0.039000
C890 C 0.250600 0.729700 0.297400
C891 C 0.450600 0.484900 -0.006800
C892 C 0.400400 0.463500 -0.012000
C893 C 0.361700 0.479700 0.017100
C894 C 0.239600 0.711500 0.432000
C895 C 0.316400 0.455400 0.014800
C896 C 0.235700 0.733200 0.386400
C897 C 0.345000 0.402000 -0.043200
C898 C 0.254500 0.708500 0.346500
C899 C 0.391700 0.423700 -0.042900
C900 C 0.279900 0.663900 0.354400
C901 C 0.210800 0.689200 1.006600
C902 C 0.395700 0.533000 -0.151000
C903 C 0.283000 0.645700 0.401000
C904 C 0.413900 0.529900 -0.104400
C905 C 0.939200 0.960800 0.743400
C906 C 0.458500 0.504500 -0.096500
C907 C 0.483200 0.485700 -0.136400
C908 C 0.883000 0.942000 0.822000
C909 C 0.461500 0.489600 -0.182000
C910 C -0.108300 1.076300 0.042900
C911 C 0.479700 0.500600 -0.047400
C912 C 0.528600 0.514700 -0.039000
C913 C -0.155000 1.098000 0.043200
C914 C 0.549400 0.515100 0.006800
C915 C 0.599600 0.536500 0.012000
C916 C 0.638300 0.520300 -0.017100
C917 C -0.183600 1.044600 -0.014800
C918 C 0.683600 0.544600 -0.014800
C919 C -0.138300 1.020300 -0.017100
C920 C 0.655000 0.598000 0.043200
C921 C -0.099600 1.036500 0.012000
C922 C 0.608300 0.576300 0.042900
C923 C -0.049400 1.015100 0.006800
C924 C -0.028600 1.014700 -0.039000
C925 C 0.020300 1.000600 -0.047400
C926 C 0.038500 0.989600 -0.182000
C927 C 0.016800 0.985700 -0.136400
C928 C -0.104300 0.533000 0.651000
C929 C 0.041500 1.004500 -0.096500
C930 C -0.086100 0.529900 0.604400
C931 C 0.086100 1.029900 -0.104400
C932 C -0.041500 0.504500 0.596500
C933 C -0.016800 0.485700 0.636400
C934 C 0.104300 1.033000 -0.151000
C935 C -0.038500 0.489600 0.682000
C936 C 0.108300 0.923700 -0.042900
C937 C -0.020300 0.500600 0.547400
C938 C 0.028600 0.514700 0.539000
C939 C 0.155000 0.902000 -0.043200
C940 C 0.049400 0.515100 0.493200
C941 C 0.099600 0.536500 0.488000
C942 C 0.138300 0.520300 0.517100
C943 C 0.183600 0.955400 0.014800
C944 C 0.183600 0.544600 0.514800
C945 C 0.138300 0.979700 0.017100
C946 C 0.155000 0.598000 0.456800
C947 C 0.099600 0.963500 -0.012000
C948 C 0.108300 0.576300 0.457100
C949 C 0.049400 0.984900 -0.006800
C950 C 0.028600 0.985300 0.039000
C951 C 0.104300 0.467000 0.349000
C952 C -0.020300 0.999400 0.047400
C953 C 0.086100 0.470100 0.395600
C954 C -0.038500 1.010400 0.182000
C955 C 0.041500 0.495500 0.403500
C956 C 0.016800 0.514300 0.363600
C957 C -0.016800 1.014300 0.136400
C958 C 0.038500 0.510400 0.318000
C959 C -0.041500 0.995500 0.096500
C960 C 0.020300 0.499400 0.452600
C961 C -0.028600 0.485300 0.461000
C962 C -0.086100 0.970100 0.104400
C963 C -0.049400 0.484900 0.506800
C964 C -0.099600 0.463500 0.512000
C965 C -0.138300 0.479700 0.482900
C966 C -0.104300 0.967000 0.151000
C967 C -0.183600 0.455400 0.485200
C968 C 0.789200 0.810800 1.006600
C969 C -0.155000 0.402000 0.543200
C970 C 0.808000 0.867000 0.928000
C971 C -0.108300 0.423700 0.542900
C972 C 0.673700 0.858300 0.707100
C973 C 0.308000 0.367000 0.428000
C974 C 0.652000 0.905000 0.706800
C975 C 0.705400 0.933600 0.764800
C976 C 0.289200 0.310800 0.506600
C977 C 0.729700 0.888300 0.767100
C978 C 0.713500 0.849600 0.738000
C979 C 0.734900 0.799400 0.743200
C980 C 1.104300 0.033000 0.849000
C981 C 0.735300 0.778600 0.789000
C982 C 1.086100 0.029900 0.895600
C983 C 0.749400 0.729700 0.797400
C984 C 1.041500 0.004500 0.903500
C985 C 1.016800 -0.014300 0.863600
C986 C 0.760400 0.711500 0.932000
C987 C 1.038500 -0.010400 0.818000
C988 C 0.764300 0.733200 0.886400
C989 C 1.020300 0.000600 0.952600
C990 C 0.971400 0.014700 0.961000
C991 C 0.745500 0.708500 0.846500
C992 C 0.950600 0.015100 1.006800
C993 C 0.900400 0.036500 1.012000
C994 C 0.861700 0.020300 0.982900
C995 C 0.720100 0.663900 0.854400
C996 C 0.816400 0.044600 0.985200
C997 C 0.717000 0.645700 0.901000
C998 C 0.845000 0.098000 1.043200
C999 C 0.826300 0.641700 0.792900
C1000 C 0.891700 0.076300 1.042900
C1001 C 0.848000 0.595000 0.793200
C1002 C 0.794600 0.566400 0.735200
C1003 C 0.770300 0.611700 0.732900
C1004 C 0.895700 -0.033000 1.151000
C1005 C 0.786500 0.650400 0.762000
C1006 C 0.913900 -0.029900 1.104400
C1007 C 0.765100 0.700600 0.756800
C1008 C 0.958500 -0.004500 1.096500
C1009 C 0.983200 0.014300 1.136400
C1010 C 0.764700 0.721400 0.711000
C1011 C 0.961500 0.010400 1.182000
C1012 C 0.750600 0.770300 0.702600
C1013 C 0.979700 -0.000600 1.047400
C1014 C 1.028600 -0.014700 1.039000
C1015 C 0.739600 0.788500 0.568000
C1016 C 1.049400 -0.015100 0.993200
C1017 C 1.099600 -0.036500 0.988000
C1018 C 1.138300 -0.020300 1.017100
C1019 C 0.735700 0.766800 0.613600
C1020 C 1.183600 -0.044600 1.014800
C1021 C 0.754500 0.791500 0.653500
C1022 C 1.155000 -0.098000 0.956800
C1023 C 0.779900 0.836100 0.645600
C1024 C 1.108300 -0.076300 0.957100
C1025 C 0.783000 0.854300 0.599000
C1026 C 0.383000 0.442000 0.322000
C1027 C 0.710800 0.189200 0.506600
C1028 C 0.326300 0.641700 0.707100
C1029 C 0.439200 0.460800 0.243400
C1030 C 0.348000 0.595000 0.706800
C1031 C 0.294600 0.566400 0.764800
C1032 C 0.270300 0.611700 0.767100
C1033 C 0.286500 0.650400 0.738000
C1034 C 0.265100 0.700600 0.743200
C1035 C -0.104300 0.467000 0.849000
C1036 C 0.264700 0.721400 0.789000
C1037 C -0.086100 0.470100 0.895600
C1038 C 0.250600 0.770300 0.797400
C1039 C -0.041500 0.495500 0.903500
C1040 C -0.016800 0.514300 0.863600
C1041 C 0.239600 0.788500 0.932000
C1042 C -0.038500 0.510400 0.818000
C1043 C 0.235700 0.766800 0.886400
C1044 C -0.020300 0.499400 0.952600
C1045 C 0.028600 0.485300 0.961000
C1046 C 0.254500 0.791500 0.846500
C1047 C 0.049400 0.484900 1.006800
C1048 C 0.099600 0.463500 1.012000
C1049 C 0.138300 0.479700 0.982900
C1050 C 0.279900 0.836100 0.854400
C1051 C 0.183600 0.455400 0.985200
C1052 C 0.283000 0.854300 0.901000
C1053 C 0.155000 0.402000 1.043200
C1054 C 0.173700 0.858300 0.792900
C1055 C 0.108300 0.423700 1.042900
C1056 C 0.152000 0.905000 0.793200
C1057 C 0.692000 0.867000 0.072000
C1058 C 0.205400 0.933600 0.735200
C1059 C 0.104300 0.533000 1.151000
C1060 C 0.229700 0.888300 0.732900
C1061 C 0.086100 0.529900 1.104400
C1062 C 0.213500 0.849600 0.762000
C1063 C 0.041500 0.504500 1.096500
C1064 C 0.016800 0.485700 1.136400
C1065 C 0.234900 0.799400 0.756800
C1066 C 0.038500 0.489600 1.182000
C1067 C 0.235300 0.778600 0.711000
C1068 C 0.020300 0.500600 1.047400
C1069 C -0.028600 0.514700 1.039000
C1070 C 0.249400 0.729700 0.702600
C1071 C -0.049400 0.515100 0.993200
C1072 C -0.099600 0.536500 0.988000
C1073 C -0.138300 0.520300 1.017100
C1074 C 0.260400 0.711500 0.568000
C1075 C -0.183600 0.544600 1.014800
C1076 C 0.264300 0.733200 0.613600
C1077 C -0.155000 0.598000 0.956800
C1078 C 0.245500 0.708500 0.653500
C1079 C -0.108300 0.576300 0.957100
C1080 C 0.220100 0.663900 0.645600
C1081 C 0.217000 0.645700 0.599000
C1082 C 0.710800 0.810800 -0.006600
C1083 C 0.692000 0.133000 0.428000
C1084 C 1.108300 0.576300 0.457100
C1085 C 1.155000 0.598000 0.456800
C1086 C 1.183600 0.544600 0.514800
C1087 C 1.138300 0.520300 0.517100
C1088 C 1.104300 0.967000 0.651000
C1089 C 1.099600 0.536500 0.488000
C1090 C 1.086100 0.970100 0.604400
C1091 C 1.049400 0.515100 0.493200
C1092 C 1.041500 0.995500 0.596500
C1093 C 1.016800 1.014300 0.636400
C1094 C 1.028600 0.514700 0.539000
C1095 C 1.038500 1.010400 0.682000
C1096 C 0.979700 0.500600 0.547400
C1097 C 1.020300 0.999400 0.547400
C1098 C 0.971400 0.985300 0.539000
C1099 C 0.961500 0.489600 0.682000
C1100 C 0.950600 0.984900 0.493200
C1101 C 0.900400 0.963500 0.488000
C1102 C 0.861700 0.979700 0.517100
C1103 C 0.983200 0.485700 0.636400
C1104 C 0.816400 0.955400 0.514800
C1105 C 0.958500 0.504500 0.596500
C1106 C 0.845000 0.902000 0.456800
C1107 C 0.913900 0.529900 0.604400
C1108 C 0.891700 0.923700 0.457100
C1109 C 0.895700 0.533000 0.651000
C1110 C 0.117000 0.558000 0.822000
C1111 C 0.895700 1.033000 0.349000
C1112 C 0.891700 0.423700 0.542900
C1113 C 0.913900 1.029900 0.395600
C1114 C 0.845000 0.402000 0.543200
C1115 C 0.958500 1.004500 0.403500
C1116 C 0.983200 0.985700 0.363600
C1117 C 0.816400 0.455400 0.485200
C1118 C 0.961500 0.989600 0.318000
C1119 C 0.861700 0.479700 0.482900
C1120 C 0.979700 1.000600 0.452600
C1121 C 1.028600 1.014700 0.461000
C1122 C 0.900400 0.463500 0.512000
C1123 C 1.049400 1.015100 0.506800
C1124 C 1.099600 1.036500 0.512000
C1125 C 1.138300 1.020300 0.482900
C1126 C 0.950600 0.484900 0.506800
C1127 C 1.183600 1.044600 0.485200
C1128 C 0.971400 0.485300 0.461000
C1129 C 1.155000 1.098000 0.543200
C1130 C 1.020300 0.499400 0.452600
C1131 C 1.108300 1.076300 0.542900
C1132 C 1.038500 0.510400 0.318000
C1133 C 1.016800 0.514300 0.363600
C1134 C 1.041500 0.495500 0.403500
C1135 C 0.060800 0.539200 0.743400
C1136 C 0.395700 0.033000 0.151000
C1137 C 1.086100 0.470100 0.395600
C1138 C 0.413900 0.029900 0.104400
C1139 C 1.104300 0.467000 0.349000
C1140 C 0.458500 0.004500 0.096500
C1141 C 0.483200 -0.014300 0.136400
C1142 C 0.439200 0.539200 0.256600
C1143 C 0.461500 -0.010400 0.182000
C1144 C 0.383000 0.558000 0.178000
C1145 C 0.479700 0.000600 0.047400
C1146 C 0.528600 0.014700 0.039000
C1147 C 0.391700 0.423700 0.957100
C1148 C 0.549400 0.015100 -0.006800
C1149 C 0.599600 0.036500 -0.012000
C1150 C 0.638300 0.020300 0.017100
C1151 C 0.345000 0.402000 0.956800
C1152 C 0.683600 0.044600 0.014800
C1153 C 0.316400 0.455400 1.014800
C1154 C 0.655000 0.098000 -0.043200
C1155 C 0.361700 0.479700 1.017100
C1156 C 0.608300 0.076300 -0.042900
C1157 C 0.400400 0.463500 0.988000
C1158 C 0.450600 0.484900 0.993200
C1159 C 0.471400 0.485300 1.039000
C1160 C 0.604300 -0.033000 -0.151000
C1161 C 0.520300 0.499400 1.047400
C1162 C 0.586100 -0.029900 -0.104400
C1163 C 0.538500 0.510400 1.182000
C1164 C 0.541500 -0.004500 -0.096500
C1165 C 0.516800 0.014300 -0.136400
C1166 C 0.516800 0.514300 1.136400
C1167 C 0.538500 0.010400 -0.182000
C1168 C 0.541500 0.495500 1.096500
C1169 C 0.520300 -0.000600 -0.047400
C1170 C 0.471400 -0.014700 -0.039000
C1171 C 0.586100 0.470100 1.104400
C1172 C 0.450600 -0.015100 0.006800
C1173 C 0.400400 -0.036500 0.012000
C1174 C 0.361700 -0.020300 -0.017100
C1175 C 0.604300 0.467000 1.151000
C1176 C 0.316400 -0.044600 -0.014800
C1177 C 0.608300 0.576300 1.042900
C1178 C 0.345000 -0.098000 0.043200
C1179 C 0.655000 0.598000 1.043200
C1180 C 0.391700 -0.076300 0.042900
C1181 C 0.683600 0.544600 0.985200
C1182 C 0.638300 0.520300 0.982900
C1183 C 0.599600 0.536500 1.012000
C1184 C 0.549400 0.515100 1.006800
C1185 C 0.308000 0.633000 0.072000
C1186 C 0.528600 0.514700 0.961000
C1187 C 0.710800 0.310800 1.006600
C1188 C 0.479700 0.500600 0.952600
C1189 C 0.461500 0.489600 0.818000
C1190 C 0.692000 0.367000 0.928000
C1191 C 0.483200 0.485700 0.863600
C1192 C 0.458500 0.504500 0.903500
C1193 C 0.413900 0.529900 0.895600
C1194 C 0.395700 0.533000 0.849000
C1195 C 0.560800 0.960800 0.256600
C1196 C 0.617000 0.942000 0.178000
C1197 C 0.939200 0.460800 0.256600
C1198 C 0.826300 0.858300 0.292900
C1199 C 0.848000 0.905000 0.293200
C1200 C 0.883000 0.442000 0.178000
C1201 C 0.794600 0.933600 0.235200
C1202 C 0.770300 0.888300 0.232900
C1203 C 0.786500 0.849600 0.262000
C1204 C 0.289200 0.689200 -0.006600
C1205 C 0.765100 0.799400 0.256800
C1206 C 0.764700 0.778600 0.211000
C1207 C 0.289200 0.189200 1.006600
C1208 C 0.750600 0.729700 0.202600
C1209 C 0.739600 0.711500 0.068000
C1210 C 0.308000 0.133000 0.928000
C1211 C 0.735700 0.733200 0.113600
C1212 C 0.754500 0.708500 0.153500
C1213 C 0.779900 0.663900 0.145600
C1214 C 0.783000 0.645700 0.099000
C1215 C 0.673700 0.641700 0.207100
C1216 C 0.652000 0.595000 0.206800
C1217 C 0.560800 0.539200 0.756600
C1218 C 0.705400 0.566400 0.264800
C1219 C 0.729700 0.611700 0.267100
C1220 C 0.617000 0.558000 0.678000
C1221 C 0.713500 0.650400 0.238000
C1222 C 0.734900 0.700600 0.243200
C1223 C 0.735300 0.721400 0.289000
C1224 C 0.749400 0.770300 0.297400
C1225 C 0.760400 0.788500 0.432000
C1226 C 0.764300 0.766800 0.386400
C1227 C 0.710800 0.689200 0.493400
C1228 C 0.745500 0.791500 0.346500
C1229 C 0.720100 0.836100 0.354400
C1230 C 0.692000 0.633000 0.572000
C1231 C 0.717000 0.854300 0.401000
C1232 C 0.608300 -0.076300 0.542900
C1233 C 0.655000 -0.098000 0.543200
C1234 C 0.683600 -0.044600 0.485200
C1235 C 0.638300 -0.020300 0.482900
C1236 C 0.599600 -0.036500 0.512000
C1237 C 0.789200 0.310800 -0.006600
C1238 C 0.549400 -0.015100 0.506800
C1239 C 0.528600 -0.014700 0.461000
C1240 C 0.808000 0.367000 0.072000
C1241 C 0.479700 -0.000600 0.452600
C1242 C 0.461500 0.010400 0.318000
C1243 C 0.483200 0.014300 0.363600
C1244 C 0.458500 -0.004500 0.403500
C1245 C 0.413900 -0.029900 0.395600
C1246 C 0.395700 -0.033000 0.349000
C1247 C 0.060800 0.960800 0.243400
C1248 C 0.391700 0.076300 0.457100
C1249 C 0.345000 0.098000 0.456800
C1250 C 0.117000 0.942000 0.322000
C1251 C 0.316400 0.044600 0.514800
C1252 C 0.361700 0.020300 0.517100
C1253 C 0.400400 0.036500 0.488000
C1254 C 0.450600 0.015100 0.493200
C1255 C 0.471400 0.014700 0.539000
C1256 C 0.520300 0.000600 0.547400
C1257 C 0.939200 0.539200 0.243400
C1258 C 0.538500 -0.010400 0.682000
C1259 C 0.516800 -0.014300 0.636400
C1260 C 0.883000 0.558000 0.322000
C1261 C 0.541500 0.004500 0.596500
C1262 C 0.586100 0.029900 0.604400
C1263 C 0.604300 0.033000 0.651000
C1264 C 0.383000 0.058000 0.822000
C1265 C 0.673700 0.141700 0.792900
C1266 C 0.652000 0.095000 0.793200
C1267 C 0.210800 0.810800 0.506600
C1268 C 0.705400 0.066400 0.735200
C1269 C 0.729700 0.111700 0.732900
C1270 C 0.192000 0.867000 0.428000
C1271 C 0.713500 0.150400 0.762000
C1272 C 0.734900 0.200600 0.756800
C1273 C 0.735300 0.221400 0.711000
C1274 C 0.749400 0.270300 0.702600
C1275 C 0.760400 0.288500 0.568000
C1276 C 0.764300 0.266800 0.613600
C1277 C 0.439200 0.960800 0.756600
C1278 C 0.745500 0.291500 0.653500
C1279 C 0.720100 0.336100 0.645600
C1280 C 0.383000 0.942000 0.678000
C1281 C 0.717000 0.354300 0.599000
C1282 C 0.826300 0.358300 0.707100
C1283 C 0.848000 0.405000 0.706800
C1284 C 0.794600 0.433600 0.764800
C1285 C 0.770300 0.388300 0.767100
C1286 C 0.786500 0.349600 0.738000
C1287 C 0.789200 0.689200 0.506600
C1288 C 0.765100 0.299400 0.743200
C1289 C 0.764700 0.278600 0.789000
C1290 C 0.808000 0.633000 0.428000
C1291 C 0.750600 0.229700 0.797400
C1292 C 0.739600 0.211500 0.932000
C1293 C 0.735700 0.233200 0.886400
C1294 C 0.439200 0.039200 0.743400
C1295 C 0.754500 0.208500 0.846500
C1296 C 0.779900 0.163900 0.854400
C1297 C 0.060800 0.039200 0.256600
C1298 C 0.783000 0.145700 0.901000
C1299 C 0.391700 0.576300 0.542900
C1300 C 0.117000 0.058000 0.178000
C1301 C 0.345000 0.598000 0.543200
C1302 C 0.316400 0.544600 0.485200
C1303 C 0.361700 0.520300 0.482900
C1304 C 0.400400 0.536500 0.512000
C1305 C 0.450600 0.515100 0.506800
C1306 C 0.471400 0.514700 0.461000
C1307 C 0.210800 0.189200 -0.006600
C1308 C 0.520300 0.500600 0.452600
C1309 C 0.538500 0.489600 0.318000
C1310 C 0.192000 0.133000 0.072000
C1311 C 0.516800 0.485700 0.363600
C1312 C 0.541500 0.504500 0.403500
C1313 C 0.586100 0.529900 0.395600
C1314 C 0.604300 0.533000 0.349000
C1315 C 0.608300 0.423700 0.457100
C1316 C 0.655000 0.402000 0.456800
C1317 C 0.289200 0.810800 0.493400
C1318 C 0.683600 0.455400 0.514800
C1319 C 0.638300 0.479700 0.517100
C1320 C 0.308000 0.867000 0.572000
C1321 C 0.599600 0.463500 0.488000
C1322 C 0.549400 0.484900 0.493200
C1323 C 0.528600 0.485300 0.539000
C1324 C 0.479700 0.499400 0.547400
C1325 C 0.461500 0.510400 0.682000
C1326 C 0.483200 0.514300 0.636400
C1327 C 0.560800 0.460800 0.743400
C1328 C 0.458500 0.495500 0.596500
C1329 C 0.413900 0.470100 0.604400
C1330 C 0.617000 0.442000 0.822000
C1331 C 0.395700 0.467000 0.651000
C1332 C -0.155000 -0.098000 0.456800
N1333 N 0.319000 0.835000 0.530500
N1334 N 0.585000 0.431000 0.780500
N1335 N 0.181000 0.165000 0.030500
N1336 N 0.085000 0.069000 0.219500
N1337 N 0.819000 0.665000 0.469500
N1338 N 0.415000 0.931000 0.719500
N1339 N 0.181000 0.835000 0.469500
N1340 N 0.915000 0.569000 0.280500
N1341 N 0.085000 0.931000 0.280500
N1342 N 0.819000 0.335000 0.030500
N1343 N 0.681000 0.665000 0.530500
N1344 N 0.415000 0.069000 0.780500
N1345 N 0.585000 0.569000 0.719500
N1346 N 0.319000 0.165000 0.969500
N1347 N 0.915000 0.431000 0.219500
N1348 N 0.681000 0.335000 0.969500
N1349 N 0.666600 1.058100 0.764500
N1350 N 0.808100 0.083400 0.014500
N1351 N 0.762300 0.168500 -0.060300
N1352 N 0.418500 0.487700 0.689700
N1353 N 0.691900 0.416600 0.485500
N1354 N 0.319000 0.665000 0.030500
N1355 N 0.308100 -0.083400 0.014500
N1356 N 0.581500 -0.012300 -0.189700
N1357 N 0.691900 0.083400 -0.014500
N1358 N 0.581500 0.512300 0.310300
N1359 N 0.308100 0.583400 0.514500
N1360 N 1.191900 1.083400 0.514500
N1361 N 1.081500 0.987700 0.689700
N1362 N 0.833400 1.058100 0.235500
N1363 N 0.918500 0.987700 0.189700
N1364 N 0.085000 0.569000 0.780500
N1365 N 0.918500 1.012300 0.310300
N1366 N 0.262300 0.331500 1.060300
N1367 N 0.762300 0.331500 0.439700
N1368 N 0.737700 0.331500 0.560300
N1369 N -0.191900 0.583400 0.985500
N1370 N 0.081500 0.512300 1.189700
N1371 N 0.191900 0.416600 1.014500
N1372 N -0.081500 0.487700 0.810300
N1373 N 0.666600 -0.058100 0.735500
N1374 N 0.681000 0.835000 0.030500
N1375 N 0.581500 -0.012300 0.810300
N1376 N 0.691900 0.083400 0.985500
N1377 N 0.737700 0.168500 1.060300
N1378 N 0.808100 0.416600 0.514500
N1379 N 0.762300 0.168500 0.939700
N1380 N 0.833400 0.441900 0.735500
N1381 N 1.191900 -0.083400 0.985500
N1382 N 0.918500 -0.012300 1.189700
N1383 N 0.808100 0.083400 1.014500
N1384 N 0.415000 0.431000 0.280500
N1385 N 1.081500 0.012300 0.810300
N1386 N 0.833400 -0.058100 0.264500
N1387 N 0.918500 0.012300 0.310300
N1388 N 0.918500 -0.012300 0.189700
N1389 N 0.666600 0.058100 0.764500
N1390 N 0.918500 0.512300 0.689700
N1391 N -0.191900 0.416600 0.514500
N1392 N -0.081500 0.512300 0.689700
N1393 N 0.191900 0.416600 0.014500
N1394 N 0.319000 0.335000 0.469500
N1395 N 0.237700 0.331500 -0.060300
N1396 N 0.918500 0.487700 0.810300
N1397 N 0.418500 0.512300 -0.189700
N1398 N 0.308100 0.416600 -0.014500
N1399 N 0.808100 0.916600 0.485500
N1400 N 0.833400 0.558100 0.764500
N1401 N 0.308100 1.083400 0.485500
N1402 N 0.581500 1.012300 0.689700
N1403 N 0.691900 0.916600 0.514500
N1404 N 0.181000 0.665000 0.969500
N1405 N 0.081500 0.512300 0.189700
N1406 N 0.081500 0.487700 0.310300
N1407 N 0.191900 0.583400 0.485500
N1408 N 0.333400 -0.058100 0.235500
N1409 N 0.418500 0.012300 0.189700
N1410 N 0.581500 0.012300 0.689700
N1411 N 0.166600 0.441900 0.235500
N1412 N 0.333400 0.058100 0.264500
N1413 N 0.262300 0.331500 0.060300
N1414 N 0.915000 0.069000 0.719500
N1415 N 0.308100 0.083400 0.485500
N1416 N 0.418500 -0.012300 0.310300
N1417 N 0.833400 0.058100 0.235500
N1418 N 0.737700 0.168500 0.060300
N1419 N 0.191900 0.916600 0.985500
N1420 N 0.237700 0.831500 1.060300
N1421 N 0.691900 -0.083400 0.514500
N1422 N 0.237700 0.168500 0.439700
N1423 N 0.691900 1.083400 0.985500
N1424 N 0.085000 0.431000 0.719500
N1425 N 0.418500 1.012300 1.189700
N1426 N 0.308100 0.916600 1.014500
N1427 N 0.581500 0.987700 0.810300
N1428 N 0.262300 0.168500 0.560300
N1429 N 0.191900 0.083400 0.514500
N1430 N -0.191900 -0.083400 0.485500
N1431 N -0.081500 0.012300 0.310300
N1432 N 0.166600 -0.058100 0.764500
N1433 N 0.081500 0.012300 0.810300
N1434 N 0.819000 0.165000 0.530500
N1435 N 0.081500 -0.012300 0.689700
N1436 N 0.333400 0.441900 0.764500
N1437 N 0.166600 0.058100 0.735500
N1438 N 0.237700 0.331500 0.939700
N1439 N 0.737700 0.831500 0.439700
N1440 N 0.691900 0.583400 0.014500
N1441 N 0.737700 0.668500 -0.060300
N1442 N 0.666600 0.558100 0.235500
N1443 N 0.833400 0.941900 0.264500
N1444 N 0.585000 0.069000 0.280500
N1445 N 1.191900 0.416600 0.014500
N1446 N 0.918500 0.487700 -0.189700
N1447 N 0.808100 0.583400 -0.014500
N1448 N 1.081500 0.512300 0.189700
N1449 N 0.333400 1.058100 0.264500
N1450 N 0.418500 0.987700 0.310300
N1451 N 0.418500 1.012300 0.189700
N1452 N 0.585000 0.931000 0.219500
N1453 N 0.166600 0.558100 0.264500
N1454 N 0.181000 0.335000 0.530500
N1455 N 0.333400 0.941900 0.235500
N1456 N 0.262300 0.668500 0.439700
N1457 N 0.581500 0.487700 0.189700
N1458 N 0.308100 0.916600 0.014500
N1459 N 0.237700 0.831500 0.060300
N1460 N 0.262300 0.831500 -0.060300
N1461 N 0.666600 0.441900 0.264500
N1462 N 0.418500 0.512300 0.810300
N1463 N 0.691900 0.583400 1.014500
N1464 N 0.915000 0.931000 0.780500
N1465 N -0.191900 1.083400 0.014500
N1466 N 0.081500 1.012300 -0.189700
N1467 N 0.191900 0.916600 -0.014500
N1468 N -0.081500 0.987700 0.189700
N1469 N 0.581500 0.487700 1.189700
N1470 N 0.415000 0.569000 0.219500
N1471 N 0.666600 0.941900 0.735500
N1472 N 0.762300 0.831500 0.560300
N1473 N 0.166600 1.058100 0.735500
N1474 N 0.819000 0.835000 0.969500
N1475 N 0.081500 0.987700 0.689700
N1476 N 0.081500 1.012300 0.810300
N1477 N 0.308100 0.416600 0.985500
N1478 N 0.333400 0.558100 0.735500
N1479 N 0.262300 0.831500 0.939700
N1480 N 0.166600 0.941900 0.764500
N1481 N 0.237700 0.668500 0.560300
N1482 N 0.762300 0.668500 1.060300
N1483 N 0.737700 0.668500 0.939700
N1484 N 0.681000 0.165000 0.469500
N1485 N 0.808100 0.583400 0.985500
N1486 N 1.191900 0.583400 0.485500
N1487 N 1.081500 0.487700 0.310300
N1488 N 0.762300 0.668500 0.060300
O1489 O 0.634500 0.223100 0.259800
O1490 O 0.539800 0.184100 0.246400
O1491 O 0.531200 0.198000 0.016900
O1492 O 0.631300 0.210500 -0.010000
O1493 O 0.334100 0.149900 0.131000
O1494 O 0.417100 0.143800 0.071400
O1495 O 0.431700 0.153200 0.167000
O1496 O 0.366500 0.227400 0.071300
O1497 O 0.368700 0.289500 -0.010000
O1498 O 0.633500 0.272600 0.071300
O1499 O 0.468800 0.302000 0.016900
O1500 O 0.382300 0.235400 0.166900
O1501 O 0.568300 0.346800 0.167000
O1502 O 0.582900 0.356200 0.071400
O1503 O 0.665900 0.350100 0.131000
O1504 O 0.365500 0.276900 0.259800
O1505 O 0.460200 0.315900 0.246400
O1506 O 0.617700 0.264600 0.166900
O1507 O 0.434100 0.210200 0.003600
O1508 O 0.473100 0.115500 -0.009800
O1509 O 0.514600 0.132300 0.083100
O1510 O 0.448000 0.218800 0.233100
O1511 O 0.665900 0.149900 0.631000
O1512 O 0.582900 0.143800 0.571400
O1513 O 0.568300 0.153200 0.667000
O1514 O 0.633500 0.227400 0.571300
O1515 O 0.631300 0.289500 0.490000
O1516 O 0.531200 0.302000 0.516900
O1517 O 0.540290 0.225620 0.592300
O1518 O 0.617700 0.235400 0.666900
O1519 O 0.634500 0.276900 0.759800
O1520 O 0.539800 0.315900 0.746400
O1521 O 0.459710 0.274380 0.592300
O1522 O 0.524380 0.290290 0.657700
O1523 O 0.475620 0.209710 0.657700
O1524 O 0.460500 0.118700 0.260000
O1525 O 0.522600 0.116500 0.178700
O1526 O 0.596800 0.181700 0.083000
O1527 O 0.334100 0.350100 0.631000
O1528 O 0.417100 0.356200 0.571400
O1529 O 0.431700 0.346800 0.667000
O1530 O 0.366500 0.272600 0.571300
O1531 O 0.368700 0.210500 0.490000
O1532 O 0.468800 0.198000 0.516900
O1533 O 0.382300 0.264600 0.666900
O1534 O 0.365500 0.223100 0.759800
O1535 O 0.460200 0.184100 0.746400
O1536 O 0.606200 0.167100 0.178600
O1537 O 0.600100 0.084100 0.119000
O1538 O 0.459710 0.225620 0.092300
O1539 O 0.600100 0.415900 0.619000
O1540 O 0.606200 0.332900 0.678600
O1541 O 0.596800 0.318300 0.583000
O1542 O 0.522600 0.383500 0.678700
O1543 O 0.460500 0.381300 0.760000
O1544 O 0.448000 0.281200 0.733100
O1545 O 0.514600 0.367700 0.583100
O1546 O 0.473100 0.384500 0.490200
O1547 O 0.434100 0.289800 0.503600
O1548 O 0.540290 0.274380 0.092300
O1549 O 0.524380 0.209710 0.157700
O1550 O 0.565900 0.289800 0.003600
O1551 O 0.399900 0.084100 0.619000
O1552 O 0.393800 0.167100 0.678600
O1553 O 0.403200 0.181700 0.583000
O1554 O 0.477400 0.116500 0.678700
O1555 O 0.539500 0.118700 0.760000
O1556 O 0.552000 0.218800 0.733100
O1557 O 0.485400 0.132300 0.583100
O1558 O 0.526900 0.115500 0.490200
O1559 O 0.565900 0.210200 0.503600
O1560 O 0.526900 0.384500 -0.009800
O1561 O 0.485400 0.367700 0.083100
O1562 O 0.475620 0.290290 0.157700
O1563 O 0.552000 0.281200 0.233100
O1564 O 0.100100 0.415900 0.881000
O1565 O 0.106200 0.332900 0.821400
O1566 O 0.096800 0.318300 0.917000
O1567 O 0.022600 0.383500 0.821300
O1568 O -0.039500 0.381300 0.740000
O1569 O -0.052000 0.281200 0.766900
O1570 O 0.024380 0.290290 0.842300
O1571 O 0.014600 0.367700 0.916900
O1572 O -0.026900 0.384500 1.009800
O1573 O -0.065900 0.289800 0.996400
O1574 O -0.024380 0.209710 0.842300
O1575 O -0.040290 0.274380 0.907700
O1576 O 0.040290 0.225620 0.907700
O1577 O 0.539500 0.381300 0.260000
O1578 O 0.477400 0.383500 0.178700
O1579 O 0.403200 0.318300 0.083000
O1580 O -0.100100 0.084100 0.881000
O1581 O -0.106200 0.167100 0.821400
O1582 O -0.096800 0.181700 0.917000
O1583 O -0.022600 0.116500 0.821300
O1584 O 0.039500 0.118700 0.740000
O1585 O 0.052000 0.218800 0.766900
O1586 O -0.014600 0.132300 0.916900
O1587 O 0.026900 0.115500 1.009800
O1588 O 0.065900 0.210200 0.996400
O1589 O 0.393800 0.332900 0.178600
O1590 O 0.399900 0.415900 0.119000
O1591 O 1.065900 0.710200 0.003600
O1592 O -0.165900 0.350100 0.869000
O1593 O -0.082900 0.356200 0.928600
O1594 O -0.068300 0.346800 0.833000
O1595 O -0.133500 0.272600 0.928700
O1596 O -0.131300 0.210500 1.010000
O1597 O -0.031200 0.198000 0.983100
O1598 O -0.117700 0.264600 0.833100
O1599 O -0.134500 0.223100 0.740200
O1600 O -0.039800 0.184100 0.753600
O1601 O 1.026900 0.615500 -0.009800
O1602 O 0.985400 0.632300 0.083100
O1603 O 1.052000 0.718800 0.233100
O1604 O 0.165900 0.149900 0.869000
O1605 O 0.082900 0.143800 0.928600
O1606 O 0.068300 0.153200 0.833000
O1607 O 0.133500 0.227400 0.928700
O1608 O 0.131300 0.289500 1.010000
O1609 O 0.031200 0.302000 0.983100
O1610 O 0.117700 0.235400 0.833100
O1611 O 0.134500 0.276900 0.740200
O1612 O 0.039800 0.315900 0.753600
O1613 O 1.039500 0.618700 0.260000
O1614 O 0.977400 0.616500 0.178700
O1615 O 0.903200 0.681700 0.083000
O1616 O 0.893800 0.667100 0.178600
O1617 O 1.100100 0.415900 0.881000
O1618 O 1.106200 0.332900 0.821400
O1619 O 1.096800 0.318300 0.917000
O1620 O 1.022600 0.383500 0.821300
O1621 O 0.960500 0.381300 0.740000
O1622 O 0.948000 0.281200 0.766900
O1623 O 1.024380 0.290290 0.842300
O1624 O 1.014600 0.367700 0.916900
O1625 O 0.973100 0.384500 1.009800
O1626 O 0.934100 0.289800 0.996400
O1627 O 0.975620 0.209710 0.842300
O1628 O 0.959710 0.274380 0.907700
O1629 O 1.040290 0.225620 0.907700
O1630 O 0.899900 0.584100 0.119000
O1631 O 0.934100 0.789800 0.003600
O1632 O 0.973100 0.884500 -0.009800
O1633 O 0.899900 0.084100 0.881000
O1634 O 0.893800 0.167100 0.821400
O1635 O 0.903200 0.181700 0.917000
O1636 O 0.977400 0.116500 0.821300
O1637 O 1.039500 0.118700 0.740000
O1638 O 1.052000 0.218800 0.766900
O1639 O 0.985400 0.132300 0.916900
O1640 O 1.026900 0.115500 1.009800
O1641 O 1.065900 0.210200 0.996400
O1642 O 1.014600 0.867700 0.083100
O1643 O 0.948000 0.781200 0.233100
O1644 O 0.960500 0.881300 0.260000
O1645 O 0.834100 0.350100 0.869000
O1646 O 0.917100 0.356200 0.928600
O1647 O 0.931700 0.346800 0.833000
O1648 O 0.866500 0.272600 0.928700
O1649 O 0.868700 0.210500 1.010000
O1650 O 0.968800 0.198000 0.983100
O1651 O 0.882300 0.264600 0.833100
O1652 O 0.865500 0.223100 0.740200
O1653 O 0.960200 0.184100 0.753600
O1654 O 1.022600 0.883500 0.178700
O1655 O 1.096800 0.818300 0.083000
O1656 O 1.106200 0.832900 0.178600
O1657 O 1.165900 0.149900 0.869000
O1658 O 1.082900 0.143800 0.928600
O1659 O 1.068300 0.153200 0.833000
O1660 O 1.133500 0.227400 0.928700
O1661 O 1.131300 0.289500 1.010000
O1662 O 1.031200 0.302000 0.983100
O1663 O 1.117700 0.235400 0.833100
O1664 O 1.134500 0.276900 0.740200
O1665 O 1.039800 0.315900 0.753600
O1666 O 1.100100 0.915900 0.119000
O1667 O 0.960200 0.684100 0.246400
O1668 O 0.865500 0.723100 0.259800
O1669 O 0.882300 0.764600 0.166900
O1670 O 0.399900 0.584100 0.381000
O1671 O 0.393800 0.667100 0.321400
O1672 O 0.403200 0.681700 0.417000
O1673 O 0.477400 0.616500 0.321300
O1674 O 0.539500 0.618700 0.240000
O1675 O 0.552000 0.718800 0.266900
O1676 O 0.475620 0.709710 0.342300
O1677 O 0.485400 0.632300 0.416900
O1678 O 0.526900 0.615500 0.509800
O1679 O 0.565900 0.710200 0.496400
O1680 O 0.524380 0.790290 0.342300
O1681 O 0.540290 0.725620 0.407700
O1682 O 0.459710 0.774380 0.407700
O1683 O 0.968800 0.698000 0.016900
O1684 O 0.868700 0.710500 -0.010000
O1685 O 0.866500 0.772600 0.071300
O1686 O 0.600100 0.915900 0.381000
O1687 O 0.606200 0.832900 0.321400
O1688 O 0.596800 0.818300 0.417000
O1689 O 0.522600 0.883500 0.321300
O1690 O 0.460500 0.881300 0.240000
O1691 O 0.448000 0.781200 0.266900
O1692 O 0.514600 0.867700 0.416900
O1693 O 0.473100 0.884500 0.509800
O1694 O 0.434100 0.789800 0.496400
O1695 O 0.931700 0.846800 0.167000
O1696 O 0.917100 0.856200 0.071400
O1697 O 0.834100 0.850100 0.131000
O1698 O 0.665900 0.649900 0.369000
O1699 O 0.582900 0.643800 0.428600
O1700 O 0.568300 0.653200 0.333000
O1701 O 0.633500 0.727400 0.428700
O1702 O 0.631300 0.789500 0.510000
O1703 O 0.531200 0.802000 0.483100
O1704 O 0.617700 0.735400 0.333100
O1705 O 0.634500 0.776900 0.240200
O1706 O 0.539800 0.815900 0.253600
O1707 O 0.975620 0.709710 0.157700
O1708 O 1.024380 0.790290 0.157700
O1709 O 0.959710 0.774380 0.092300
O1710 O 0.334100 0.850100 0.369000
O1711 O 0.417100 0.856200 0.428600
O1712 O 0.431700 0.846800 0.333000
O1713 O 0.366500 0.772600 0.428700
O1714 O 0.368700 0.710500 0.510000
O1715 O 0.468800 0.698000 0.483100
O1716 O 0.382300 0.764600 0.333100
O1717 O 0.365500 0.723100 0.240200
O1718 O 0.460200 0.684100 0.253600
O1719 O 1.039800 0.815900 0.246400
O1720 O 1.134500 0.776900 0.259800
O1721 O 1.117700 0.735400 0.166900
O1722 O 1.040290 0.725620 0.092300
O1723 O 0.665900 0.850100 0.869000
O1724 O 0.582900 0.856200 0.928600
O1725 O 0.568300 0.846800 0.833000
O1726 O 0.633500 0.772600 0.928700
O1727 O 0.631300 0.710500 1.010000
O1728 O 0.531200 0.698000 0.983100
O1729 O 0.540290 0.774380 0.907700
O1730 O 0.617700 0.764600 0.833100
O1731 O 0.634500 0.723100 0.740200
O1732 O 0.539800 0.684100 0.753600
O1733 O 0.459710 0.725620 0.907700
O1734 O 0.524380 0.709710 0.842300
O1735 O 0.475620 0.790290 0.842300
O1736 O 1.031200 0.802000 0.016900
O1737 O 1.131300 0.789500 -0.010000
O1738 O 1.133500 0.727400 0.071300
O1739 O 0.334100 0.649900 0.869000
O1740 O 0.417100 0.643800 0.928600
O1741 O 0.431700 0.653200 0.833000
O1742 O 0.366500 0.727400 0.928700
O1743 O 0.368700 0.789500 1.010000
O1744 O 0.468800 0.802000 0.983100
O1745 O 0.382300 0.735400 0.833100
O1746 O 0.365500 0.776900 0.740200
O1747 O 0.460200 0.815900 0.753600
O1748 O 1.068300 0.653200 0.167000
O1749 O 1.082900 0.643800 0.071400
O1750 O 1.165900 0.649900 0.131000
O1751 O 0.600100 0.584100 0.881000
O1752 O 0.606200 0.667100 0.821400
O1753 O 0.596800 0.681700 0.917000
O1754 O 0.522600 0.616500 0.821300
O1755 O 0.460500 0.618700 0.740000
O1756 O 0.448000 0.718800 0.766900
O1757 O 0.514600 0.632300 0.916900
O1758 O 0.473100 0.615500 1.009800
O1759 O 0.434100 0.710200 0.996400
O1760 O 0.065900 0.710200 0.003600
O1761 O 0.026900 0.615500 -0.009800
O1762 O -0.014600 0.632300 0.083100
O1763 O 0.399900 0.915900 0.881000
O1764 O 0.393800 0.832900 0.821400
O1765 O 0.403200 0.818300 0.917000
O1766 O 0.477400 0.883500 0.821300
O1767 O 0.539500 0.881300 0.740000
O1768 O 0.552000 0.781200 0.766900
O1769 O 0.485400 0.867700 0.916900
O1770 O 0.526900 0.884500 1.009800
O1771 O 0.565900 0.789800 0.996400
O1772 O 0.052000 0.718800 0.233100
O1773 O 0.039500 0.618700 0.260000
O1774 O -0.022600 0.616500 0.178700
O1775 O -0.096800 0.681700 0.083000
O1776 O -0.165900 0.149900 0.369000
O1777 O -0.082900 0.143800 0.428600
O1778 O -0.068300 0.153200 0.333000
O1779 O -0.133500 0.227400 0.428700
O1780 O -0.131300 0.289500 0.510000
O1781 O -0.031200 0.302000 0.483100
O1782 O -0.040290 0.225620 0.407700
O1783 O -0.117700 0.235400 0.333100
O1784 O -0.134500 0.276900 0.240200
O1785 O -0.039800 0.315900 0.253600
O1786 O 0.040290 0.274380 0.407700
O1787 O -0.024380 0.290290 0.342300
O1788 O 0.024380 0.209710 0.342300
O1789 O -0.106200 0.667100 0.178600
O1790 O -0.100100 0.584100 0.119000
O1791 O -0.065900 0.789800 0.003600
O1792 O 0.165900 0.350100 0.369000
O1793 O 0.082900 0.356200 0.428600
O1794 O 0.068300 0.346800 0.333000
O1795 O 0.133500 0.272600 0.428700
O1796 O 0.131300 0.210500 0.510000
O1797 O 0.031200 0.198000 0.483100
O1798 O 0.117700 0.264600 0.333100
O1799 O 0.134500 0.223100 0.240200
O1800 O 0.039800 0.184100 0.253600
O1801 O -0.026900 0.884500 -0.009800
O1802 O 0.014600 0.867700 0.083100
O1803 O -0.052000 0.781200 0.233100
O1804 O -0.100100 0.415900 0.381000
O1805 O -0.106200 0.332900 0.321400
O1806 O -0.096800 0.318300 0.417000
O1807 O -0.022600 0.383500 0.321300
O1808 O 0.039500 0.381300 0.240000
O1809 O 0.052000 0.281200 0.266900
O1810 O -0.014600 0.367700 0.416900
O1811 O 0.026900 0.384500 0.509800
O1812 O 0.065900 0.289800 0.496400
O1813 O -0.039500 0.881300 0.260000
O1814 O 0.022600 0.883500 0.178700
O1815 O 0.096800 0.818300 0.083000
O1816 O 0.100100 0.084100 0.381000
O1817 O 0.106200 0.167100 0.321400
O1818 O 0.096800 0.181700 0.417000
O1819 O 0.022600 0.116500 0.321300
O1820 O -0.039500 0.118700 0.240000
O1821 O -0.052000 0.218800 0.266900
O1822 O 0.014600 0.132300 0.416900
O1823 O -0.026900 0.115500 0.509800
O1824 O -0.065900 0.210200 0.496400
O1825 O 0.106200 0.832900 0.178600
O1826 O 0.100100 0.915900 0.119000
O1827 O -0.039800 0.684100 0.246400
O1828 O -0.134500 0.723100 0.259800
O1829 O 0.834100 0.149900 0.369000
O1830 O 0.917100 0.143800 0.428600
O1831 O 0.931700 0.153200 0.333000
O1832 O 0.866500 0.227400 0.428700
O1833 O 0.868700 0.289500 0.510000
O1834 O 0.968800 0.302000 0.483100
O1835 O 0.959710 0.225620 0.407700
O1836 O 0.882300 0.235400 0.333100
O1837 O 0.865500 0.276900 0.240200
O1838 O 0.960200 0.315900 0.253600
O1839 O 1.040290 0.274380 0.407700
O1840 O 0.975620 0.290290 0.342300
O1841 O 1.024380 0.209710 0.342300
O1842 O -0.117700 0.764600 0.166900
O1843 O -0.031200 0.698000 0.016900
O1844 O -0.131300 0.710500 -0.010000
O1845 O 1.165900 0.350100 0.369000
O1846 O 1.082900 0.356200 0.428600
O1847 O 1.068300 0.346800 0.333000
O1848 O 1.133500 0.272600 0.428700
O1849 O 1.131300 0.210500 0.510000
O1850 O 1.031200 0.198000 0.483100
O1851 O 1.117700 0.264600 0.333100
O1852 O 1.134500 0.223100 0.240200
O1853 O 1.039800 0.184100 0.253600
O1854 O -0.133500 0.772600 0.071300
O1855 O -0.068300 0.846800 0.167000
O1856 O -0.082900 0.856200 0.071400
O1857 O 0.899900 0.415900 0.381000
O1858 O 0.893800 0.332900 0.321400
O1859 O 0.903200 0.318300 0.417000
O1860 O 0.977400 0.383500 0.321300
O1861 O 1.039500 0.381300 0.240000
O1862 O 1.052000 0.281200 0.266900
O1863 O 0.985400 0.367700 0.416900
O1864 O 1.026900 0.384500 0.509800
O1865 O 1.065900 0.289800 0.496400
O1866 O -0.165900 0.850100 0.131000
O1867 O -0.024380 0.709710 0.157700
O1868 O 0.024380 0.790290 0.157700
O1869 O 1.100100 0.084100 0.381000
O1870 O 1.106200 0.167100 0.321400
O1871 O 1.096800 0.181700 0.417000
O1872 O 1.022600 0.116500 0.321300
O1873 O 0.960500 0.118700 0.240000
O1874 O 0.948000 0.218800 0.266900
O1875 O 1.014600 0.132300 0.416900
O1876 O 0.973100 0.115500 0.509800
O1877 O 0.934100 0.210200 0.496400
O1878 O -0.040290 0.774380 0.092300
O1879 O 0.039800 0.815900 0.246400
O1880 O 0.134500 0.776900 0.259800
O1881 O 0.117700 0.735400 0.166900
O1882 O -0.100100 0.915900 0.619000
O1883 O -0.106200 0.832900 0.678600
O1884 O -0.096800 0.818300 0.583000
O1885 O -0.022600 0.883500 0.678700
O1886 O 0.039500 0.881300 0.760000
O1887 O 0.052000 0.781200 0.733100
O1888 O -0.024380 0.790290 0.657700
O1889 O -0.014600 0.867700 0.583100
O1890 O 0.026900 0.884500 0.490200
O1891 O 0.065900 0.789800 0.503600
O1892 O 0.024380 0.709710 0.657700
O1893 O 0.040290 0.774380 0.592300
O1894 O -0.040290 0.725620 0.592300
O1895 O 0.040290 0.725620 0.092300
O1896 O 0.031200 0.802000 0.016900
O1897 O 0.131300 0.789500 -0.010000
O1898 O 0.100100 0.584100 0.619000
O1899 O 0.106200 0.667100 0.678600
O1900 O 0.096800 0.681700 0.583000
O1901 O 0.022600 0.616500 0.678700
O1902 O -0.039500 0.618700 0.760000
O1903 O -0.052000 0.718800 0.733100
O1904 O 0.014600 0.632300 0.583100
O1905 O -0.026900 0.615500 0.490200
O1906 O -0.065900 0.710200 0.503600
O1907 O 0.133500 0.727400 0.071300
O1908 O 0.068300 0.653200 0.167000
O1909 O 0.082900 0.643800 0.071400
O1910 O 0.165900 0.850100 0.631000
O1911 O 0.082900 0.856200 0.571400
O1912 O 0.068300 0.846800 0.667000
O1913 O 0.133500 0.772600 0.571300
O1914 O 0.131300 0.710500 0.490000
O1915 O 0.031200 0.698000 0.516900
O1916 O 0.117700 0.764600 0.666900
O1917 O 0.134500 0.723100 0.759800
O1918 O 0.039800 0.684100 0.746400
O1919 O 0.165900 0.649900 0.131000
O1920 O 0.960200 0.815900 0.746400
O1921 O 0.865500 0.776900 0.759800
O1922 O -0.165900 0.649900 0.631000
O1923 O -0.082900 0.643800 0.571400
O1924 O -0.068300 0.653200 0.667000
O1925 O -0.133500 0.727400 0.571300
O1926 O -0.131300 0.789500 0.490000
O1927 O -0.031200 0.802000 0.516900
O1928 O -0.117700 0.735400 0.666900
O1929 O -0.134500 0.776900 0.759800
O1930 O -0.039800 0.815900 0.746400
O1931 O 0.882300 0.735400 0.666900
O1932 O 0.968800 0.802000 0.516900
O1933 O 0.868700 0.789500 0.490000
O1934 O 0.866500 0.727400 0.571300
O1935 O 0.899900 0.915900 0.619000
O1936 O 0.893800 0.832900 0.678600
O1937 O 0.903200 0.818300 0.583000
O1938 O 0.977400 0.883500 0.678700
O1939 O 1.039500 0.881300 0.760000
O1940 O 1.052000 0.781200 0.733100
O1941 O 0.975620 0.790290 0.657700
O1942 O 0.985400 0.867700 0.583100
O1943 O 1.026900 0.884500 0.490200
O1944 O 1.065900 0.789800 0.503600
O1945 O 1.024380 0.709710 0.657700
O1946 O 1.040290 0.774380 0.592300
O1947 O 0.959710 0.725620 0.592300
O1948 O 0.931700 0.653200 0.667000
O1949 O 0.917100 0.643800 0.571400
O1950 O 0.834100 0.649900 0.631000
O1951 O 1.100100 0.584100 0.619000
O1952 O 1.106200 0.667100 0.678600
O1953 O 1.096800 0.681700 0.583000
O1954 O 1.022600 0.616500 0.678700
O1955 O 0.960500 0.618700 0.760000
O1956 O 0.948000 0.718800 0.733100
O1957 O 1.014600 0.632300 0.583100
O1958 O 0.973100 0.615500 0.490200
O1959 O 0.934100 0.710200 0.503600
O1960 O 1.039800 0.684100 0.746400
O1961 O 1.134500 0.723100 0.759800
O1962 O 1.117700 0.764600 0.666900
O1963 O 1.165900 0.850100 0.631000
O1964 O 1.082900 0.856200 0.571400
O1965 O 1.068300 0.846800 0.667000
O1966 O 1.133500 0.772600 0.571300
O1967 O 1.131300 0.710500 0.490000
O1968 O 1.031200 0.698000 0.516900
P1969 P 0.000000 0.250000 0.375000
P1970 P 0.500000 0.750000 0.875000
P1971 P 0.500000 0.750000 0.375000
P1972 P 1.000000 0.250000 0.875000
P1973 P 0.500000 0.250000 0.125000
P1974 P 0.000000 0.250000 0.875000
P1975 P 0.500000 0.250000 0.625000
P1976 P 1.000000 0.250000 0.375000
P1977 P 1.000000 0.750000 0.125000
P1978 P 1.000000 0.750000 0.625000
P1979 P 0.000000 0.750000 0.625000
P1980 P 0.000000 0.750000 0.125000
Cu1981 Cu 1.250000 -0.129150 1.000000
Cu1982 Cu 0.879150 0.000000 1.250000
Cu1983 Cu -0.120850 0.500000 0.750000
Cu1984 Cu 0.620850 0.000000 0.750000
Cu1985 Cu 0.750000 0.129150 1.000000
Cu1986 Cu -0.250000 0.370850 0.500000
Cu1987 Cu 0.879150 0.500000 0.750000
Cu1988 Cu 0.379150 0.500000 -0.250000
Cu1989 Cu 0.250000 1.129150 0.500000
Cu1990 Cu 0.250000 0.129150 0.500000
Cu1991 Cu 0.250000 0.370850 0.000000
Cu1992 Cu 0.750000 0.129150 0.000000
Cu1993 Cu 0.879150 0.000000 0.250000
Cu1994 Cu 0.750000 1.129150 1.000000
Cu1995 Cu 1.120850 0.000000 0.750000
Cu1996 Cu 0.379150 0.000000 0.250000
Cu1997 Cu 0.750000 -0.129150 0.500000
Cu1998 Cu 0.379150 1.000000 1.250000
Cu1999 Cu 0.120850 0.500000 1.250000
Cu2000 Cu -0.250000 -0.129150 0.500000
Cu2001 Cu 0.120850 0.000000 0.750000
Cu2002 Cu 1.250000 0.370850 0.000000
Cu2003 Cu 0.879150 0.500000 -0.250000
Cu2004 Cu 0.120850 0.500000 0.250000
Cu2005 Cu 0.379150 1.000000 0.250000
Cu2006 Cu -0.120850 1.000000 0.250000
Cu2007 Cu -0.250000 1.129150 0.000000
Cu2008 Cu 0.120850 1.000000 -0.250000
Cu2009 Cu 0.250000 0.870850 0.000000
Cu2010 Cu 0.620850 1.000000 0.750000
Cu2011 Cu -0.250000 0.629150 1.000000
Cu2012 Cu 0.250000 0.870850 1.000000
Cu2013 Cu 0.120850 1.000000 0.750000
Cu2014 Cu 1.120850 0.500000 0.250000
Cu2015 Cu 1.250000 0.629150 0.500000
Cu2016 Cu 0.250000 0.370850 1.000000
Cu2017 Cu 0.620850 0.500000 1.250000
Cu2018 Cu 0.750000 0.629150 1.000000
Cu2019 Cu 0.750000 0.870850 0.500000
Cu2020 Cu 0.879150 1.000000 0.250000
Cu2021 Cu 0.750000 0.629150 0.000000
Cu2022 Cu 0.379150 0.500000 0.750000
Cu2023 Cu 0.250000 0.629150 0.500000
Cu2024 Cu 0.620850 0.500000 0.250000
Cu2025 Cu 1.250000 1.129150 0.500000
Cu2026 Cu 0.250000 -0.129150 0.000000
Cu2027 Cu 1.120850 1.000000 0.750000
Cu2028 Cu 0.620850 0.000000 -0.250000
Cu2029 Cu -0.120850 0.000000 0.250000
Cu2030 Cu 0.750000 0.370850 0.500000
W2031 W -0.089790 0.275570 0.283400
W2032 W -0.113030 0.182200 0.377890
W2033 W -0.091430 0.269730 0.466530
W2034 W 0.525570 0.839790 0.966600
W2035 W 0.432200 0.863030 0.872110
W2036 W 0.519730 0.841430 0.783470
W2037 W 1.091430 0.769730 0.033470
W2038 W 1.113030 0.682200 0.122110
W2039 W 1.089790 0.775570 0.216600
W2040 W 0.091430 0.230270 0.466530
W2041 W 0.474430 0.660210 0.966600
W2042 W 0.567800 0.636970 0.872110
W2043 W 0.480270 0.658570 0.783470
W2044 W 0.410210 0.775570 0.783400
W2045 W 0.386970 0.682200 0.877890
W2046 W 0.408570 0.769730 0.966530
W2047 W 0.113030 0.317800 0.377890
W2048 W 0.589790 0.724430 0.783400
W2049 W 0.613030 0.817800 0.877890
W2050 W 0.591430 0.730270 0.966530
W2051 W 0.410210 0.724430 0.283400
W2052 W 0.386970 0.817800 0.377890
W2053 W 0.408570 0.730270 0.466530
W2054 W 0.908570 0.730270 0.033470
W2055 W 0.886970 0.817800 0.122110
W2056 W 0.910210 0.724430 0.216600
W2057 W 0.589790 0.775570 0.283400
W2058 W 0.613030 0.682200 0.377890
W2059 W 0.591430 0.769730 0.466530
W2060 W 0.474430 0.839790 0.466600
W2061 W 0.567800 0.863030 0.372110
W2062 W 0.480270 0.841430 0.283470
W2063 W 0.025570 0.660210 0.033400
W2064 W 0.525570 0.660210 0.466600
W2065 W 0.432200 0.636970 0.372110
W2066 W 0.980270 0.841430 0.216530
W2067 W 1.067800 0.863030 0.127890
W2068 W 0.974430 0.839790 0.033400
W2069 W 0.519730 0.658570 0.283470
W2070 W 1.089790 0.275570 0.783400
W2071 W -0.067800 0.636970 0.127890
W2072 W 1.091430 0.269730 0.966530
W2073 W 0.910210 0.224430 0.783400
W2074 W 0.886970 0.317800 0.877890
W2075 W 0.908570 0.230270 0.966530
W2076 W 1.025570 0.160210 0.966600
W2077 W 0.932200 0.136970 0.872110
W2078 W 1.019730 0.658570 0.216530
W2079 W 0.932200 0.636970 0.127890
W2080 W 1.025570 0.660210 0.033400
W2081 W 1.019730 0.158570 0.783470
W2082 W 0.019730 0.658570 0.216530
W2083 W 0.974430 0.339790 0.966600
W2084 W 1.067800 0.363030 0.872110
W2085 W 0.980270 0.341430 0.783470
W2086 W 0.089790 0.275570 0.783400
W2087 W 0.113030 0.182200 0.877890
W2088 W 0.091430 0.269730 0.966530
W2089 W -0.089790 0.224430 0.783400
W2090 W 0.519730 0.341430 0.216530
W2091 W 0.432200 0.363030 0.127890
W2092 W 0.525570 0.339790 0.033400
W2093 W 0.089790 0.224430 0.283400
W2094 W -0.113030 0.317800 0.877890
W2095 W -0.091430 0.230270 0.966530
W2096 W 0.025570 0.160210 0.966600
W2097 W -0.067800 0.136970 0.872110
W2098 W 0.019730 0.158570 0.783470
W2099 W 0.019730 0.341430 0.283470
W2100 W -0.025570 0.339790 0.966600
W2101 W 0.067800 0.363030 0.872110
W2102 W -0.019730 0.341430 0.783470
W2103 W 0.525570 0.160210 0.533400
W2104 W 0.432200 0.136970 0.627890
W2105 W 0.519730 0.158570 0.716530
W2106 W 0.474430 0.339790 0.533400
W2107 W 0.480270 0.158570 0.216530
W2108 W 0.567800 0.136970 0.127890
W2109 W 0.474430 0.160210 0.033400
W2110 W 0.567800 0.363030 0.627890
W2111 W 0.480270 0.341430 0.716530
W2112 W 0.410210 0.224430 0.716600
W2113 W 0.386970 0.317800 0.622110
W2114 W 0.408570 0.230270 0.533470
W2115 W -0.067800 0.363030 0.372110
W2116 W 0.589790 0.275570 0.716600
W2117 W 0.613030 0.182200 0.622110
W2118 W 0.591430 0.269730 0.533470
W2119 W 0.591430 0.230270 0.033470
W2120 W 0.613030 0.317800 0.122110
W2121 W 0.589790 0.224430 0.216600
W2122 W 0.025570 0.339790 0.466600
W2123 W -0.019730 0.158570 0.283470
W2124 W 0.067800 0.136970 0.372110
W2125 W -0.025570 0.160210 0.466600
W2126 W 0.908570 0.269730 0.466530
W2127 W 0.886970 0.182200 0.377890
W2128 W -0.025570 0.839790 0.033400
W2129 W 0.067800 0.863030 0.127890
W2130 W -0.019730 0.841430 0.216530
W2131 W 0.408570 0.269730 0.033470
W2132 W 0.386970 0.182200 0.122110
W2133 W 0.410210 0.275570 0.216600
W2134 W 0.910210 0.275570 0.283400
W2135 W 1.091430 0.230270 0.466530
W2136 W 1.113030 0.317800 0.377890
W2137 W 1.089790 0.224430 0.283400
W2138 W 1.019730 0.341430 0.283470
W2139 W 0.932200 0.363030 0.372110
W2140 W 1.025570 0.339790 0.466600
W2141 W 0.980270 0.158570 0.283470
W2142 W -0.089790 0.724430 0.216600
W2143 W -0.113030 0.817800 0.122110
W2144 W -0.091430 0.730270 0.033470
W2145 W 1.067800 0.136970 0.372110
W2146 W 0.974430 0.160210 0.466600
W2147 W 0.019730 0.841430 0.716530
W2148 W -0.067800 0.863030 0.627890
W2149 W 0.025570 0.839790 0.533400
W2150 W -0.019730 0.658570 0.716530
W2151 W 0.067800 0.636970 0.627890
W2152 W -0.025570 0.660210 0.533400
W2153 W 0.091430 0.730270 0.533470
W2154 W 0.113030 0.817800 0.622110
W2155 W 0.089790 0.724430 0.716600
W2156 W -0.091430 0.769730 0.533470
W2157 W 0.089790 0.775570 0.216600
W2158 W 0.113030 0.682200 0.122110
W2159 W 0.091430 0.769730 0.033470
W2160 W -0.113030 0.682200 0.622110
W2161 W -0.089790 0.775570 0.716600
W2162 W 1.019730 0.841430 0.716530
W2163 W 0.932200 0.863030 0.627890
W2164 W 1.025570 0.839790 0.533400
W2165 W 0.980270 0.658570 0.716530
W2166 W 1.067800 0.636970 0.627890
W2167 W 0.974430 0.660210 0.533400
W2168 W 0.910210 0.775570 0.716600
W2169 W 0.886970 0.682200 0.622110
W2170 W 0.908570 0.769730 0.533470
W2171 W 1.091430 0.730270 0.533470
W2172 W 1.113030 0.817800 0.622110
W2173 W 1.113030 0.182200 0.877890
W2174 W 1.089790 0.724430 0.716600

#END
