./ABEWAG_from_POSCAR.cif_generated_by_CrystalShift
_symmetry_cell_setting triclinic
_symmetry_space_group_name_H-M 'P 1'
loop_
_symmetry_equiv_pos_site_id
_symmetry_equiv_pos_as_xyz
1 x,y,z
_cell_length_a 11.341400
_cell_length_b 11.341400
_cell_length_c 4.879900
_cell_angle_alpha 90.000000
_cell_angle_beta 90.000000
_cell_angle_gamma 90.000000
_cell_volume 627.688625
loop_
_atom_site_label
_atom_site_type_symbol
_atom_site_fract_x
_atom_site_fract_y
_atom_site_fract_z
H1 H 1.122300 0.856500 0.413000
H2 H 0.968700 0.778800 -0.160000
H3 H 1.022000 0.939500 0.269000
H4 H 0.623800 0.796800 -0.000700
H5 H 0.625500 0.658900 0.012300
H6 H 0.478000 0.560500 0.269000
H7 H 0.531300 0.721200 -0.160000
H8 H 0.377500 0.627300 0.088000
H9 H 0.377700 0.643500 0.413000
H10 H 0.874500 0.841100 0.012300
H11 H 0.876200 0.703200 -0.000700
H12 H 0.856500 0.377700 0.087000
H13 H 0.203200 0.123800 0.499300
H14 H 0.341100 0.125500 0.512300
H15 H 0.439500 -0.022000 0.769000
H16 H 0.278800 0.031300 0.340000
H17 H 0.372700 -0.122500 0.588000
H18 H 0.356500 -0.122300 0.913000
H19 H 0.872700 0.377500 0.412000
H20 H 0.778800 0.531300 0.660000
H21 H 0.939500 0.478000 0.231000
H22 H 0.296800 0.376200 0.499300
H23 H 0.158900 0.374500 0.512300
H24 H 0.060500 0.522000 0.769000
H25 H 0.221200 0.468700 0.340000
H26 H 0.127300 0.622500 0.588000
H27 H 0.143500 0.622300 0.913000
H28 H 0.841100 0.625500 0.487700
H29 H 0.703200 0.623800 0.500700
H30 H 0.643500 1.122300 0.087000
H31 H 0.123800 0.296800 1.000700
H32 H 0.125500 0.158900 0.987700
H33 H -0.022000 0.060500 0.731000
H34 H 0.031300 0.221200 1.160000
H35 H -0.122500 0.127300 0.912000
H36 H -0.122300 0.143500 0.587000
H37 H 0.627300 1.122500 0.412000
H38 H 0.721200 0.968700 0.660000
H39 H 0.560500 1.022000 0.231000
H40 H 0.376200 0.203200 1.000700
H41 H 0.374500 0.341100 0.987700
H42 H 0.522000 0.439500 0.731000
H43 H 0.468700 0.278800 1.160000
H44 H 0.622500 0.372700 0.912000
H45 H 0.622300 0.356500 0.587000
H46 H 0.658900 0.874500 0.487700
H47 H 0.796800 0.876200 0.500700
H48 H 1.122500 0.872700 0.088000
C49 C 0.726400 0.924340 0.497460
C50 C 0.575660 0.726400 0.002540
C51 C 0.572700 0.366980 0.748560
C52 C 0.424340 0.273600 0.997460
C53 C 0.427300 0.633020 0.251440
C54 C -0.072700 0.133020 0.748560
C55 C 0.273600 0.075660 0.502540
C56 C 0.773600 0.575660 0.497460
C57 C 0.866980 0.427300 0.248560
C58 C 0.075660 0.226400 0.997460
C59 C 1.072700 0.866980 0.251440
C60 C 0.133020 0.572700 0.751440
C61 C 0.226400 0.424340 0.502540
C62 C 0.924340 0.773600 0.002540
C63 C 0.366980 -0.072700 0.751440
C64 C 0.633020 1.072700 0.248560
O65 O 0.000240 0.233700 0.767110
O66 O 0.766300 0.500240 0.267110
O67 O 0.266300 0.000240 0.732890
O68 O 0.499760 0.266300 0.767110
O69 O 0.733700 0.999760 0.267110
O70 O 0.233700 0.499760 0.732890
O71 O 0.999760 0.766300 0.232890
O72 O 0.500240 0.733700 0.232890

#END
