./ABEYIS01_from_POSCAR.cif_generated_by_CrystalShift
_symmetry_cell_setting triclinic
_symmetry_space_group_name_H-M 'P 1'
loop_
_symmetry_equiv_pos_site_id
_symmetry_equiv_pos_as_xyz
1 x,y,z
_cell_length_a 3.917700
_cell_length_b 7.770500
_cell_length_c 13.777500
_cell_angle_alpha 94.069800
_cell_angle_beta 97.408100
_cell_angle_gamma 100.337800
_cell_volume 407.260441
loop_
_atom_site_label
_atom_site_type_symbol
_atom_site_fract_x
_atom_site_fract_y
_atom_site_fract_z
H1 H 0.582690 0.065490 0.689030
H2 H 0.234600 0.493910 0.564310
H3 H 0.379720 0.209000 0.790230
H4 H 0.898890 0.286590 0.328480
H5 H 0.765400 0.506090 0.435690
H6 H 0.521000 -0.024080 0.587360
H7 H 0.317160 0.451500 0.896650
H8 H 0.620280 0.791000 0.209770
H9 H 0.682840 0.548500 0.103350
H10 H 0.417310 0.934510 0.310970
H11 H 0.243310 0.698590 0.828010
H12 H 0.479000 1.024080 0.412640
H13 H 0.756690 0.301410 0.171990
H14 H 0.101110 0.713410 0.671520
C15 C 0.251000 0.482800 0.631000
C16 C 0.337000 0.334000 0.667200
C17 C 0.352000 0.315600 0.765700
C18 C 0.306000 0.459000 0.829200
C19 C 0.810000 0.381000 0.304500
C20 C 0.749000 0.517200 0.369000
C21 C 0.415000 0.204200 0.592700
C22 C 0.663000 0.666000 0.332800
C23 C 0.585000 0.795800 0.407300
C24 C 0.694000 0.541000 0.170800
C25 C 0.648000 0.684400 0.234300
C26 C 0.190000 0.619000 0.695500
N27 N 0.763000 0.393900 0.211000
N28 N 0.480800 0.934000 0.372800
N29 N 0.519200 0.066000 0.627200
N30 N 0.237000 0.606100 0.789000
O31 O 0.682800 0.790600 0.499100
O32 O 0.317200 0.209400 0.500900
Cl33 Cl 1.248200 0.760800 0.007400
Cl34 Cl 0.751800 1.239200 -0.007400
Cl35 Cl 1.095400 1.057100 0.168280
Cl36 Cl 1.095400 0.057100 1.168280
Cl37 Cl 1.248200 0.760800 1.007400
Cl38 Cl 0.904600 0.942900 0.831720
Cl39 Cl 0.751800 1.239200 0.992600
Cl40 Cl 1.095400 1.057100 1.168280
Cl41 Cl 0.751800 0.239200 0.992600
Cl42 Cl 0.904600 -0.057100 0.831720
Cl43 Cl 1.248200 -0.239200 1.007400
Cl44 Cl 1.095400 0.057100 0.168280
Cl45 Cl 0.751800 0.239200 -0.007400
Cl46 Cl 0.904600 -0.057100 -0.168280
Cl47 Cl 1.248200 -0.239200 0.007400
Cl48 Cl 0.095400 1.057100 1.168280
Cl49 Cl -0.248200 1.239200 0.992600
Cl50 Cl -0.095400 0.942900 0.831720
Cl51 Cl 0.248200 0.760800 1.007400
Cl52 Cl 0.095400 1.057100 0.168280
Cl53 Cl -0.248200 1.239200 -0.007400
Cl54 Cl -0.095400 0.942900 -0.168280
Cl55 Cl 0.248200 0.760800 0.007400
Cl56 Cl 0.095400 0.057100 1.168280
Cl57 Cl -0.248200 0.239200 0.992600
Cl58 Cl -0.095400 -0.057100 0.831720
Cl59 Cl 0.248200 -0.239200 1.007400
Cl60 Cl 0.095400 0.057100 0.168280
Cl61 Cl -0.248200 0.239200 -0.007400
Cl62 Cl -0.095400 -0.057100 -0.168280
Cl63 Cl 0.248200 -0.239200 0.007400
Cl64 Cl 0.904600 0.942900 -0.168280
Cu65 Cu 1.000000 1.000000 0.000000
Cu66 Cu 1.000000 0.000000 1.000000
Cu67 Cu 1.000000 0.000000 0.000000
Cu68 Cu 0.000000 1.000000 1.000000
Cu69 Cu 0.000000 1.000000 0.000000
Cu70 Cu 0.000000 0.000000 1.000000
Cu71 Cu 0.000000 0.000000 0.000000
Cu72 Cu 1.000000 1.000000 1.000000

#END
