./ABEYIS_from_POSCAR.cif_generated_by_CrystalShift
_symmetry_cell_setting triclinic
_symmetry_space_group_name_H-M 'P 1'
loop_
_symmetry_equiv_pos_site_id
_symmetry_equiv_pos_as_xyz
1 x,y,z
_cell_length_a 7.475200
_cell_length_b 7.774100
_cell_length_c 8.087500
_cell_angle_alpha 77.452000
_cell_angle_beta 69.083000
_cell_angle_gamma 68.367000
_cell_volume 406.103468
loop_
_atom_site_label
_atom_site_type_symbol
_atom_site_fract_x
_atom_site_fract_y
_atom_site_fract_z
H1 H 0.387100 0.170300 1.023000
H2 H 0.122900 0.860700 0.500300
H3 H 0.877100 0.139300 0.499700
H4 H 0.149200 0.344100 0.683800
H5 H 0.507900 0.435200 0.204200
H6 H 0.635000 0.632500 0.067300
H7 H 0.986600 0.355600 0.271200
H8 H 0.387200 0.227900 0.437200
H9 H 0.612800 0.772100 0.562800
H10 H 0.013400 0.644400 0.728800
H11 H 0.612900 0.829700 -0.023000
H12 H 0.365000 0.367500 0.932700
H13 H 0.492100 0.564800 0.795800
H14 H 0.850800 0.655900 0.316200
C15 C 0.664900 0.642300 0.552000
C16 C 0.393200 0.813400 0.184800
C17 C 0.335100 0.357700 0.448000
C18 C 0.606800 0.186600 0.815200
C19 C 0.405900 0.480000 0.310000
C20 C 0.886600 0.396200 0.379300
C21 C 0.325200 0.668800 0.328800
C22 C 0.178200 0.731600 0.485800
C23 C 0.821800 0.268400 0.514200
C24 C 0.674800 0.331200 0.671200
C25 C 0.113400 0.603800 0.620700
C26 C 0.594100 0.520000 0.690000
N27 N 0.807600 0.576300 0.402600
N28 N 0.434200 0.248200 0.936800
N29 N 0.565800 0.751800 0.063200
N30 N 0.192400 0.423700 0.597400
O31 O 0.714100 0.023100 0.809700
O32 O 0.285900 0.976900 0.190300
Cl33 Cl 1.097470 0.681030 0.029060
Cl34 Cl 0.902530 1.318970 -0.029060
Cl35 Cl 1.251140 0.996250 -0.260140
Cl36 Cl 1.251140 -0.003750 0.739860
Cl37 Cl 1.097470 0.681030 1.029060
Cl38 Cl 0.748860 1.003750 1.260140
Cl39 Cl 0.902530 1.318970 0.970940
Cl40 Cl 1.251140 0.996250 0.739860
Cl41 Cl 0.902530 0.318970 0.970940
Cl42 Cl 0.748860 0.003750 1.260140
Cl43 Cl 1.097470 -0.318970 1.029060
Cl44 Cl 1.251140 -0.003750 -0.260140
Cl45 Cl 0.902530 0.318970 -0.029060
Cl46 Cl 0.748860 0.003750 0.260140
Cl47 Cl 1.097470 -0.318970 0.029060
Cl48 Cl 0.251140 0.996250 0.739860
Cl49 Cl -0.097470 1.318970 0.970940
Cl50 Cl -0.251140 1.003750 1.260140
Cl51 Cl 0.097470 0.681030 1.029060
Cl52 Cl 0.251140 0.996250 -0.260140
Cl53 Cl -0.097470 1.318970 -0.029060
Cl54 Cl -0.251140 1.003750 0.260140
Cl55 Cl 0.097470 0.681030 0.029060
Cl56 Cl 0.251140 -0.003750 0.739860
Cl57 Cl -0.097470 0.318970 0.970940
Cl58 Cl -0.251140 0.003750 1.260140
Cl59 Cl 0.097470 -0.318970 1.029060
Cl60 Cl 0.251140 -0.003750 -0.260140
Cl61 Cl -0.097470 0.318970 -0.029060
Cl62 Cl -0.251140 0.003750 0.260140
Cl63 Cl 0.097470 -0.318970 0.029060
Cl64 Cl 0.748860 1.003750 0.260140
Cu65 Cu 1.000000 1.000000 0.000000
Cu66 Cu 1.000000 0.000000 1.000000
Cu67 Cu 1.000000 0.000000 0.000000
Cu68 Cu 0.000000 1.000000 1.000000
Cu69 Cu 0.000000 1.000000 0.000000
Cu70 Cu 0.000000 0.000000 1.000000
Cu71 Cu 0.000000 0.000000 0.000000
Cu72 Cu 1.000000 1.000000 1.000000

#END
