./ABIBIY_from_POSCAR.cif_generated_by_CrystalShift
_symmetry_cell_setting triclinic
_symmetry_space_group_name_H-M 'P 1'
loop_
_symmetry_equiv_pos_site_id
_symmetry_equiv_pos_as_xyz
1 x,y,z
_cell_length_a 9.928000
_cell_length_b 10.295000
_cell_length_c 17.911000
_cell_angle_alpha 90.000000
_cell_angle_beta 90.000000
_cell_angle_gamma 90.000000
_cell_volume 1830.661100
loop_
_atom_site_label
_atom_site_type_symbol
_atom_site_fract_x
_atom_site_fract_y
_atom_site_fract_z
H1 H 0.002100 0.165300 -0.060800
H2 H 0.522100 0.277900 0.309000
H3 H -0.197300 0.048900 -0.057600
H4 H 0.415900 0.227500 0.369600
H5 H 0.775600 0.401500 1.280700
H6 H 0.507100 0.125600 0.324900
H7 H 0.809300 0.212000 1.349000
H8 H 0.225900 0.202800 -0.021500
H9 H 0.901400 0.029000 1.292100
H10 H 0.204500 0.192600 0.143400
H11 H 0.956500 0.035600 1.165600
H12 H 0.583700 0.103900 0.216300
H13 H 0.921900 0.223500 1.097200
H14 H 0.638900 0.029100 0.097700
H15 H 0.374000 -0.024700 -0.158700
H16 H 0.721600 0.480800 1.145100
H17 H 0.874000 0.524700 1.158700
H18 H 0.221600 0.019200 -0.145100
H19 H 0.421900 0.276500 -0.097200
H20 H 0.456500 0.464400 -0.165600
H21 H 1.138900 0.470900 0.902300
H22 H 0.401400 0.471000 -0.292100
H23 H 1.083700 0.396100 0.783700
H24 H 0.309300 0.288000 -0.349000
H25 H 0.275600 0.098500 -0.280700
H26 H 0.704500 0.307400 0.856600
H27 H 0.251000 0.363100 0.247200
H28 H 0.228200 0.300500 0.328000
H29 H 0.725900 0.297200 1.021500
H30 H 0.497900 0.834700 0.439200
H31 H 1.007100 0.374400 0.675100
H32 H 0.915900 0.272500 0.630400
H33 H 1.022100 0.222100 0.691000
H34 H 0.697300 0.951100 0.442400
H35 H 0.658400 0.263100 0.743700
H36 H 0.751000 0.136900 0.752800
H37 H 0.728200 0.199500 0.672000
H38 H 0.705000 1.153600 0.500100
H39 H 0.689500 0.620200 0.946600
H40 H 0.512200 1.238500 0.555500
H41 H 0.487800 0.738500 0.944500
H42 H 0.310500 1.120200 0.553400
H43 H 0.295000 0.653600 0.999900
H44 H 0.271800 0.699500 0.828000
H45 H 0.302700 0.451100 1.057600
H46 H 0.249000 0.636900 0.747200
H47 H 0.502100 0.334700 1.060800
H48 H 0.341600 0.763100 0.756300
H49 H -0.022100 0.722100 0.809000
H50 H -0.205000 -0.153600 0.000100
H51 H 0.084100 0.772500 0.869600
H52 H -0.007100 0.874400 0.824900
H53 H 0.724400 0.598500 0.780700
H54 H 0.274100 0.797200 0.478500
H55 H 0.690700 0.788000 0.849000
H56 H 0.295500 0.807400 0.643400
H57 H 0.598600 0.971000 0.792100
H58 H -0.083700 0.896100 0.716300
H59 H 0.543500 0.964400 0.665600
H60 H -0.138900 0.970900 0.597700
H61 H 0.578100 0.776500 0.597200
H62 H 0.126000 1.024700 0.341300
H63 H 0.278400 0.980800 0.354900
H64 H 0.778400 0.519200 0.645100
H65 H 0.626000 0.475300 0.658700
H66 H 0.078100 0.723500 0.402800
H67 H 0.043500 0.535600 0.334400
H68 H 0.098600 0.529000 0.207900
H69 H 0.361100 0.529100 0.402300
H70 H 0.190700 0.712000 0.151000
H71 H 0.416300 0.603900 0.283700
H72 H 0.224400 0.901500 0.219300
H73 H 0.189500 -0.120200 0.053400
H74 H 0.795500 0.692600 0.356600
H75 H -0.012200 -0.238500 0.055500
H76 H 0.997900 0.665300 0.560800
H77 H 0.774100 0.702800 0.521500
H78 H 1.197300 0.548900 0.557600
H79 H 0.492900 0.625600 0.175100
H80 H 0.584100 0.727500 0.130400
H81 H 0.477900 0.777900 0.191000
H82 H 1.205000 0.346400 0.499900
H83 H 0.841600 0.736900 0.243700
H84 H 0.749000 0.863100 0.252800
H85 H 0.771800 0.800500 0.172000
H86 H 0.158400 0.236900 0.256300
H87 H 0.810500 0.379800 0.446600
H88 H 1.012200 0.261500 0.444500
C89 C 1.009200 0.344200 0.467920
C90 C 0.889300 0.414800 0.469040
C91 C 0.761100 0.781700 0.225290
C92 C 1.118700 0.514100 0.534980
C93 C 0.541300 0.708300 0.178470
C94 C 1.000300 0.583400 0.536390
C95 C 0.754400 0.611600 0.505900
C96 C 0.884700 0.536200 0.502930
C97 C 0.671700 0.614000 0.434380
C98 C -0.009200 -0.155800 0.032080
C99 C 0.707400 0.659900 0.365200
C100 C 0.188500 0.826700 0.243240
C101 C 0.611400 0.657800 0.306850
C102 C 0.167600 0.714300 0.202410
C103 C 0.481700 0.606900 0.322330
C104 C 0.113400 0.606000 0.236010
C105 C 0.448900 0.561500 0.392510
C106 C 0.080800 0.610100 0.310830
C107 C 0.544800 0.563700 0.448320
C108 C 0.102000 0.721500 0.351410
C109 C 0.534700 0.528000 0.527950
C110 C 0.157700 0.831300 0.318660
C111 C 0.183300 0.954900 0.362270
C112 C 0.683300 0.545100 0.637730
C113 C 0.657700 0.668700 0.681340
C114 C 0.034700 0.972000 0.472050
C115 C 0.044800 0.936300 0.551680
C116 C -0.051100 0.938500 0.607490
C117 C 0.602000 0.778500 0.648590
C118 C -0.018300 0.893100 0.677670
C119 C 0.580800 0.889900 0.689170
C120 C 0.111400 0.842200 0.693150
C121 C 0.207400 0.840100 0.634800
C122 C 0.613400 0.894000 0.763990
C123 C 0.171700 0.886000 0.565620
C124 C 0.254400 0.888400 0.494100
C125 C 0.667600 0.785700 0.797590
C126 C 0.041300 0.791700 0.821530
C127 C 0.688500 0.673300 0.756760
C128 C -0.123300 -0.105700 -0.000770
C129 C -0.118700 0.014100 -0.034980
C130 C 0.261100 0.718300 0.774710
C131 C 0.615300 0.463800 1.002930
C132 C 0.499700 0.416600 1.036390
C133 C 0.381300 0.485900 1.034980
C134 C 0.389300 1.085200 0.530960
C135 C 0.376700 0.605700 1.000770
C136 C 0.509200 1.155800 0.532080
C137 C 0.490800 0.655800 0.967920
C138 C 0.623300 1.105700 0.499230
C139 C 0.610700 0.585200 0.969040
C140 C 0.618700 0.985900 0.465020
C141 C 0.738900 0.218300 0.725290
C142 C 0.500300 0.916600 0.463610
C143 C 0.958700 0.291700 0.678470
C144 C 0.384700 0.963800 0.497070
C145 C 0.110700 -0.085200 0.030960
C146 C 0.745600 0.388400 1.005900
C147 C 0.828300 0.386000 0.934380
C148 C 0.311500 0.173300 -0.256760
C149 C 0.792600 0.340100 0.865200
C150 C 0.332400 0.285700 -0.297590
C151 C 0.888600 0.342200 0.806850
C152 C 0.386600 0.394000 -0.263990
C153 C 1.018300 0.393100 0.822330
C154 C 0.419200 0.389900 -0.189170
C155 C 1.051100 0.438500 0.892510
C156 C 0.398000 0.278500 -0.148590
C157 C 0.955200 0.436300 0.948320
C158 C 0.342300 0.168700 -0.181340
C159 C 0.316700 0.045100 -0.137730
C160 C 0.965300 0.472000 1.027950
C161 C 0.816700 0.454900 1.137730
C162 C 0.465300 0.028000 -0.027950
C163 C 0.455200 0.063700 0.051680
C164 C 0.551100 0.061500 0.107490
C165 C 0.842300 0.331300 1.181340
C166 C 0.518300 0.106900 0.177670
C167 C 0.898000 0.221500 1.148590
C168 C 0.388600 0.157800 0.193150
C169 C 0.292600 0.159900 0.134800
C170 C 0.919200 0.110100 1.189170
C171 C 0.328300 0.114000 0.065620
C172 C 0.245600 0.111600 -0.005900
C173 C 0.886600 0.106000 1.263990
C174 C 0.458700 0.208300 0.321530
C175 C 0.832400 0.214300 1.297590
C176 C 0.811500 0.326700 1.256760
C177 C -0.000300 0.083400 -0.036390
C178 C 0.238900 0.281700 0.274710
C179 C 1.123300 0.394300 0.500770
C180 C 0.115300 0.036200 -0.002930
N181 N 0.342500 0.054000 -0.058710
N182 N 0.842500 0.446000 1.058710
N183 N 0.143900 0.800600 0.763840
N184 N 0.157500 0.946000 0.441290
N185 N 0.856100 0.300600 0.736160
N186 N 0.643900 0.699400 0.236160
N187 N 0.657500 0.554000 0.558710
N188 N 0.356100 0.199400 0.263840
O189 O 0.562080 -0.015600 -0.062300
O190 O -0.062080 1.015600 0.437700
O191 O 0.437920 0.484400 0.562300
O192 O 1.062080 0.515600 1.062300

#END
