
#######################################################################
#
#                 Cambridge Crystallographic Data Centre
#                                CCDC 
#
#######################################################################
#
# If this CIF has been generated from an entry in the Cambridge 
# Structural Database, then it will include bibliographic, chemical, 
# crystal, experimental, refinement or atomic coordinate data resulting 
# from the CCDC's data processing and validation procedures.
#
#######################################################################

data_ABIGIB
_symmetry_cell_setting           monoclinic
_symmetry_space_group_name_H-M   'C 2/c'
_symmetry_Int_Tables_number      15
_space_group_name_Hall           '-C 2yn'
loop_
_symmetry_equiv_pos_site_id
_symmetry_equiv_pos_as_xyz
1 x,y,z
2 1/2+x,1/2+y,z
3 x,-y,1/2+z
4 1/2+x,1/2-y,1/2+z
5 -x,-y,-z
6 1/2-x,1/2-y,-z
7 -x,y,1/2-z
8 1/2-x,1/2+y,1/2-z
_cell_length_a                   23.4834(7)
_cell_length_b                   13.8594(5)
_cell_length_c                   15.0256(5)
_cell_angle_alpha                90
_cell_angle_beta                 125.173(3)
_cell_angle_gamma                90
_cell_volume                     3997.43
loop_
_atom_site_label
_atom_site_type_symbol
_atom_site_fract_x
_atom_site_fract_y
_atom_site_fract_z
O1 O 0.22159(9) 0.49209(13) 0.37340(16)
O2 O 0.11642(8) 0.42727(15) 0.27512(15)
C19 C 0.12242(13) 0.5957(2) 0.2837(2)
H14 H 0.1458 0.6392 0.3445
H15 H 0.0753 0.5864 0.2609
H16 H 0.1223 0.6224 0.2246
C20 C 0.15916(12) 0.50203(19) 0.31612(19)
C21 C 0.14885(16) 0.3330(2) 0.3069(3)
H17 H 0.1756 0.3233 0.2770
H18 H 0.1807 0.3300 0.3856
C22 C 0.09902(19) 0.2588(3) 0.2700(3)
H19 H 0.0648 0.2769 0.2827
H20 H 0.1216 0.2004 0.3088
H21 H 0.0767 0.2487 0.1935
O1 O 0.72159(9) 0.99209(13) 0.37340(16)
O2 O 0.61642(8) 0.92727(15) 0.27512(15)
C19 C 0.62242(13) 1.0957(2) 0.2837(2)
H14 H 0.6458 1.1392 0.3445
H15 H 0.5753 1.0864 0.2609
H16 H 0.6223 1.1224 0.2246
C20 C 0.65916(12) 1.00203(19) 0.31612(19)
C21 C 0.64885(16) 0.8330(2) 0.3069(3)
H17 H 0.6756 0.8233 0.2770
H18 H 0.6807 0.8300 0.3856
C22 C 0.59902(19) 0.7588(3) 0.2700(3)
H19 H 0.5648 0.7769 0.2827
H20 H 0.6216 0.7004 0.3088
H21 H 0.5767 0.7487 0.1935
O1 O 0.22159(9) 0.50791(13) 0.87340(16)
O2 O 0.11642(8) 0.57273(15) 0.77512(15)
C19 C 0.12242(13) 0.4043(2) 0.7837(2)
H14 H 0.1458 0.3608 0.8445
H15 H 0.0753 0.4136 0.7609
H16 H 0.1223 0.3776 0.7246
C20 C 0.15916(12) 0.49797(19) 0.81612(19)
C21 C 0.14885(16) 0.6670(2) 0.8069(3)
H17 H 0.1756 0.6767 0.7770
H18 H 0.1807 0.6700 0.8856
C22 C 0.09902(19) 0.7412(3) 0.7700(3)
H19 H 0.0648 0.7231 0.7827
H20 H 0.1216 0.7996 0.8088
H21 H 0.0767 0.7513 0.6935
O1 O 0.72159(9) 0.00791(13) 0.87340(16)
O2 O 0.61642(8) 0.07273(15) 0.77512(15)
C19 C 0.62242(13) -0.0957(2) 0.7837(2)
H14 H 0.6458 -0.1392 0.8445
H15 H 0.5753 -0.0864 0.7609
H16 H 0.6223 -0.1224 0.7246
C20 C 0.65916(12) -0.00203(19) 0.81612(19)
C21 C 0.64885(16) 0.1670(2) 0.8069(3)
H17 H 0.6756 0.1767 0.7770
H18 H 0.6807 0.1700 0.8856
C22 C 0.59902(19) 0.2412(3) 0.7700(3)
H19 H 0.5648 0.2231 0.7827
H20 H 0.6216 0.2996 0.8088
H21 H 0.5767 0.2513 0.6935
O1 O 0.77841(9) 0.50791(13) 0.62660(16)
O2 O 0.88358(8) 0.57273(15) 0.72488(15)
C19 C 0.87758(13) 0.4043(2) 0.7163(2)
H14 H 0.8542 0.3608 0.6555
H15 H 0.9247 0.4136 0.7391
H16 H 0.8777 0.3776 0.7754
C20 C 0.84084(12) 0.49797(19) 0.68388(19)
C21 C 0.85115(16) 0.6670(2) 0.6931(3)
H17 H 0.8244 0.6767 0.7230
H18 H 0.8193 0.6700 0.6144
C22 C 0.90098(19) 0.7412(3) 0.7300(3)
H19 H 0.9352 0.7231 0.7173
H20 H 0.8784 0.7996 0.6912
H21 H 0.9233 0.7513 0.8065
O1 O 0.27841(9) 0.00791(13) 0.62660(16)
O2 O 0.38358(8) 0.07273(15) 0.72488(15)
C19 C 0.37758(13) -0.0957(2) 0.7163(2)
H14 H 0.3542 -0.1392 0.6555
H15 H 0.4247 -0.0864 0.7391
H16 H 0.3777 -0.1224 0.7754
C20 C 0.34084(12) -0.00203(19) 0.68388(19)
C21 C 0.35115(16) 0.1670(2) 0.6931(3)
H17 H 0.3244 0.1767 0.7230
H18 H 0.3193 0.1700 0.6144
C22 C 0.40098(19) 0.2412(3) 0.7300(3)
H19 H 0.4352 0.2231 0.7173
H20 H 0.3784 0.2996 0.6912
H21 H 0.4233 0.2513 0.8065
O1 O 0.77841(9) 0.49209(13) 0.12660(16)
O2 O 0.88358(8) 0.42727(15) 0.22488(15)
C19 C 0.87758(13) 0.5957(2) 0.2163(2)
H14 H 0.8542 0.6392 0.1555
H15 H 0.9247 0.5864 0.2391
H16 H 0.8777 0.6224 0.2754
C20 C 0.84084(12) 0.50203(19) 0.18388(19)
C21 C 0.85115(16) 0.3330(2) 0.1931(3)
H17 H 0.8244 0.3233 0.2230
H18 H 0.8193 0.3300 0.1144
C22 C 0.90098(19) 0.2588(3) 0.2300(3)
H19 H 0.9352 0.2769 0.2173
H20 H 0.8784 0.2004 0.1912
H21 H 0.9233 0.2487 0.3065
O1 O 0.27841(9) 0.99209(13) 0.12660(16)
O2 O 0.38358(8) 0.92727(15) 0.22488(15)
C19 C 0.37758(13) 1.0957(2) 0.2163(2)
H14 H 0.3542 1.1392 0.1555
H15 H 0.4247 1.0864 0.2391
H16 H 0.3777 1.1224 0.2754
C20 C 0.34084(12) 1.00203(19) 0.18388(19)
C21 C 0.35115(16) 0.8330(2) 0.1931(3)
H17 H 0.3244 0.8233 0.2230
H18 H 0.3193 0.8300 0.1144
C22 C 0.40098(19) 0.7588(3) 0.2300(3)
H19 H 0.4352 0.7769 0.2173
H20 H 0.3784 0.7004 0.1912
H21 H 0.4233 0.7487 0.3065
N1 N 0.40582(7) 0.49882(11) 0.36875(11)
N2 N 0.40716(7) 0.49492(12) 0.21106(12)
N3 N 0.50857(8) 0.50474(14) 0.38304(14)
H1 H 0.5292(13) 0.5034(14) 0.452(2)
H2 H 0.5320(13) 0.5018(14) 0.353(2)
C1 C 0.29835(8) 0.49096(12) 0.19133(14)
C2 C 0.33648(9) 0.49534(13) 0.30336(15)
H3 H 0.3123 0.4959 0.3352
C3 C 0.43884(8) 0.49910(12) 0.31942(14)
C4 C 0.33777(9) 0.49066(14) 0.15010(15)
H4 H 0.3145 0.4873 0.0749
C5 C 0.22043(8) 0.48542(13) 0.11973(14)
C6 C 0.18778(8) 0.39574(14) 0.07995(14)
C7 C 0.22500(10) 0.30804(15) 0.10433(17)
H5 H 0.2734 0.3092 0.1494
C8 C 0.19189(13) 0.22265(17) 0.0638(2)
H6 H 0.2179 0.1664 0.0809
C9 C 0.11906(14) 0.2177(2) -0.0036(2)
H7 H 0.0971 0.1585 -0.0308
C10 C 0.08091(12) 0.29823(19) -0.0290(2)
H8 H 0.0326 0.2939 -0.0735
C11 C 0.11296(9) 0.39026(16) 0.01076(16)
C12 C 0.07417(10) 0.47483(16) -0.01623(18)
H9 H 0.0258 0.4714 -0.0610
C13 C 0.10605(9) 0.56354(16) 0.02207(16)
C14 C 0.06614(11) 0.64988(19) -0.0068(2)
H10 H 0.0178 0.6464 -0.0526
C15 C 0.09707(13) 0.7365(2) 0.0311(2)
H11 H 0.0701 0.7919 0.0122
C16 C 0.17030(12) 0.74315(18) 0.0993(2)
H12 H 0.1913 0.8032 0.1243
C17 C 0.21052(10) 0.66289(15) 0.12884(19)
H13 H 0.2587 0.6690 0.1744
C18 C 0.18058(8) 0.56997(14) 0.09170(14)
N1 N 0.90582(7) 0.99882(11) 0.36875(11)
N2 N 0.90716(7) 0.99492(12) 0.21106(12)
N3 N 1.00857(8) 1.00474(14) 0.38304(14)
H1 H 1.0292(13) 1.0034(14) 0.452(2)
H2 H 1.0320(13) 1.0018(14) 0.353(2)
C1 C 0.79835(8) 0.99096(12) 0.19133(14)
C2 C 0.83648(9) 0.99534(13) 0.30336(15)
H3 H 0.8123 0.9959 0.3352
C3 C 0.93884(8) 0.99910(12) 0.31942(14)
C4 C 0.83777(9) 0.99066(14) 0.15010(15)
H4 H 0.8145 0.9873 0.0749
C5 C 0.72043(8) 0.98542(13) 0.11973(14)
C6 C 0.68778(8) 0.89574(14) 0.07995(14)
C7 C 0.72500(10) 0.80804(15) 0.10433(17)
H5 H 0.7734 0.8092 0.1494
C8 C 0.69189(13) 0.72265(17) 0.0638(2)
H6 H 0.7179 0.6664 0.0809
C9 C 0.61906(14) 0.7177(2) -0.0036(2)
H7 H 0.5971 0.6585 -0.0308
C10 C 0.58091(12) 0.79823(19) -0.0290(2)
H8 H 0.5326 0.7939 -0.0735
C11 C 0.61296(9) 0.89026(16) 0.01076(16)
C12 C 0.57417(10) 0.97483(16) -0.01623(18)
H9 H 0.5258 0.9714 -0.0610
C13 C 0.60605(9) 1.06354(16) 0.02207(16)
C14 C 0.56614(11) 1.14988(19) -0.0068(2)
H10 H 0.5178 1.1464 -0.0526
C15 C 0.59707(13) 1.2365(2) 0.0311(2)
H11 H 0.5701 1.2919 0.0122
C16 C 0.67030(12) 1.24315(18) 0.0993(2)
H12 H 0.6913 1.3032 0.1243
C17 C 0.71052(10) 1.16289(15) 0.12884(19)
H13 H 0.7587 1.1690 0.1744
C18 C 0.68058(8) 1.06997(14) 0.09170(14)
N1 N 0.40582(7) 0.50118(11) 0.86875(11)
N2 N 0.40716(7) 0.50508(12) 0.71106(12)
N3 N 0.50857(8) 0.49526(14) 0.88304(14)
H1 H 0.5292(13) 0.4966(14) 0.952(2)
H2 H 0.5320(13) 0.4982(14) 0.853(2)
C1 C 0.29835(8) 0.50904(12) 0.69133(14)
C2 C 0.33648(9) 0.50466(13) 0.80336(15)
H3 H 0.3123 0.5041 0.8352
C3 C 0.43884(8) 0.50090(12) 0.81942(14)
C4 C 0.33777(9) 0.50934(14) 0.65010(15)
H4 H 0.3145 0.5127 0.5749
C5 C 0.22043(8) 0.51458(13) 0.61973(14)
C6 C 0.18778(8) 0.60426(14) 0.57995(14)
C7 C 0.22500(10) 0.69196(15) 0.60433(17)
H5 H 0.2734 0.6908 0.6494
C8 C 0.19189(13) 0.77735(17) 0.5638(2)
H6 H 0.2179 0.8336 0.5809
C9 C 0.11906(14) 0.7823(2) 0.4964(2)
H7 H 0.0971 0.8415 0.4692
C10 C 0.08091(12) 0.70177(19) 0.4710(2)
H8 H 0.0326 0.7061 0.4265
C11 C 0.11296(9) 0.60974(16) 0.51076(16)
C12 C 0.07417(10) 0.52517(16) 0.48377(18)
H9 H 0.0258 0.5286 0.4390
C13 C 0.10605(9) 0.43646(16) 0.52207(16)
C14 C 0.06614(11) 0.35012(19) 0.4932(2)
H10 H 0.0178 0.3536 0.4474
C15 C 0.09707(13) 0.2635(2) 0.5311(2)
H11 H 0.0701 0.2081 0.5122
C16 C 0.17030(12) 0.25685(18) 0.5993(2)
H12 H 0.1913 0.1968 0.6243
C17 C 0.21052(10) 0.33711(15) 0.62884(19)
H13 H 0.2587 0.3310 0.6744
C18 C 0.18058(8) 0.43003(14) 0.59170(14)
N1 N 0.90582(7) 0.00118(11) 0.86875(11)
N2 N 0.90716(7) 0.00508(12) 0.71106(12)
N3 N 1.00857(8) -0.00474(14) 0.88304(14)
H1 H 1.0292(13) -0.0034(14) 0.952(2)
H2 H 1.0320(13) -0.0018(14) 0.853(2)
C1 C 0.79835(8) 0.00904(12) 0.69133(14)
C2 C 0.83648(9) 0.00466(13) 0.80336(15)
H3 H 0.8123 0.0041 0.8352
C3 C 0.93884(8) 0.00090(12) 0.81942(14)
C4 C 0.83777(9) 0.00934(14) 0.65010(15)
H4 H 0.8145 0.0127 0.5749
C5 C 0.72043(8) 0.01458(13) 0.61973(14)
C6 C 0.68778(8) 0.10426(14) 0.57995(14)
C7 C 0.72500(10) 0.19196(15) 0.60433(17)
H5 H 0.7734 0.1908 0.6494
C8 C 0.69189(13) 0.27735(17) 0.5638(2)
H6 H 0.7179 0.3336 0.5809
C9 C 0.61906(14) 0.2823(2) 0.4964(2)
H7 H 0.5971 0.3415 0.4692
C10 C 0.58091(12) 0.20177(19) 0.4710(2)
H8 H 0.5326 0.2061 0.4265
C11 C 0.61296(9) 0.10974(16) 0.51076(16)
C12 C 0.57417(10) 0.02517(16) 0.48377(18)
H9 H 0.5258 0.0286 0.4390
C13 C 0.60605(9) -0.06354(16) 0.52207(16)
C14 C 0.56614(11) -0.14988(19) 0.4932(2)
H10 H 0.5178 -0.1464 0.4474
C15 C 0.59707(13) -0.2365(2) 0.5311(2)
H11 H 0.5701 -0.2919 0.5122
C16 C 0.67030(12) -0.24315(18) 0.5993(2)
H12 H 0.6913 -0.3032 0.6243
C17 C 0.71052(10) -0.16289(15) 0.62884(19)
H13 H 0.7587 -0.1690 0.6744
C18 C 0.68058(8) -0.06997(14) 0.59170(14)
N1 N 0.59418(7) 0.50118(11) 0.63125(11)
N2 N 0.59284(7) 0.50508(12) 0.78894(12)
N3 N 0.49143(8) 0.49526(14) 0.61696(14)
H1 H 0.4708(13) 0.4966(14) 0.548(2)
H2 H 0.4680(13) 0.4982(14) 0.647(2)
C1 C 0.70165(8) 0.50904(12) 0.80867(14)
C2 C 0.66352(9) 0.50466(13) 0.69664(15)
H3 H 0.6877 0.5041 0.6648
C3 C 0.56116(8) 0.50090(12) 0.68058(14)
C4 C 0.66223(9) 0.50934(14) 0.84990(15)
H4 H 0.6855 0.5127 0.9251
C5 C 0.77957(8) 0.51458(13) 0.88027(14)
C6 C 0.81222(8) 0.60426(14) 0.92005(14)
C7 C 0.77500(10) 0.69196(15) 0.89567(17)
H5 H 0.7266 0.6908 0.8506
C8 C 0.80811(13) 0.77735(17) 0.9362(2)
H6 H 0.7821 0.8336 0.9191
C9 C 0.88094(14) 0.7823(2) 1.0036(2)
H7 H 0.9029 0.8415 1.0308
C10 C 0.91909(12) 0.70177(19) 1.0290(2)
H8 H 0.9674 0.7061 1.0735
C11 C 0.88704(9) 0.60974(16) 0.98924(16)
C12 C 0.92583(10) 0.52517(16) 1.01623(18)
H9 H 0.9742 0.5286 1.0610
C13 C 0.89395(9) 0.43646(16) 0.97793(16)
C14 C 0.93386(11) 0.35012(19) 1.0068(2)
H10 H 0.9822 0.3536 1.0526
C15 C 0.90293(13) 0.2635(2) 0.9689(2)
H11 H 0.9299 0.2081 0.9878
C16 C 0.82970(12) 0.25685(18) 0.9007(2)
H12 H 0.8087 0.1968 0.8757
C17 C 0.78948(10) 0.33711(15) 0.87116(19)
H13 H 0.7413 0.3310 0.8256
C18 C 0.81942(8) 0.43003(14) 0.90830(14)
N1 N 0.09418(7) 0.00118(11) 0.63125(11)
N2 N 0.09284(7) 0.00508(12) 0.78894(12)
N3 N -0.00857(8) -0.00474(14) 0.61696(14)
H1 H -0.0292(13) -0.0034(14) 0.548(2)
H2 H -0.0320(13) -0.0018(14) 0.647(2)
C1 C 0.20165(8) 0.00904(12) 0.80867(14)
C2 C 0.16352(9) 0.00466(13) 0.69664(15)
H3 H 0.1877 0.0041 0.6648
C3 C 0.06116(8) 0.00090(12) 0.68058(14)
C4 C 0.16223(9) 0.00934(14) 0.84990(15)
H4 H 0.1855 0.0127 0.9251
C5 C 0.27957(8) 0.01458(13) 0.88027(14)
C6 C 0.31222(8) 0.10426(14) 0.92005(14)
C7 C 0.27500(10) 0.19196(15) 0.89567(17)
H5 H 0.2266 0.1908 0.8506
C8 C 0.30811(13) 0.27735(17) 0.9362(2)
H6 H 0.2821 0.3336 0.9191
C9 C 0.38094(14) 0.2823(2) 1.0036(2)
H7 H 0.4029 0.3415 1.0308
C10 C 0.41909(12) 0.20177(19) 1.0290(2)
H8 H 0.4674 0.2061 1.0735
C11 C 0.38704(9) 0.10974(16) 0.98924(16)
C12 C 0.42583(10) 0.02517(16) 1.01623(18)
H9 H 0.4742 0.0286 1.0610
C13 C 0.39395(9) -0.06354(16) 0.97793(16)
C14 C 0.43386(11) -0.14988(19) 1.0068(2)
H10 H 0.4822 -0.1464 1.0526
C15 C 0.40293(13) -0.2365(2) 0.9689(2)
H11 H 0.4299 -0.2919 0.9878
C16 C 0.32970(12) -0.24315(18) 0.9007(2)
H12 H 0.3087 -0.3032 0.8757
C17 C 0.28948(10) -0.16289(15) 0.87116(19)
H13 H 0.2413 -0.1690 0.8256
C18 C 0.31942(8) -0.06997(14) 0.90830(14)
N1 N 0.59418(7) 0.49882(11) 0.13125(11)
N2 N 0.59284(7) 0.49492(12) 0.28894(12)
N3 N 0.49143(8) 0.50474(14) 0.11696(14)
H1 H 0.4708(13) 0.5034(14) 0.048(2)
H2 H 0.4680(13) 0.5018(14) 0.147(2)
C1 C 0.70165(8) 0.49096(12) 0.30867(14)
C2 C 0.66352(9) 0.49534(13) 0.19664(15)
H3 H 0.6877 0.4959 0.1648
C3 C 0.56116(8) 0.49910(12) 0.18058(14)
C4 C 0.66223(9) 0.49066(14) 0.34990(15)
H4 H 0.6855 0.4873 0.4251
C5 C 0.77957(8) 0.48542(13) 0.38027(14)
C6 C 0.81222(8) 0.39574(14) 0.42005(14)
C7 C 0.77500(10) 0.30804(15) 0.39567(17)
H5 H 0.7266 0.3092 0.3506
C8 C 0.80811(13) 0.22265(17) 0.4362(2)
H6 H 0.7821 0.1664 0.4191
C9 C 0.88094(14) 0.2177(2) 0.5036(2)
H7 H 0.9029 0.1585 0.5308
C10 C 0.91909(12) 0.29823(19) 0.5290(2)
H8 H 0.9674 0.2939 0.5735
C11 C 0.88704(9) 0.39026(16) 0.48924(16)
C12 C 0.92583(10) 0.47483(16) 0.51623(18)
H9 H 0.9742 0.4714 0.5610
C13 C 0.89395(9) 0.56354(16) 0.47793(16)
C14 C 0.93386(11) 0.64988(19) 0.5068(2)
H10 H 0.9822 0.6464 0.5526
C15 C 0.90293(13) 0.7365(2) 0.4689(2)
H11 H 0.9299 0.7919 0.4878
C16 C 0.82970(12) 0.74315(18) 0.4007(2)
H12 H 0.8087 0.8032 0.3757
C17 C 0.78948(10) 0.66289(15) 0.37116(19)
H13 H 0.7413 0.6690 0.3256
C18 C 0.81942(8) 0.56997(14) 0.40830(14)
N1 N 0.09418(7) 0.99882(11) 0.13125(11)
N2 N 0.09284(7) 0.99492(12) 0.28894(12)
N3 N -0.00857(8) 1.00474(14) 0.11696(14)
H1 H -0.0292(13) 1.0034(14) 0.048(2)
H2 H -0.0320(13) 1.0018(14) 0.147(2)
C1 C 0.20165(8) 0.99096(12) 0.30867(14)
C2 C 0.16352(9) 0.99534(13) 0.19664(15)
H3 H 0.1877 0.9959 0.1648
C3 C 0.06116(8) 0.99910(12) 0.18058(14)
C4 C 0.16223(9) 0.99066(14) 0.34990(15)
H4 H 0.1855 0.9873 0.4251
C5 C 0.27957(8) 0.98542(13) 0.38027(14)
C6 C 0.31222(8) 0.89574(14) 0.42005(14)
C7 C 0.27500(10) 0.80804(15) 0.39567(17)
H5 H 0.2266 0.8092 0.3506
C8 C 0.30811(13) 0.72265(17) 0.4362(2)
H6 H 0.2821 0.6664 0.4191
C9 C 0.38094(14) 0.7177(2) 0.5036(2)
H7 H 0.4029 0.6585 0.5308
C10 C 0.41909(12) 0.79823(19) 0.5290(2)
H8 H 0.4674 0.7939 0.5735
C11 C 0.38704(9) 0.89026(16) 0.48924(16)
C12 C 0.42583(10) 0.97483(16) 0.51623(18)
H9 H 0.4742 0.9714 0.5610
C13 C 0.39395(9) 1.06354(16) 0.47793(16)
C14 C 0.43386(11) 1.14988(19) 0.5068(2)
H10 H 0.4822 1.1464 0.5526
C15 C 0.40293(13) 1.2365(2) 0.4689(2)
H11 H 0.4299 1.2919 0.4878
C16 C 0.32970(12) 1.24315(18) 0.4007(2)
H12 H 0.3087 1.3032 0.3757
C17 C 0.28948(10) 1.16289(15) 0.37116(19)
H13 H 0.2413 1.1690 0.3256
C18 C 0.31942(8) 1.06997(14) 0.40830(14)

#END
