
#######################################################################
#
#                 Cambridge Crystallographic Data Centre
#                                CCDC 
#
#######################################################################
#
# If this CIF has been generated from an entry in the Cambridge 
# Structural Database, then it will include bibliographic, chemical, 
# crystal, experimental, refinement or atomic coordinate data resulting 
# from the CCDC's data processing and validation procedures.
#
#######################################################################

data_ABIGAW
_symmetry_cell_setting           monoclinic
_symmetry_space_group_name_H-M   'P 21'
_symmetry_Int_Tables_number      4
_space_group_name_Hall           'P 2yb'
loop_
_symmetry_equiv_pos_site_id
_symmetry_equiv_pos_as_xyz
1 x,y,z
2 -x,1/2+y,-z
_cell_length_a                   10.608(2)
_cell_length_b                   5.962(2)
_cell_length_c                   13.638(3)
_cell_angle_alpha                90
_cell_angle_beta                 100.12
_cell_angle_gamma                90
_cell_volume                     849.115
loop_
_atom_site_label
_atom_site_type_symbol
_atom_site_fract_x
_atom_site_fract_y
_atom_site_fract_z
F1 F -0.35566(15) 0.0322(3) 0.03590(13)
O1 O 0.49275(12) 0.2155(4) 0.37885(12)
C1 C -0.13389(17) 0.3300(4) 0.04622(12)
H1 H -0.0740 0.4086 0.0123
H2 H -0.1152 0.1710 0.0442
C2 C -0.2693(2) 0.3711(5) -0.00991(14)
H3 H -0.2842 0.5313 -0.0164
H4 H -0.2774 0.3086 -0.0764
C3 C -0.36916(19) 0.2683(5) 0.04159(17)
H5 H -0.4545 0.3126 0.0072
C4 C -0.35268(17) 0.3354(5) 0.14939(16)
H6 H -0.4129 0.2521 0.1812
H7 H -0.3721 0.4937 0.1537
C5 C -0.21660(14) 0.2914(4) 0.20493(13)
H8 H -0.2024 0.1296 0.2003
C6 C -0.20163(17) 0.3445(5) 0.31511(14)
H9 H -0.2668 0.2652 0.3432
H10 H -0.2141 0.5040 0.3237
C7 C -0.06985(16) 0.2771(5) 0.37045(12)
H11 H -0.0630 0.1149 0.3705
H12 H -0.0607 0.3263 0.4391
C8 C 0.03865(14) 0.3764(3) 0.32439(11)
H13 H 0.0388 0.5396 0.3331
C9 C 0.01876(14) 0.3232(3) 0.21158(11)
H14 H 0.0164 0.1593 0.2062
C10 C -0.11248(15) 0.4067(3) 0.15579(11)
C11 C 0.13444(16) 0.3994(4) 0.16543(13)
H15 H 0.1228 0.3473 0.0971
H16 H 0.1364 0.5621 0.1642
C12 C 0.26278(16) 0.3139(4) 0.22104(13)
H17 H 0.2662 0.1520 0.2150
H18 H 0.3316 0.3773 0.1915
C13 C 0.28100(15) 0.3779(3) 0.33006(13)
C14 C 0.16799(14) 0.2851(3) 0.37382(11)
H19 H 0.1655 0.1238 0.3596
C15 C 0.21173(18) 0.3064(5) 0.48667(13)
H20 H 0.1643 0.2055 0.5226
H21 H 0.2019 0.4588 0.5090
C16 C 0.35365(18) 0.2394(5) 0.49993(14)
H22 H 0.4052 0.3342 0.5492
H23 H 0.3651 0.0844 0.5213
C17 C 0.39153(16) 0.2702(4) 0.39974(14)
C18 C -0.1218(2) 0.6624(4) 0.15855(16)
H24 H -0.2040 0.7091 0.1233
H25 H -0.0557 0.7269 0.1276
H26 H -0.1115 0.7119 0.2265
C19 C 0.3007(2) 0.6316(4) 0.3446(2)
H27 H 0.3724 0.6786 0.3154
H28 H 0.3170 0.6657 0.4145
H29 H 0.2251 0.7093 0.3131
F1 F 1.35566(15) 0.5322(3) 0.96410(13)
O1 O 0.50725(12) 0.7155(4) 0.62115(12)
C1 C 1.13389(17) 0.8300(4) 0.95378(12)
H1 H 1.0740 0.9086 0.9877
H2 H 1.1152 0.6710 0.9558
C2 C 1.2693(2) 0.8711(5) 1.00991(14)
H3 H 1.2842 1.0313 1.0164
H4 H 1.2774 0.8086 1.0764
C3 C 1.36916(19) 0.7683(5) 0.95841(17)
H5 H 1.4545 0.8126 0.9928
C4 C 1.35268(17) 0.8354(5) 0.85061(16)
H6 H 1.4129 0.7521 0.8188
H7 H 1.3721 0.9937 0.8463
C5 C 1.21660(14) 0.7914(4) 0.79507(13)
H8 H 1.2024 0.6296 0.7997
C6 C 1.20163(17) 0.8445(5) 0.68489(14)
H9 H 1.2668 0.7652 0.6568
H10 H 1.2141 1.0040 0.6763
C7 C 1.06985(16) 0.7771(5) 0.62955(12)
H11 H 1.0630 0.6149 0.6295
H12 H 1.0607 0.8263 0.5609
C8 C 0.96135(14) 0.8764(3) 0.67561(11)
H13 H 0.9612 1.0396 0.6669
C9 C 0.98124(14) 0.8232(3) 0.78842(11)
H14 H 0.9836 0.6593 0.7938
C10 C 1.11248(15) 0.9067(3) 0.84421(11)
C11 C 0.86556(16) 0.8994(4) 0.83457(13)
H15 H 0.8772 0.8473 0.9029
H16 H 0.8636 1.0621 0.8358
C12 C 0.73722(16) 0.8139(4) 0.77896(13)
H17 H 0.7338 0.6520 0.7850
H18 H 0.6684 0.8773 0.8085
C13 C 0.71900(15) 0.8779(3) 0.66994(13)
C14 C 0.83201(14) 0.7851(3) 0.62618(11)
H19 H 0.8345 0.6238 0.6404
C15 C 0.78827(18) 0.8064(5) 0.51333(13)
H20 H 0.8357 0.7055 0.4774
H21 H 0.7981 0.9588 0.4910
C16 C 0.64635(18) 0.7394(5) 0.50007(14)
H22 H 0.5948 0.8342 0.4508
H23 H 0.6349 0.5844 0.4787
C17 C 0.60847(16) 0.7702(4) 0.60026(14)
C18 C 1.1218(2) 1.1624(4) 0.84145(16)
H24 H 1.2040 1.2091 0.8767
H25 H 1.0557 1.2269 0.8724
H26 H 1.1115 1.2119 0.7735
C19 C 0.6993(2) 1.1316(4) 0.6554(2)
H27 H 0.6276 1.1786 0.6846
H28 H 0.6830 1.1657 0.5855
H29 H 0.7749 1.2093 0.6869

#END
