./ABIKUS_from_POSCAR.cif_generated_by_CrystalShift
_symmetry_cell_setting triclinic
_symmetry_space_group_name_H-M 'P 1'
loop_
_symmetry_equiv_pos_site_id
_symmetry_equiv_pos_as_xyz
1 x,y,z
_cell_length_a 9.019500
_cell_length_b 11.780500
_cell_length_c 11.533700
_cell_angle_alpha 90.000000
_cell_angle_beta 99.592000
_cell_angle_gamma 90.000000
_cell_volume 1208.370902
loop_
_atom_site_label
_atom_site_type_symbol
_atom_site_fract_x
_atom_site_fract_y
_atom_site_fract_z
H1 H 0.923000 0.574200 0.347000
H2 H 1.386100 0.323000 0.348500
H3 H 1.428000 0.383500 0.470600
H4 H 1.518300 0.410900 0.369000
H5 H 0.429000 -0.142400 0.657100
H6 H 0.577000 -0.074200 0.653000
H7 H 1.304800 0.497300 0.260700
H8 H 0.153100 -0.058000 0.616900
H9 H 0.195200 0.002700 0.739300
H10 H 1.346900 0.558000 0.383100
H11 H 0.613900 0.323000 0.151500
H12 H -0.018300 0.089100 0.631000
H13 H 0.072000 0.116500 0.529400
H14 H 0.113900 0.177000 0.651500
H15 H 0.572000 0.383500 0.029400
H16 H 0.481700 0.410900 0.131000
H17 H 0.695200 0.497300 0.239300
H18 H 0.653100 0.558000 0.116900
H19 H 1.077000 0.574200 0.153000
H20 H 0.846900 -0.058000 0.883100
H21 H 0.804800 0.002700 0.760700
H22 H 0.929000 0.642400 0.157100
H23 H 1.018300 0.089100 0.869000
H24 H 0.928000 0.116500 0.970600
H25 H 0.886100 0.177000 0.848500
H26 H 0.571000 -0.142400 0.842900
H27 H 0.423000 -0.074200 0.847000
H28 H -0.077000 0.574200 0.347000
H29 H 0.071000 0.642400 0.342900
H30 H 0.386100 0.323000 0.348500
H31 H 0.428000 0.383500 0.470600
H32 H -0.071000 0.357600 0.657100
H33 H 0.077000 0.425800 0.653000
H34 H 0.518300 0.410900 0.369000
H35 H -0.346900 0.442000 0.616900
H36 H -0.304800 0.502700 0.739300
H37 H 0.304800 0.497300 0.260700
H38 H 0.346900 0.558000 0.383100
H39 H -0.518300 0.589100 0.631000
H40 H -0.428000 0.616500 0.529400
H41 H -0.386100 0.677000 0.651500
H42 H -0.386100 0.323000 0.151500
H43 H -0.428000 0.383500 0.029400
H44 H -0.518300 0.410900 0.131000
H45 H -0.304800 0.497300 0.239300
H46 H -0.346900 0.558000 0.116900
H47 H 0.346900 0.442000 0.883100
H48 H 0.304800 0.502700 0.760700
H49 H 0.077000 0.574200 0.153000
H50 H 0.518300 0.589100 0.869000
H51 H 0.428000 0.616500 0.970600
H52 H 0.386100 0.677000 0.848500
H53 H 0.071000 0.357600 0.842900
H54 H -0.077000 0.425800 0.847000
H55 H -0.071000 0.642400 0.157100
H56 H 0.423000 1.074200 0.347000
H57 H 0.571000 1.142400 0.342900
H58 H 0.886100 0.823000 0.348500
H59 H 0.929000 0.357600 0.657100
H60 H 1.077000 0.425800 0.653000
H61 H 0.928000 0.883500 0.470600
H62 H 0.653100 0.442000 0.616900
H63 H 0.695200 0.502700 0.739300
H64 H 1.018300 0.910900 0.369000
H65 H 0.804800 0.997300 0.260700
H66 H 0.481700 0.589100 0.631000
H67 H 0.572000 0.616500 0.529400
H68 H 0.613900 0.677000 0.651500
H69 H 0.846900 1.058000 0.383100
H70 H 0.113900 0.823000 0.151500
H71 H 0.072000 0.883500 0.029400
H72 H -0.018300 0.910900 0.131000
H73 H 0.195200 0.997300 0.239300
H74 H 1.346900 0.442000 0.883100
H75 H 1.304800 0.502700 0.760700
H76 H 0.153100 1.058000 0.116900
H77 H 1.518300 0.589100 0.869000
H78 H 1.428000 0.616500 0.970600
H79 H 1.386100 0.677000 0.848500
H80 H 1.071000 0.357600 0.842900
H81 H 0.923000 0.425800 0.847000
H82 H 0.577000 1.074200 0.153000
H83 H 0.429000 1.142400 0.157100
H84 H 1.071000 0.642400 0.342900
C85 C 0.482900 1.073340 0.183180
C86 C 0.688600 0.487400 0.155120
C87 C 0.482900 -0.073340 0.683180
C88 C 0.188600 0.987400 0.155120
C89 C 1.421000 0.607500 0.887100
C90 C 1.311400 0.512600 0.844880
C91 C 0.811400 0.012600 0.844880
C92 C 0.079000 0.892500 0.112900
C93 C 0.921000 0.107500 0.887100
C94 C 0.982900 0.573340 0.183180
C95 C 1.017100 0.426660 0.816820
C96 C 1.421000 0.392500 0.387100
C97 C 0.517100 1.073340 0.316820
C98 C 0.579000 0.392500 0.112900
C99 C 0.517100 -0.073340 0.816820
C100 C 0.811400 0.987400 0.344880
C101 C 0.188600 0.012600 0.655120
C102 C 0.579000 0.607500 0.612900
C103 C 0.921000 0.892500 0.387100
C104 C 0.079000 0.107500 0.612900
C105 C 0.688600 0.512600 0.655120
C106 C 0.982900 0.426660 0.683180
C107 C -0.017100 0.426660 0.683180
C108 C -0.311400 0.512600 0.655120
C109 C 1.311400 0.487400 0.344880
C110 C 0.421000 0.392500 0.387100
C111 C -0.421000 0.607500 0.612900
C112 C -0.017100 0.573340 0.183180
C113 C 0.311400 0.487400 0.344880
C114 C 0.421000 0.607500 0.887100
C115 C -0.311400 0.487400 0.155120
C116 C 0.311400 0.512600 0.844880
C117 C 0.017100 0.573340 0.316820
C118 C 1.017100 0.573340 0.316820
C119 C -0.421000 0.392500 0.112900
C120 C 0.017100 0.426660 0.816820
O121 O 0.619520 0.313560 0.838440
O122 O -0.119520 0.186440 0.161560
O123 O 1.119520 0.813560 0.838440
O124 O 0.119520 0.813560 0.838440
O125 O 0.880480 0.186440 0.161560
O126 O 0.119520 0.186440 0.338440
O127 O 0.619520 0.686440 0.338440
O128 O 0.880480 0.813560 0.661560
O129 O -0.119520 0.813560 0.661560
O130 O 1.119520 0.186440 0.338440
O131 O 0.380480 0.313560 0.661560
O132 O 0.380480 0.686440 0.161560
S133 S -0.127250 0.547150 0.620970
S134 S -0.127250 0.452850 0.120970
S135 S 1.127250 0.452850 0.379030
S136 S 0.627250 0.952850 0.379030
S137 S 0.127250 0.452850 0.379030
S138 S 0.872750 0.452850 0.120970
S139 S 1.127250 0.547150 0.879030
S140 S 0.372750 0.952850 0.120970
S141 S 0.872750 0.547150 0.620970
S142 S 0.372750 0.047150 0.620970
S143 S 0.127250 0.547150 0.879030
S144 S 0.627250 0.047150 0.879030
Cl145 Cl 0.832230 0.314980 0.380030
Cl146 Cl 0.332230 0.185020 0.880030
Cl147 Cl 0.332230 0.814980 0.380030
Cl148 Cl 0.667770 0.185020 0.619970
Cl149 Cl -0.167770 0.685020 0.880030
Cl150 Cl 1.167770 0.314980 0.119970
Cl151 Cl 0.167770 0.685020 0.619970
Cl152 Cl 0.667770 0.814980 0.119970
Cl153 Cl -0.167770 0.314980 0.380030
Cl154 Cl 1.167770 0.685020 0.619970
Cl155 Cl 0.832230 0.685020 0.880030
Cl156 Cl 0.167770 0.314980 0.119970
Mo157 Mo 0.500000 0.772450 0.250000
Mo158 Mo 0.000000 0.727550 0.750000
Mo159 Mo 1.000000 0.272450 0.250000
Mo160 Mo 1.000000 0.727550 0.750000
Mo161 Mo 0.000000 0.272450 0.250000
Mo162 Mo 0.500000 0.227550 0.750000

#END
