./ABIPIN_from_POSCAR.cif_generated_by_CrystalShift
_symmetry_cell_setting triclinic
_symmetry_space_group_name_H-M 'P 1'
loop_
_symmetry_equiv_pos_site_id
_symmetry_equiv_pos_as_xyz
1 x,y,z
_cell_length_a 5.632400
_cell_length_b 26.159400
_cell_length_c 9.313900
_cell_angle_alpha 90.000000
_cell_angle_beta 105.679600
_cell_angle_gamma 90.000000
_cell_volume 1321.245503
loop_
_atom_site_label
_atom_site_type_symbol
_atom_site_fract_x
_atom_site_fract_y
_atom_site_fract_z
H1 H 0.577500 1.000200 0.708900
H2 H 0.069900 0.348500 0.453300
H3 H 0.381200 0.159800 0.028000
H4 H 0.131800 0.273200 0.593700
H5 H 0.578100 0.099400 0.192400
H6 H 0.447800 0.217400 0.582200
H7 H 0.464000 0.087700 0.405100
H8 H 0.692200 0.234300 0.420400
H9 H 0.512800 0.096000 0.661400
H10 H 0.625900 0.308700 0.275600
H11 H 0.867600 0.135000 0.812700
H12 H 1.176600 0.162800 0.706700
H13 H 0.184600 0.407800 0.301000
H14 H 1.126800 0.154800 0.450200
H15 H 0.726500 0.282900 -0.086800
H16 H -0.120900 0.418000 0.083600
H17 H 0.138900 0.464100 0.514400
H18 H -0.282200 0.411900 -0.173200
H19 H 0.414800 0.454400 0.574400
H20 H -0.055000 0.372600 -0.318500
H21 H 1.093700 0.258500 0.086900
H22 H 0.336800 0.340300 -0.204500
H23 H -0.056100 0.527300 0.597500
H24 H 0.498700 0.344900 0.054500
H25 H -0.063400 0.491400 0.734400
H26 H 0.388700 0.476000 0.128100
H27 H 0.422500 0.500200 0.291100
H28 H -0.103500 0.685100 0.768900
H29 H 0.861100 -0.035900 0.485600
H30 H 0.842600 0.555300 0.089700
H31 H 0.567100 0.543900 0.040100
H32 H 0.585200 -0.045600 0.425600
H33 H -0.093700 0.758500 0.913100
H34 H 1.056100 0.027300 0.402500
H35 H 0.273500 0.782900 1.086800
H36 H 0.930100 0.848500 0.546700
H37 H 0.627100 0.733600 1.115000
H38 H 0.868200 0.773200 0.406300
H39 H 0.618800 0.659800 0.972000
H40 H 0.552200 0.717400 0.417800
H41 H 0.421900 0.599400 0.807600
H42 H 0.307800 0.734300 0.579600
H43 H 0.536000 0.587700 0.594900
H44 H 0.374100 0.808700 0.724400
H45 H 0.487200 0.596000 0.338600
H46 H 0.132400 0.635000 0.187300
H47 H 0.815400 0.907800 0.699000
H48 H -0.176600 0.662800 0.293300
H49 H -0.126800 0.654800 0.549800
H50 H 1.120900 0.918000 0.916400
H51 H 1.103500 0.185100 0.231100
H52 H 1.282200 0.911900 1.173200
H53 H 0.432900 1.043900 0.959900
H54 H 1.055000 0.872600 1.318500
H55 H 0.157400 1.055300 0.910300
H56 H 0.663200 0.840300 1.204500
H57 H 1.063400 -0.008600 0.265600
H58 H 0.501300 0.844900 0.945500
H59 H 0.372900 0.233600 -0.115000
H60 H 0.611300 0.976000 0.871900
C61 C 0.494800 0.980400 0.772000
C62 C 0.261900 1.007610 0.783900
C63 C 0.659800 0.858610 0.991100
C64 C 0.757100 0.855760 1.145400
C65 C 0.988900 0.875180 1.213500
C66 C 0.968100 0.018720 0.298100
C67 C 1.123400 0.898330 1.127200
C68 C 0.954200 0.194820 0.160800
C69 C -0.000800 0.643110 0.507600
C70 C 1.027700 0.901760 0.974500
C71 C -0.030400 0.647870 0.354600
C72 C 0.795500 0.881640 0.904200
C73 C 0.151700 0.631010 0.291200
C74 C 0.697600 0.886390 0.736200
C75 C 0.362700 0.608260 0.381200
C76 C 0.657900 0.836540 0.649500
C77 C 0.391700 0.603420 0.534100
C78 C 0.473500 0.801900 0.658800
C79 C 0.212600 0.621350 0.598500
C80 C 0.257300 0.616020 0.767600
C81 C 0.434100 0.757560 0.573000
C82 C 0.257400 0.664950 0.855200
C83 C 0.473500 0.679760 0.959100
C84 C 0.580300 0.747380 0.477600
C85 C 0.478200 0.723710 1.044600
C86 C 0.765900 0.780760 0.469600
C87 C 0.268900 0.753000 1.028100
C88 C 0.803800 0.825450 0.554200
C89 C 0.051300 0.738540 0.925000
C90 C 0.717100 -0.003190 0.297600
C91 C 0.045800 0.694820 0.839200
C92 C 0.738100 0.507610 0.216100
C93 C 0.031900 0.518720 0.701900
C94 C 0.505200 0.480400 0.228000
C95 C 0.340200 0.358610 0.008900
C96 C 0.282900 0.496810 0.702400
C97 C 0.242900 0.355760 -0.145400
C98 C 0.011100 0.375180 -0.213500
C99 C -0.123400 0.398330 -0.127200
C100 C 0.948700 0.238540 0.075000
C101 C -0.027700 0.401760 0.025500
C102 C 0.731100 0.253000 -0.028100
C103 C 1.000800 0.143110 0.492400
C104 C 0.204500 0.381640 0.095800
C105 C 1.030400 0.147870 0.645400
C106 C 0.302400 0.386390 0.263800
C107 C 0.848300 0.131010 0.708800
C108 C 0.342100 0.336540 0.350500
C109 C 0.637300 0.108260 0.618800
C110 C 0.526500 0.301900 0.341200
C111 C 0.608300 0.103420 0.465900
C112 C 0.565900 0.257560 0.427000
C113 C 0.787400 0.121350 0.401500
C114 C 0.742700 0.116020 0.232400
C115 C 0.419700 0.247380 0.522400
C116 C 0.742600 0.164950 0.144800
C117 C 0.526500 0.179760 0.040900
C118 C 0.234100 0.280760 0.530400
C119 C 0.521800 0.223710 -0.044600
C120 C 0.196200 0.325450 0.445800
N121 N 0.286800 1.039080 0.897200
N122 N 0.713200 0.539080 0.102800
N123 N 0.721700 -0.031370 0.416100
N124 N 0.278300 0.468630 0.583900
O125 O 0.133700 0.560150 0.975100
O126 O 0.323000 0.926380 0.522290
O127 O 0.529500 0.004640 0.196700
O128 O 0.470500 0.504640 0.803300
O129 O 0.937900 0.499360 0.307400
O130 O 0.062100 0.999360 0.692600
O131 O 0.866300 0.060150 0.024900
O132 O 0.677000 0.426380 0.477710
S133 S 0.395310 0.918780 0.688150
S134 S 0.025350 0.574260 0.814670
S135 S 0.604690 0.418780 0.311850
S136 S 0.974650 0.074260 0.185330

#END
