./ABIRUB_from_POSCAR.cif_generated_by_CrystalShift
_symmetry_cell_setting triclinic
_symmetry_space_group_name_H-M 'P 1'
loop_
_symmetry_equiv_pos_site_id
_symmetry_equiv_pos_as_xyz
1 x,y,z
_cell_length_a 27.495000
_cell_length_b 7.399800
_cell_length_c 16.226500
_cell_angle_alpha 90.000000
_cell_angle_beta 115.411000
_cell_angle_gamma 90.000000
_cell_volume 2982.002048
loop_
_atom_site_label
_atom_site_type_symbol
_atom_site_fract_x
_atom_site_fract_y
_atom_site_fract_z
H1 H 0.427900 0.286300 0.842500
H2 H 0.416600 0.248700 0.929900
H3 H 0.394600 0.502400 0.978700
H4 H 0.844400 -0.264600 0.463800
H5 H 0.277900 0.415000 0.535100
H6 H 0.782500 -0.357600 0.321800
H7 H 0.220300 0.653300 0.528800
H8 H 0.234700 0.813100 0.658800
H9 H 0.365300 -0.163300 0.634100
H10 H 0.309500 0.056900 0.649800
H11 H 0.551700 -0.281900 0.667000
H12 H 0.918900 0.058600 0.171600
H13 H 0.569700 -0.138200 0.611700
H14 H 0.973100 0.275900 0.149900
H15 H 0.520100 -0.271000 0.558200
H16 H 0.473100 0.224100 0.649900
H17 H 0.418900 0.441400 0.671600
H18 H 1.020100 0.771000 0.058200
H19 H 1.069700 0.638200 0.111700
H20 H 1.051700 0.781900 0.167000
H21 H 0.282500 0.857600 0.821800
H22 H 0.809500 0.443100 0.149800
H23 H 0.344400 0.764600 0.963800
H24 H 0.865300 0.663300 0.134100
H25 H 0.572100 0.286300 0.657500
H26 H 0.734700 -0.313100 0.158800
H27 H 0.623600 0.171000 0.667800
H28 H 0.720300 -0.153300 0.028800
H29 H 0.583400 0.248700 0.570100
H30 H 0.777900 0.085000 0.035100
H31 H 0.605400 0.502400 0.521300
H32 H 0.894600 -0.002400 0.478700
H33 H 0.722100 0.415000 0.964900
H34 H 0.779700 0.653300 0.971200
H35 H 0.916600 0.251300 0.429900
H36 H 0.876400 0.329000 0.332200
H37 H 0.927900 0.213700 0.342500
H38 H 0.765300 0.813100 0.841200
H39 H 0.634700 -0.163300 0.865900
H40 H 0.690500 0.056900 0.850200
H41 H 0.155600 -0.264600 0.036200
H42 H 0.448300 -0.281900 0.833000
H43 H 0.217500 -0.357600 0.178200
H44 H 0.430300 -0.138200 0.888300
H45 H 0.479900 -0.271000 0.941800
H46 H 0.526900 0.224100 0.850100
H47 H 0.581100 0.441400 0.828400
H48 H 0.717500 0.857600 0.678200
H49 H 0.081100 0.058600 0.328400
H50 H 0.655600 0.764600 0.536200
H51 H 0.026900 0.275900 0.350100
H52 H 0.927900 0.786300 0.842500
H53 H 0.876400 0.671000 0.832200
H54 H 0.916600 0.748700 0.929900
H55 H -0.020100 0.771000 0.441800
H56 H -0.069700 0.638200 0.388300
H57 H -0.051700 0.781900 0.333000
H58 H 0.894600 1.002400 0.978700
H59 H 0.190500 0.443100 0.350200
H60 H 0.777900 0.915000 0.535100
H61 H 0.134700 0.663300 0.365900
H62 H 0.720300 1.153300 0.528800
H63 H 0.265300 -0.313100 0.341200
H64 H 0.734700 1.313100 0.658800
H65 H 0.279700 -0.153300 0.471200
H66 H 0.865300 0.336700 0.634100
H67 H 0.222100 0.085000 0.464900
H68 H 0.809500 0.556900 0.649800
H69 H 0.105400 -0.002400 0.021300
H70 H 1.051700 0.218100 0.667000
H71 H 1.069700 0.361800 0.611700
H72 H 0.083400 0.251300 0.070100
H73 H 0.123600 0.329000 0.167800
H74 H 0.072100 0.213700 0.157500
H75 H 1.020100 0.229000 0.558200
H76 H 0.973100 0.724100 0.649900
H77 H 0.918900 0.941400 0.671600
H78 H 0.344400 0.235400 0.463800
H79 H 0.782500 1.357600 0.821800
H80 H 0.282500 0.142400 0.321800
H81 H 0.844400 1.264600 0.963800
H82 H 0.072100 0.786300 0.657500
H83 H 0.123600 0.671000 0.667800
H84 H 0.083400 0.748700 0.570100
H85 H 0.105400 1.002400 0.521300
H86 H 0.418900 0.558600 0.171600
H87 H 0.222100 0.915000 0.964900
H88 H 0.473100 0.775900 0.149900
H89 H 0.279700 1.153300 0.971200
H90 H 0.265300 1.313100 0.841200
H91 H 0.134700 0.336700 0.865900
H92 H 0.520100 1.271000 0.058200
H93 H 0.569700 1.138200 0.111700
H94 H 0.551700 1.281900 0.167000
H95 H 0.190500 0.556900 0.850200
H96 H 0.309500 0.943100 0.149800
H97 H -0.051700 0.218100 0.833000
H98 H 0.365300 1.163300 0.134100
H99 H -0.069700 0.361800 0.888300
H100 H 0.234700 0.186900 0.158800
H101 H -0.020100 0.229000 0.941800
H102 H 0.220300 0.346700 0.028800
H103 H 0.026900 0.724100 0.850100
H104 H 0.277900 0.585000 0.035100
H105 H 0.081100 0.941400 0.828400
H106 H 0.394600 0.497600 0.478700
H107 H 0.217500 1.357600 0.678200
H108 H 0.155600 1.264600 0.536200
H109 H 0.416600 0.751300 0.429900
H110 H 0.376400 0.829000 0.332200
H111 H 0.427900 0.713700 0.342500
H112 H 0.572100 0.713700 0.157500
H113 H 0.623600 0.829000 0.167800
H114 H 0.583400 0.751300 0.070100
H115 H 0.655600 0.235400 0.036200
H116 H 0.605400 0.497600 0.021300
H117 H 0.717500 0.142400 0.178200
H118 H 0.722100 0.585000 0.464900
H119 H 0.779700 0.346700 0.471200
H120 H 0.765300 0.186900 0.341200
H121 H 0.634700 1.163300 0.365900
H122 H 0.690500 0.943100 0.350200
H123 H 0.581100 0.558600 0.328400
H124 H 0.448300 1.281900 0.333000
H125 H 0.526900 0.775900 0.350100
H126 H 0.430300 1.138200 0.388300
H127 H 0.479900 1.271000 0.441800
H128 H 0.376400 0.171000 0.832200
C129 C 0.540620 1.135000 0.371180
C130 C 0.575140 0.991700 0.359580
C131 C 0.559810 0.810600 0.348910
C132 C 0.656830 0.909200 0.348650
C133 C 0.592230 0.681400 0.336580
C134 C 0.623940 1.040100 0.359070
C135 C 0.641230 0.728600 0.336000
C136 C 0.743430 0.288700 0.337620
C137 C 0.677100 0.583500 0.328790
C138 C 0.751270 0.380300 0.414460
C139 C 0.669720 0.497400 0.245210
C140 C 0.717250 0.525300 0.410100
C141 C 0.702800 0.343500 0.251580
C142 C 0.629490 0.458300 0.080570
C143 C 0.696320 0.247100 0.172720
C144 C 0.632990 0.556700 0.154870
C145 C 0.600140 0.727600 0.135920
C146 C 0.660110 0.302400 0.088960
C147 C 0.399860 0.272400 0.864080
C148 C 0.367010 0.443300 0.845130
C149 C 0.839890 -0.197600 0.411040
C150 C 0.370510 0.541700 0.919430
C151 C 0.160110 1.197600 0.588960
C152 C 0.399860 0.727600 0.364080
C153 C 0.196320 1.252900 0.672720
C154 C 0.367010 0.556700 0.345130
C155 C 0.202800 1.156500 0.751580
C156 C 0.169720 1.002600 0.745210
C157 C 0.177100 0.916500 0.828790
C158 C 0.141230 0.771400 0.836000
C159 C 0.092230 0.818600 0.836580
C160 C 0.370510 0.458300 0.419430
C161 C 0.059810 0.689400 0.848910
C162 C 0.282750 0.525300 0.089900
C163 C 0.075140 0.508300 0.859580
C164 C 0.040620 0.365000 0.871180
C165 C -0.038920 0.299300 0.885790
C166 C 0.248730 0.380300 0.085540
C167 C 0.256570 0.288700 0.162380
C168 C 0.376060 1.040100 0.140930
C169 C 0.156830 0.590800 0.848650
C170 C 0.343170 0.909200 0.151350
C171 C 0.123940 0.459900 0.859070
C172 C 0.538920 1.200700 0.114210
C173 C 0.243430 1.211300 0.837620
C174 C 0.459380 1.135000 0.128820
C175 C 0.251270 1.119700 0.914460
C176 C 0.424860 0.991700 0.140420
C177 C 0.217250 0.974700 0.910100
C178 C 0.440190 0.810600 0.151090
C179 C 0.129490 1.041700 0.580570
C180 C 0.407770 0.681400 0.163420
C181 C 0.132990 0.943300 0.654870
C182 C 0.100140 0.772400 0.635920
C183 C 0.358770 0.728600 0.164000
C184 C 0.322900 0.583500 0.171210
C185 C 0.330280 0.497400 0.254790
C186 C 0.803680 -0.252900 0.327280
C187 C 0.282750 0.474700 0.589900
C188 C 0.839890 1.197600 0.911040
C189 C 0.297200 0.343500 0.248420
C190 C 0.803680 1.252900 0.827280
C191 C 0.303680 0.247100 0.327280
C192 C 0.797200 1.156500 0.748420
C193 C 0.830280 1.002600 0.754790
C194 C 0.822900 0.916500 0.671210
C195 C 0.858770 0.771400 0.664000
C196 C 0.907770 0.818600 0.663420
C197 C 0.339890 0.302400 0.411040
C198 C 0.940190 0.689400 0.651090
C199 C 0.797200 -0.156500 0.248420
C200 C 0.924860 0.508300 0.640420
C201 C 0.959380 0.365000 0.628820
C202 C 1.038920 0.299300 0.614210
C203 C 0.248730 0.619700 0.585540
C204 C 0.100140 0.227600 0.135920
C205 C 0.132990 0.056700 0.154870
C206 C 0.843170 0.590800 0.651350
C207 C 0.129490 -0.041700 0.080570
C208 C 0.876060 0.459900 0.640930
C209 C 0.217250 0.025300 0.410100
C210 C 0.756570 1.211300 0.662380
C211 C 0.251270 -0.119700 0.414460
C212 C 0.748730 1.119700 0.585540
C213 C 0.243430 -0.211300 0.337620
C214 C 0.782750 0.974700 0.589900
C215 C 0.123940 0.540100 0.359070
C216 C 0.870510 1.041700 0.919430
C217 C 0.156830 0.409200 0.348650
C218 C 0.867010 0.943300 0.845130
C219 C 0.899860 0.772400 0.864080
C220 C -0.038920 0.700700 0.385790
C221 C 0.040620 0.635000 0.371180
C222 C 0.075140 0.491700 0.359580
C223 C 0.830280 -0.002600 0.254790
C224 C 0.256570 0.711300 0.662380
C225 C 0.660110 0.697600 0.588960
C226 C 0.059810 0.310600 0.348910
C227 C 0.696320 0.752900 0.672720
C228 C 0.092230 0.181400 0.336580
C229 C 0.702800 0.656500 0.751580
C230 C 0.669720 0.502600 0.745210
C231 C 0.677100 0.416500 0.828790
C232 C 0.641230 0.271400 0.836000
C233 C 0.592230 0.318600 0.836580
C234 C 0.141230 0.228600 0.336000
C235 C 0.559810 0.189400 0.848910
C236 C 0.177100 0.083500 0.328790
C237 C 0.575140 0.008300 0.859580
C238 C 0.540620 -0.135000 0.871180
C239 C 0.461080 -0.200700 0.885790
C240 C 0.169720 -0.002600 0.245210
C241 C 0.202800 -0.156500 0.251580
C242 C 0.196320 -0.252900 0.172720
C243 C 0.656830 0.090800 0.848650
C244 C 0.160110 -0.197600 0.088960
C245 C 0.623940 -0.040100 0.859070
C246 C 0.822900 0.083500 0.171210
C247 C 0.743430 0.711300 0.837620
C248 C 0.376060 -0.040100 0.640930
C249 C 0.751270 0.619700 0.914460
C250 C 0.899860 0.227600 0.364080
C251 C 0.717250 0.474700 0.910100
C252 C 0.867010 0.056700 0.345130
C253 C 0.629490 0.541700 0.580570
C254 C 0.870510 -0.041700 0.419430
C255 C 0.632990 0.443300 0.654870
C256 C 0.600140 0.272400 0.635920
C257 C 0.782750 0.025300 0.089900
C258 C 0.748730 -0.119700 0.085540
C259 C 0.756570 -0.211300 0.162380
C260 C 0.858770 0.228600 0.164000
C261 C 0.343170 0.090800 0.651350
C262 C 0.339890 0.697600 0.911040
C263 C 0.876060 0.540100 0.140930
C264 C 0.303680 0.752900 0.827280
C265 C 0.843170 0.409200 0.151350
C266 C 0.297200 0.656500 0.748420
C267 C 0.330280 0.502600 0.754790
C268 C 0.322900 0.416500 0.671210
C269 C 0.358770 0.271400 0.664000
C270 C 0.407770 0.318600 0.663420
C271 C 1.038920 0.700700 0.114210
C272 C 0.440190 0.189400 0.651090
C273 C 0.959380 0.635000 0.128820
C274 C 0.424860 0.008300 0.640420
C275 C 0.459380 -0.135000 0.628820
C276 C 0.538920 -0.200700 0.614210
C277 C 0.924860 0.491700 0.140420
C278 C 0.940190 0.310600 0.151090
C279 C 0.907770 0.181400 0.163420
C280 C 0.461080 1.200700 0.385790
O281 O 0.502360 -0.069120 0.622550
O282 O -0.002360 0.569120 0.377450
O283 O 0.050470 0.793190 0.375210
O284 O 0.550470 -0.293190 0.875210
O285 O 0.497640 -0.069120 0.877450
O286 O 0.502360 1.069120 0.122550
O287 O 0.449530 1.293190 0.124790
O288 O 0.949530 0.206810 0.624790
O289 O 1.002360 0.430880 0.622550
O290 O 0.050470 0.206810 0.875210
O291 O -0.002360 0.430880 0.877450
O292 O 0.497640 1.069120 0.377450
O293 O 0.550470 1.293190 0.375210
O294 O 0.949530 0.793190 0.124790
O295 O 0.449530 -0.293190 0.624790
O296 O 1.002360 0.569120 0.122550

#END
