./ABISAG_from_POSCAR.cif_generated_by_CrystalShift
_symmetry_cell_setting triclinic
_symmetry_space_group_name_H-M 'P 1'
loop_
_symmetry_equiv_pos_site_id
_symmetry_equiv_pos_as_xyz
1 x,y,z
_cell_length_a 8.231000
_cell_length_b 17.792000
_cell_length_c 19.180000
_cell_angle_alpha 90.000000
_cell_angle_beta 90.000000
_cell_angle_gamma 90.000000
_cell_volume 2808.833359
loop_
_atom_site_label
_atom_site_type_symbol
_atom_site_fract_x
_atom_site_fract_y
_atom_site_fract_z
H1 H 0.912500 -0.022800 -0.054300
H2 H 0.863000 -0.245300 -0.066400
H3 H 0.711300 -0.243700 0.040200
H4 H 0.656400 -0.091100 0.274500
H5 H 0.764000 0.016400 0.325100
H6 H 0.844000 0.116000 0.267400
H7 H 0.807300 0.250700 0.028300
H8 H 0.660300 0.249300 -0.079700
H9 H 0.558200 0.135500 -0.123300
H10 H 0.597100 0.027000 -0.057500
H11 H 0.412500 0.522800 1.054300
H12 H 0.468700 0.630900 1.112300
H13 H 0.363000 0.745300 1.066400
H14 H 0.211300 0.743700 0.959800
H15 H 0.156400 0.591100 0.725500
H16 H 0.264000 0.483600 0.674900
H17 H 0.344000 0.384000 0.732600
H18 H 0.307300 0.249300 0.971700
H19 H 0.160300 0.250700 1.079700
H20 H 0.058200 0.364500 1.123300
H21 H 0.097100 0.473000 1.057500
H22 H 0.081300 0.984600 0.189600
H23 H 0.047600 0.865800 0.125600
H24 H 0.140000 0.752800 0.164100
H25 H 0.293200 0.746500 0.267500
H26 H 0.355300 0.878800 0.505700
H27 H 0.266700 0.982000 0.578300
H28 H 0.157300 1.093300 0.521300
H29 H 0.195600 1.245400 0.297200
H30 H 0.334700 1.254400 0.195300
H31 H 0.440100 1.143700 0.140700
H32 H 0.402200 1.025600 0.191600
H33 H 0.087500 0.477200 0.554300
H34 H 0.031300 0.369100 0.612300
H35 H 0.137000 0.254700 0.566400
H36 H 0.288700 0.256300 0.459800
H37 H 0.343600 0.408900 0.225500
H38 H 0.236000 0.516400 0.174900
H39 H 0.156000 0.616000 0.232600
H40 H 0.192700 0.750700 0.471700
H41 H 0.339700 0.749300 0.579700
H42 H 0.441800 0.635500 0.623300
H43 H 0.402900 0.527000 0.557500
H44 H 0.587500 1.022800 0.445700
H45 H 0.531300 1.130900 0.387700
H46 H 0.637000 1.245300 0.433600
H47 H 0.788700 1.243700 0.540200
H48 H 0.843600 1.091100 0.774500
H49 H 0.736000 0.983600 0.825100
H50 H 0.656000 0.884000 0.767400
H51 H 0.692700 0.749300 0.528300
H52 H 0.839700 0.750700 0.420300
H53 H 0.941800 0.864500 0.376700
H54 H 0.581300 0.515400 0.810400
H55 H 0.547600 0.634200 0.874400
H56 H 0.640000 0.747200 0.835900
H57 H 0.793200 0.753500 0.732500
H58 H 0.855300 0.621200 0.494300
H59 H 0.766700 0.518000 0.421700
H60 H 0.657300 0.406700 0.478700
H61 H 0.695600 0.254600 0.702800
H62 H 0.834700 0.245600 0.804700
H63 H 0.940100 0.356300 0.859300
H64 H 0.902200 0.474400 0.808400
H65 H 0.902900 0.973000 0.442500
H66 H 0.097800 -0.025600 0.691600
H67 H 0.059900 -0.143700 0.640700
H68 H 0.165300 -0.254400 0.695300
H69 H 0.304400 -0.245400 0.797200
H70 H 0.342700 -0.093300 1.021300
H71 H 0.233300 0.018000 1.078300
H72 H 0.144700 0.121200 1.005700
H73 H 0.206800 0.253500 0.767500
H74 H 0.360000 0.247200 0.664100
H75 H 0.452400 0.134200 0.625600
H76 H 0.418700 0.015400 0.689600
H77 H 0.597800 0.525600 0.308400
H78 H 0.559900 0.643700 0.359300
H79 H 0.665300 0.754400 0.304700
H80 H 0.804400 0.745400 0.202800
H81 H 0.842700 0.593300 -0.021300
H82 H 0.733300 0.482000 -0.078300
H83 H 0.644700 0.378800 -0.005700
H84 H 0.706800 0.246500 0.232500
H85 H 0.860000 0.252800 0.335900
H86 H 0.918700 0.484600 0.310400
H87 H 0.952400 0.365800 0.374400
H88 H 0.968700 -0.130900 -0.112300
C89 C 0.642700 0.571200 0.285600
C90 C 0.620000 0.638500 0.316800
C91 C 0.678700 0.704700 0.286600
C92 C 0.768500 0.698900 0.224400
C93 C 0.792700 0.631400 0.193800
C94 C 0.748800 0.491600 0.116000
C95 C 0.815600 0.555700 0.078000
C96 C 0.804000 0.550800 0.004100
C97 C 0.126500 0.931700 0.205800
C98 C 0.105800 0.865400 0.167700
C99 C 0.165600 0.798000 0.190800
C100 C 0.373500 0.068300 0.705800
C101 C 0.394200 0.134600 0.667700
C102 C 0.334400 0.202000 0.690800
C103 C 0.248100 0.205400 0.751500
C104 C 0.224800 0.137400 0.789000
C105 C 0.280200 0.071400 0.768300
C106 C 0.187900 0.072300 0.914400
C107 C 0.186900 0.073200 0.985500
C108 C 0.237100 0.018100 1.028400
C109 C 0.304000 -0.050800 0.995900
C110 C 0.315600 -0.055700 0.922000
C111 C 0.248800 0.008400 0.884000
C112 C 0.292700 -0.131400 0.806200
C113 C 0.268500 -0.198900 0.775600
C114 C 0.178700 -0.204700 0.713400
C115 C 0.120000 -0.138500 0.683200
C116 C 0.142700 -0.071200 0.714400
C117 C 0.234500 -0.064900 0.776600
C118 C 0.737100 0.481900 -0.028400
C119 C 0.686900 0.426800 0.014500
C120 C 0.687900 0.427700 0.085600
C121 C 0.780200 0.428600 0.231700
C122 C 0.724800 0.362600 0.211000
C123 C 0.748100 0.294600 0.248500
C124 C 0.834400 0.298000 0.309200
C125 C 0.894200 0.365400 0.332300
C126 C 0.873500 0.431700 0.294200
C127 C 0.251900 0.794600 0.251500
C128 C 0.275200 0.862600 0.289000
C129 C 0.219800 0.928600 0.268300
C130 C 0.312100 0.927700 0.414400
C131 C 0.780400 -0.064600 0.023500
C132 C 0.858400 0.928300 0.459100
C133 C 0.882000 0.861800 0.420600
C134 C 0.820600 0.797100 0.445100
C135 C 0.740900 0.794500 0.509400
C136 C 0.711900 0.862100 0.546500
C137 C 0.774600 0.928800 0.519300
C138 C 0.695100 0.936000 0.669100
C139 C 0.696000 0.931200 0.741400
C140 C 0.750000 0.991700 0.776300
C141 C 0.804600 1.051200 0.744000
C142 C 0.814800 1.051200 0.672100
C143 C 0.751400 0.992700 0.630300
C144 C 0.784000 1.135500 0.551600
C145 C 0.745100 1.198800 0.518800
C146 C 0.659000 1.199800 0.458800
C147 C 0.597700 1.134200 0.430200
C148 C 0.628600 1.067000 0.463400
C149 C 0.719600 1.064600 0.523500
C150 C 0.871400 -0.067000 -0.036600
C151 C 0.765500 0.435100 0.723400
C152 C 0.857300 0.428800 0.785600
C153 C 0.880000 0.361500 0.816800
C154 C 0.821300 0.295300 0.786600
C155 C 0.731500 0.301100 0.724400
C156 C 0.707300 0.368600 0.693800
C157 C 0.751200 0.508400 0.616000
C158 C 0.684400 0.444300 0.578000
C159 C 0.696000 0.449200 0.504100
C160 C 0.762900 0.518100 0.471600
C161 C 0.902300 -0.134200 -0.069800
C162 C 0.841000 -0.199800 -0.041200
C163 C 0.754900 -0.198800 0.018800
C164 C 0.358400 0.571700 0.540900
C165 C 0.382000 0.638200 0.579400
C166 C 0.320600 0.702900 0.554900
C167 C 0.240900 0.705500 0.490600
C168 C 0.211900 0.637900 0.453500
C169 C 0.274600 0.571200 0.480700
C170 C 0.195100 0.564000 0.330900
C171 C 0.196000 0.568800 0.258600
C172 C 0.250000 0.508300 0.223700
C173 C 0.304600 0.448800 0.256000
C174 C 0.314800 0.448800 0.327900
C175 C 0.251400 0.507300 0.369700
C176 C 0.284000 0.364500 0.448400
C177 C 0.245100 0.301200 0.481200
C178 C 0.159000 0.300200 0.541200
C179 C 0.097700 0.365800 0.569800
C180 C 0.128600 0.433000 0.536600
C181 C 0.219600 0.435400 0.476500
C182 C 0.813100 0.573200 0.514500
C183 C 0.812100 0.572300 0.585600
C184 C 0.719800 0.571400 0.731700
C185 C 0.775200 0.637400 0.711000
C186 C 0.751900 0.705400 0.748500
C187 C 0.665600 0.702000 0.809200
C188 C 0.605800 0.634600 0.832300
C189 C 0.626500 0.568300 0.794200
C190 C 0.716000 -0.135500 0.051600
C191 C 0.748600 0.007300 0.130300
C192 C 0.685200 -0.051200 0.172100
C193 C 0.695400 -0.051200 0.244000
C194 C 0.750000 0.008300 0.276300
C195 C 0.804000 0.068800 0.241400
C196 C 0.141600 0.428300 1.040900
C197 C 0.118000 0.361800 1.079400
C198 C 0.179400 0.297100 1.054900
C199 C 0.259100 0.294500 0.990600
C200 C 0.288100 0.362100 0.953500
C201 C 0.225400 0.428800 0.980700
C202 C 0.304900 0.436000 0.830900
C203 C 0.304000 0.431200 0.758600
C204 C 0.250000 0.491700 0.723700
C205 C 0.195400 0.551200 0.756000
C206 C 0.185200 0.551200 0.827900
C207 C 0.248600 0.492700 0.869700
C208 C 0.216000 0.635500 0.948400
C209 C 0.254900 0.698800 0.981200
C210 C 0.341000 0.699800 1.041200
C211 C 0.402300 0.634200 1.069800
C212 C 0.371400 0.567000 1.036600
C213 C 0.280400 0.564600 0.976500
C214 C 0.265500 1.064900 0.276600
C215 C 0.357300 1.071200 0.214400
C216 C 0.380000 1.138500 0.183200
C217 C 0.321300 1.204700 0.213400
C218 C 0.231500 1.198900 0.275600
C219 C 0.207300 1.131400 0.306200
C220 C 0.251200 0.991600 0.384000
C221 C 0.184400 1.055700 0.422000
C222 C 0.196000 1.050800 0.495900
C223 C 0.262900 0.981900 0.528400
C224 C 0.313100 0.926800 0.485500
C225 C 0.804900 0.064000 0.169100
C226 C 0.725400 0.071200 0.019300
C227 C 0.788100 0.137900 0.046500
C228 C 0.641600 0.071700 -0.040900
C229 C 0.618000 0.138200 -0.079400
C230 C 0.679400 0.202900 -0.054900
C231 C 0.759100 0.205500 0.009400
C232 C 0.734500 0.564900 0.223400
N233 N 0.242900 0.997300 0.308600
N234 N 0.257100 0.002700 0.808600
N235 N 0.247400 0.498400 0.941600
N236 N 0.757100 0.497300 0.191400
N237 N 0.752600 0.998400 0.558400
N238 N 0.747400 0.001600 0.058400
N239 N 0.252600 0.501600 0.441600
N240 N 0.742900 0.502700 0.691400
S241 S 0.591900 0.370700 0.616460
S242 S 0.406300 0.370800 0.372480
S243 S 0.100800 0.642100 0.376690
S244 S 0.898200 0.644480 0.634170
S245 S 0.399200 0.357900 0.876690
S246 S 0.906300 1.129200 0.627520
S247 S 0.600800 0.857900 0.623310
S248 S 0.908100 0.629300 0.116460
S249 S 0.093700 0.629200 0.872480
S250 S 0.899200 0.142100 0.123310
S251 S 0.408100 -0.129300 0.883540
S252 S 0.101800 0.144480 0.865830
S253 S 0.593700 -0.129200 0.127520
S254 S 0.091900 1.129300 0.383540
S255 S 0.601800 0.355520 0.134170
S256 S 0.398200 0.855520 0.365830

#END
