./ABIVIQ_from_POSCAR.cif_generated_by_CrystalShift
_symmetry_cell_setting triclinic
_symmetry_space_group_name_H-M 'P 1'
loop_
_symmetry_equiv_pos_site_id
_symmetry_equiv_pos_as_xyz
1 x,y,z
_cell_length_a 10.379000
_cell_length_b 8.943000
_cell_length_c 8.477000
_cell_angle_alpha 90.000000
_cell_angle_beta 114.220000
_cell_angle_gamma 90.000000
_cell_volume 717.570866
loop_
_atom_site_label
_atom_site_type_symbol
_atom_site_fract_x
_atom_site_fract_y
_atom_site_fract_z
H1 H 0.913000 0.906000 0.183000
H2 H 0.978000 0.817000 -0.100000
H3 H 1.143000 0.836000 0.025000
H4 H 0.916000 0.675000 0.562000
H5 H 1.022000 0.817000 0.600000
H6 H 0.587000 0.594000 0.817000
H7 H 0.857000 0.836000 0.475000
H8 H 0.357000 0.664000 0.975000
H9 H 0.522000 0.683000 1.100000
H10 H 0.416000 0.825000 1.062000
H11 H 1.087000 0.906000 0.317000
H12 H -0.087000 0.906000 0.183000
H13 H 0.084000 0.675000 -0.062000
H14 H -0.022000 0.817000 -0.100000
H15 H 0.143000 0.836000 0.025000
H16 H 0.643000 0.664000 0.525000
H17 H 0.478000 0.683000 0.400000
H18 H 0.584000 0.825000 0.438000
H19 H 0.413000 0.594000 0.683000
H20 H -0.084000 0.675000 0.562000
H21 H 0.022000 0.817000 0.600000
H22 H -0.143000 0.836000 0.475000
H23 H 0.087000 0.906000 0.317000
H24 H 0.413000 0.406000 0.183000
H25 H 0.087000 0.094000 0.817000
H26 H 0.584000 0.175000 -0.062000
H27 H -0.143000 0.164000 0.975000
H28 H 0.022000 0.183000 1.100000
H29 H -0.084000 0.325000 1.062000
H30 H 0.478000 0.317000 -0.100000
H31 H 0.643000 0.336000 0.025000
H32 H 0.416000 0.175000 0.562000
H33 H 0.522000 0.317000 0.600000
H34 H 0.357000 0.336000 0.475000
H35 H 0.143000 0.164000 0.525000
H36 H -0.022000 0.183000 0.400000
H37 H 0.084000 0.325000 0.438000
H38 H -0.087000 0.094000 0.683000
H39 H 0.587000 0.406000 0.317000
H40 H 0.913000 0.094000 0.683000
H41 H 1.084000 0.325000 0.438000
H42 H 0.978000 0.183000 0.400000
H43 H 1.143000 0.164000 0.525000
H44 H 1.087000 0.094000 0.817000
H45 H 0.916000 0.325000 1.062000
H46 H 0.857000 0.164000 0.975000
H47 H 1.022000 0.183000 1.100000
H48 H 1.084000 0.675000 -0.062000
C49 C 1.030860 0.271940 0.639400
C50 C 0.640320 0.866050 0.784100
C51 C 0.859680 0.366050 0.715900
C52 C 1.062600 0.766400 -0.012100
C53 C 1.062600 0.233600 0.487900
C54 C 1.000000 0.154000 0.750000
C55 C 0.969140 0.271940 0.860600
C56 C 0.859680 0.633950 0.215900
C57 C 1.140320 0.366050 0.784100
C58 C 1.030860 0.728060 0.139400
C59 C 0.640320 0.133950 0.284100
C60 C 0.469140 0.771940 0.860600
C61 C 0.469140 0.228060 0.360600
C62 C 0.500000 0.346000 0.250000
C63 C 0.500000 0.654000 0.750000
C64 C 0.437400 0.266400 0.512100
C65 C 0.062600 0.233600 0.487900
C66 C 0.437400 0.733600 1.012100
C67 C -0.140320 0.366050 0.715900
C68 C 0.530860 0.228060 0.139400
C69 C 0.937400 0.766400 0.512100
C70 C 0.359680 0.133950 0.215900
C71 C 0.530860 0.771940 0.639400
C72 C 0.562600 0.266400 -0.012100
C73 C 1.000000 0.846000 0.250000
C74 C 0.030860 0.271940 0.639400
C75 C -0.062600 0.233600 1.012100
C76 C 0.000000 0.154000 0.750000
C77 C 0.969140 0.728060 0.360600
C78 C 0.140320 0.633950 0.284100
C79 C 1.140320 0.633950 0.284100
C80 C -0.030860 0.728060 0.360600
C81 C 0.000000 0.846000 0.250000
C82 C -0.030860 0.271940 0.860600
C83 C -0.062600 0.766400 0.512100
C84 C 0.359680 0.866050 0.715900
C85 C 0.140320 0.366050 0.784100
C86 C 0.562600 0.733600 0.487900
C87 C 0.030860 0.728060 0.139400
C88 C 0.062600 0.766400 -0.012100
C89 C -0.140320 0.633950 0.215900
C90 C 0.937400 0.233600 1.012100
O91 O -0.098430 0.633070 0.082730
O92 O 0.098430 0.366930 0.917270
O93 O 0.258190 0.931740 0.711580
O94 O 0.241810 0.431740 0.788420
O95 O 0.401570 0.866930 0.582730
O96 O 1.098430 0.633070 0.417270
O97 O 0.241810 0.568260 0.288420
O98 O 1.241810 0.568260 0.288420
O99 O 0.098430 0.633070 0.417270
O100 O -0.098430 0.366930 0.582730
O101 O 0.258190 0.068260 0.211580
O102 O 0.401570 0.133070 0.082730
O103 O -0.241810 0.431740 0.711580
O104 O 1.098430 0.366930 0.917270
O105 O 0.741810 0.068260 0.288420
O106 O 0.598430 0.133070 0.417270
O107 O 0.901570 0.633070 0.082730
O108 O 1.241810 0.431740 0.788420
O109 O 0.758190 0.568260 0.211580
O110 O 0.758190 0.431740 0.711580
O111 O 0.741810 0.931740 0.788420
O112 O 0.901570 0.366930 0.582730
O113 O -0.241810 0.568260 0.211580
O114 O 0.598430 0.866930 0.917270

#END
