
#######################################################################
#
#                 Cambridge Crystallographic Data Centre
#                                CCDC 
#
#######################################################################
#
# If this CIF has been generated from an entry in the Cambridge 
# Structural Database, then it will include bibliographic, chemical, 
# crystal, experimental, refinement or atomic coordinate data resulting 
# from the CCDC's data processing and validation procedures.
#
#######################################################################

data_ABIWAL
_symmetry_cell_setting           monoclinic
_symmetry_space_group_name_H-M   'P 21/c'
_symmetry_Int_Tables_number      14
_space_group_name_Hall           '-P 2ybc'
loop_
_symmetry_equiv_pos_site_id
_symmetry_equiv_pos_as_xyz
1 x,y,z
2 -x,1/2+y,1/2-z
3 -x,-y,-z
4 x,1/2-y,1/2+z
_cell_length_a                   8.2603(9)
_cell_length_b                   11.8162(13)
_cell_length_c                   14.4138(16)
_cell_angle_alpha                90
_cell_angle_beta                 105.309(2)
_cell_angle_gamma                90
_cell_volume                     1356.94
loop_
_atom_site_label
_atom_site_type_symbol
_atom_site_fract_x
_atom_site_fract_y
_atom_site_fract_z
Cd1 Cd 1.0000 0.5000 0.5000
C1 C 0.4992(8) 0.9795(4) 0.4061(4)
H1 H 0.4978 0.9667 0.3422
C2 C 0.5729(5) 0.9014(3) 0.4751(3)
C3 C 0.5725(7) 0.9234(4) 0.5695(4)
H2 H 0.6216 0.8716 0.6173
C4 C 0.6556(5) 0.7997(3) 0.4516(3)
C5 C 0.7718(5) 0.7297(3) 0.5082(3)
H3 H 0.8105 0.7349 0.5748
C6 C 0.7384(6) 0.6728(4) 0.3647(3)
H4 H 0.7473 0.6313 0.3115
C7 C 0.9107(6) 0.4054(4) -0.0393(3)
H5 H 0.8502 0.3413 -0.0650
C8 C 0.9482(6) 0.4248(4) 0.0587(3)
H6 H 0.9127 0.3733 0.0980
C9 C 1.0379(6) 0.5198(3) 0.0994(3)
C10 C 1.0730(5) 0.5375(4) 0.2028(3)
C11 C 1.0220(6) 0.4798(4) 0.2723(3)
H7 H 0.9541 0.4158 0.2616
C12 C 1.1738(6) 0.6166(4) 0.3442(3)
H8 H 1.2318 0.6663 0.3914
C13 C 0.6642(5) 0.3575(3) 0.3628(3)
C14 C 0.5231(7) 0.4229(6) 0.3846(5)
H9 H 0.4824 0.3831 0.4320
H10 H 0.4338 0.4313 0.3270
H11 H 0.5628 0.4963 0.4090
N1 N 0.8233(4) 0.6509(3) 0.4527(3)
N2 N 0.6367(5) 0.7622(3) 0.3603(3)
H12 H 0.5714 0.7905 0.3089
N3 N 1.0863(5) 0.5306(3) 0.3609(3)
N4 N 1.1701(5) 0.6247(3) 0.2509(2)
H13 H 1.2197 0.6755 0.2256
O1 O 0.8085(4) 0.3695(3) 0.4130(3)
O2 O 0.6265(4) 0.2894(3) 0.2941(2)
Cd1 Cd 0.0000 1.5000 0.5000
Cd1 Cd 1.0000 0.5000 -0.5000
C1B C 0.5008(8) 1.0205(4) 0.5939(4)
H1B H 0.5022 1.0333 0.6578
C2B C 0.4271(5) 1.0986(3) 0.5249(3)
C3B C 0.4275(7) 1.0766(4) 0.4305(4)
H2B H 0.3784 1.1284 0.3827
C4B C 0.3444(5) 1.2003(3) 0.5484(3)
C5B C 0.2282(5) 1.2703(3) 0.4918(3)
H3B H 0.1895 1.2651 0.4252
C6B C 0.2616(6) 1.3272(4) 0.6353(3)
H4B H 0.2527 1.3687 0.6885
C7B C 1.0893(6) 0.5946(4) 0.0393(3)
H5B H 1.1498 0.6587 0.0650
C8B C 1.0518(6) 0.5752(4) -0.0587(3)
H6B H 1.0873 0.6267 -0.0980
C9B C 0.9621(6) 0.4802(3) -0.0994(3)
C10B C 0.9270(5) 0.4625(4) -0.2028(3)
C11B C 0.9780(6) 0.5202(4) -0.2723(3)
H7B H 1.0459 0.5842 -0.2616
C12B C 0.8262(6) 0.3834(4) -0.3442(3)
H8B H 0.7682 0.3337 -0.3914
C13B C 1.3358(5) 0.6425(3) 0.6372(3)
C14B C 1.4769(7) 0.5771(6) 0.6154(5)
H9B H 1.5176 0.6169 0.5680
H10B H 1.5662 0.5687 0.6730
H11B H 1.4372 0.5037 0.5910
N1B N 0.1767(4) 1.3491(3) 0.5473(3)
N1B N 1.1767(4) 0.3491(3) 0.5473(3)
N2B N 0.3633(5) 1.2378(3) 0.6397(3)
H12B H 0.4286 1.2095 0.6911
N3B N 0.9137(5) 0.4694(3) -0.3609(3)
N3B N 0.9137(5) 0.4694(3) 0.6391(3)
N4B N 0.8299(5) 0.3753(3) -0.2509(2)
H13B H 0.7803 0.3245 -0.2256
O1B O 1.1915(4) 0.6305(3) 0.5870(3)
O2B O 1.3735(4) 0.7106(3) 0.7059(2)
Cd1 Cd 0.0000 0.0000 0.0000
C1 C 0.5008(8) 0.4795(4) 0.0939(4)
H1 H 0.5022 0.4667 0.1578
C2 C 0.4271(5) 0.4014(3) 0.0249(3)
C3 C 0.4275(7) 0.4234(4) -0.0695(4)
H2 H 0.3784 0.3716 -0.1173
C4 C 0.3444(5) 0.2997(3) 0.0484(3)
C5 C 0.2282(5) 0.2297(3) -0.0082(3)
H3 H 0.1895 0.2349 -0.0748
C6 C 0.2616(6) 0.1728(4) 0.1353(3)
H4 H 0.2527 0.1313 0.1885
C7 C 0.0893(6) -0.0946(4) 0.5393(3)
H5 H 0.1498 -0.1587 0.5650
C8 C 0.0518(6) -0.0752(4) 0.4413(3)
H6 H 0.0873 -0.1267 0.4020
C9 C -0.0379(6) 0.0198(3) 0.4006(3)
C10 C -0.0730(5) 0.0375(4) 0.2972(3)
C11 C -0.0220(6) -0.0202(4) 0.2277(3)
H7 H 0.0459 -0.0842 0.2384
C12 C -0.1738(6) 0.1166(4) 0.1558(3)
H8 H -0.2318 0.1663 0.1086
C13 C 0.3358(5) -0.1425(3) 0.1372(3)
C14 C 0.4769(7) -0.0771(6) 0.1154(5)
H9 H 0.5176 -0.1169 0.0680
H10 H 0.5662 -0.0687 0.1730
H11 H 0.4372 -0.0037 0.0910
N1 N 0.1767(4) 0.1509(3) 0.0473(3)
N2 N 0.3633(5) 0.2622(3) 0.1397(3)
H12 H 0.4286 0.2905 0.1911
N3 N -0.0863(5) 0.0306(3) 0.1391(3)
N4 N -0.1701(5) 0.1247(3) 0.2491(2)
H13 H -0.2197 0.1755 0.2744
O1 O 0.1915(4) -0.1305(3) 0.0870(3)
O2 O 0.3735(4) -0.2106(3) 0.2059(2)
Cd1 Cd 1.0000 1.0000 0.0000
Cd1 Cd 0.0000 0.0000 1.0000
C1B C 0.4992(8) 0.5205(4) -0.0939(4)
H1B H 0.4978 0.5333 -0.1578
C2B C 0.5729(5) 0.5986(3) -0.0249(3)
C3B C 0.5725(7) 0.5766(4) 0.0695(4)
H2B H 0.6216 0.6284 0.1173
C4B C 0.6556(5) 0.7003(3) -0.0484(3)
C5B C 0.7718(5) 0.7703(3) 0.0082(3)
H3B H 0.8105 0.7651 0.0748
C6B C 0.7384(6) 0.8272(4) -0.1353(3)
H4B H 0.7473 0.8687 -0.1885
C7B C -0.0893(6) 0.0946(4) 0.4607(3)
H5B H -0.1498 0.1587 0.4350
C8B C -0.0518(6) 0.0752(4) 0.5587(3)
H6B H -0.0873 0.1267 0.5980
C9B C 0.0379(6) -0.0198(3) 0.5994(3)
C10B C 0.0730(5) -0.0375(4) 0.7028(3)
C11B C 0.0220(6) 0.0202(4) 0.7723(3)
H7B H -0.0459 0.0842 0.7616
C12B C 0.1738(6) -0.1166(4) 0.8442(3)
H8B H 0.2318 -0.1663 0.8914
C13B C -0.3358(5) 0.1425(3) -0.1372(3)
C14B C -0.4769(7) 0.0771(6) -0.1154(5)
H9B H -0.5176 0.1169 -0.0680
H10B H -0.5662 0.0687 -0.1730
H11B H -0.4372 0.0037 -0.0910
N1B N 0.8233(4) 0.8491(3) -0.0473(3)
N1B N -0.1767(4) -0.1509(3) -0.0473(3)
N2B N 0.6367(5) 0.7378(3) -0.1397(3)
H12B H 0.5714 0.7095 -0.1911
N3B N 0.0863(5) -0.0306(3) 0.8609(3)
N3B N 0.0863(5) -0.0306(3) -0.1391(3)
N4B N 0.1701(5) -0.1247(3) 0.7509(2)
H13B H 0.2197 -0.1755 0.7256
O1B O -0.1915(4) 0.1305(3) -0.0870(3)
O2B O -0.3735(4) 0.2106(3) -0.2059(2)
Cd1 Cd 1.0000 1.0000 1.0000
C1 C 0.4992(8) 0.5205(4) 0.9061(4)
H1 H 0.4978 0.5333 0.8422
C2 C 0.5729(5) 0.5986(3) 0.9751(3)
C3 C 0.5725(7) 0.5766(4) 1.0695(4)
H2 H 0.6216 0.6284 1.1173
C4 C 0.6556(5) 0.7003(3) 0.9516(3)
C5 C 0.7718(5) 0.7703(3) 1.0082(3)
H3 H 0.8105 0.7651 1.0748
C6 C 0.7384(6) 0.8272(4) 0.8647(3)
H4 H 0.7473 0.8687 0.8115
C7 C 0.9107(6) 1.0946(4) 0.4607(3)
H5 H 0.8502 1.1587 0.4350
C8 C 0.9482(6) 1.0752(4) 0.5587(3)
H6 H 0.9127 1.1267 0.5980
C9 C 1.0379(6) 0.9802(3) 0.5994(3)
C10 C 1.0730(5) 0.9625(4) 0.7028(3)
C11 C 1.0220(6) 1.0202(4) 0.7723(3)
H7 H 0.9541 1.0842 0.7616
C12 C 1.1738(6) 0.8834(4) 0.8442(3)
H8 H 1.2318 0.8337 0.8914
C13 C 0.6642(5) 1.1425(3) 0.8628(3)
C14 C 0.5231(7) 1.0771(6) 0.8846(5)
H9 H 0.4824 1.1169 0.9320
H10 H 0.4338 1.0687 0.8270
H11 H 0.5628 1.0037 0.9090
N1 N 0.8233(4) 0.8491(3) 0.9527(3)
N2 N 0.6367(5) 0.7378(3) 0.8603(3)
H12 H 0.5714 0.7095 0.8089
N3 N 1.0863(5) 0.9694(3) 0.8609(3)
N4 N 1.1701(5) 0.8753(3) 0.7509(2)
H13 H 1.2197 0.8245 0.7256
O1 O 0.8085(4) 1.1305(3) 0.9130(3)
O2 O 0.6265(4) 1.2106(3) 0.7941(2)
C1B C 0.5008(8) 0.4795(4) 1.0939(4)
H1B H 0.5022 0.4667 1.1578
C2B C 0.4271(5) 0.4014(3) 1.0249(3)
C3B C 0.4275(7) 0.4234(4) 0.9305(4)
H2B H 0.3784 0.3716 0.8827
C4B C 0.3444(5) 0.2997(3) 1.0484(3)
C5B C 0.2282(5) 0.2297(3) 0.9918(3)
H3B H 0.1895 0.2349 0.9252
C6B C 0.2616(6) 0.1728(4) 1.1353(3)
H4B H 0.2527 0.1313 1.1885
C7B C 1.0893(6) 0.9054(4) 0.5393(3)
H5B H 1.1498 0.8413 0.5650
C8B C 1.0518(6) 0.9248(4) 0.4413(3)
H6B H 1.0873 0.8733 0.4020
C9B C 0.9621(6) 1.0198(3) 0.4006(3)
C10B C 0.9270(5) 1.0375(4) 0.2972(3)
C11B C 0.9780(6) 0.9798(4) 0.2277(3)
H7B H 1.0459 0.9158 0.2384
C12B C 0.8262(6) 1.1166(4) 0.1558(3)
H8B H 0.7682 1.1663 0.1086
C13B C 1.3358(5) 0.8575(3) 1.1372(3)
C14B C 1.4769(7) 0.9229(6) 1.1154(5)
H9B H 1.5176 0.8831 1.0680
H10B H 1.5662 0.9313 1.1730
H11B H 1.4372 0.9963 1.0910
N1B N 0.1767(4) 0.1509(3) 1.0473(3)
N1B N 1.1767(4) 1.1509(3) 1.0473(3)
N2B N 0.3633(5) 0.2622(3) 1.1397(3)
H12B H 0.4286 0.2905 1.1911
N3B N 0.9137(5) 1.0306(3) 0.1391(3)
N3B N 0.9137(5) 1.0306(3) 1.1391(3)
N4B N 0.8299(5) 1.1247(3) 0.2491(2)
H13B H 0.7803 1.1755 0.2744
O1B O 1.1915(4) 0.8695(3) 1.0870(3)
O2B O 1.3735(4) 0.7894(3) 1.2059(2)
Cd1 Cd 0.0000 0.5000 0.5000
C1 C 0.5008(8) 0.0205(4) 0.5939(4)
H1 H 0.5022 0.0333 0.6578
C2 C 0.4271(5) 0.0986(3) 0.5249(3)
C3 C 0.4275(7) 0.0766(4) 0.4305(4)
H2 H 0.3784 0.1284 0.3827
C4 C 0.3444(5) 0.2003(3) 0.5484(3)
C5 C 0.2282(5) 0.2703(3) 0.4918(3)
H3 H 0.1895 0.2651 0.4252
C6 C 0.2616(6) 0.3272(4) 0.6353(3)
H4 H 0.2527 0.3687 0.6885
C7 C 0.0893(6) 0.5946(4) 1.0393(3)
H5 H 0.1498 0.6587 1.0650
C8 C 0.0518(6) 0.5752(4) 0.9413(3)
H6 H 0.0873 0.6267 0.9020
C9 C -0.0379(6) 0.4802(3) 0.9006(3)
C10 C -0.0730(5) 0.4625(4) 0.7972(3)
C11 C -0.0220(6) 0.5202(4) 0.7277(3)
H7 H 0.0459 0.5842 0.7384
C12 C -0.1738(6) 0.3834(4) 0.6558(3)
H8 H -0.2318 0.3337 0.6086
C13 C 0.3358(5) 0.6425(3) 0.6372(3)
C14 C 0.4769(7) 0.5771(6) 0.6154(5)
H9 H 0.5176 0.6169 0.5680
H10 H 0.5662 0.5687 0.6730
H11 H 0.4372 0.5037 0.5910
N1 N 0.1767(4) 0.3491(3) 0.5473(3)
N2 N 0.3633(5) 0.2378(3) 0.6397(3)
H12 H 0.4286 0.2095 0.6911
N3 N -0.0863(5) 0.4694(3) 0.6391(3)
N4 N -0.1701(5) 0.3753(3) 0.7491(2)
H13 H -0.2197 0.3245 0.7744
O1 O 0.1915(4) 0.6305(3) 0.5870(3)
O2 O 0.3735(4) 0.7106(3) 0.7059(2)
Cd1 Cd 1.0000 -0.5000 0.5000
Cd1 Cd 0.0000 0.5000 1.5000
C1B C 0.4992(8) -0.0205(4) 0.4061(4)
H1B H 0.4978 -0.0333 0.3422
C2B C 0.5729(5) -0.0986(3) 0.4751(3)
C3B C 0.5725(7) -0.0766(4) 0.5695(4)
H2B H 0.6216 -0.1284 0.6173
C4B C 0.6556(5) -0.2003(3) 0.4516(3)
C5B C 0.7718(5) -0.2703(3) 0.5082(3)
H3B H 0.8105 -0.2651 0.5748
C6B C 0.7384(6) -0.3272(4) 0.3647(3)
H4B H 0.7473 -0.3687 0.3115
C7B C -0.0893(6) 0.4054(4) 0.9607(3)
H5B H -0.1498 0.3413 0.9350
C8B C -0.0518(6) 0.4248(4) 1.0587(3)
H6B H -0.0873 0.3733 1.0980
C9B C 0.0379(6) 0.5198(3) 1.0994(3)
C10B C 0.0730(5) 0.5375(4) 1.2028(3)
C11B C 0.0220(6) 0.4798(4) 1.2723(3)
H7B H -0.0459 0.4158 1.2616
C12B C 0.1738(6) 0.6166(4) 1.3442(3)
H8B H 0.2318 0.6663 1.3914
C13B C -0.3358(5) 0.3575(3) 0.3628(3)
C14B C -0.4769(7) 0.4229(6) 0.3846(5)
H9B H -0.5176 0.3831 0.4320
H10B H -0.5662 0.4313 0.3270
H11B H -0.4372 0.4963 0.4090
N1B N 0.8233(4) -0.3491(3) 0.4527(3)
N1B N -0.1767(4) 0.6509(3) 0.4527(3)
N2B N 0.6367(5) -0.2378(3) 0.3603(3)
H12B H 0.5714 -0.2095 0.3089
N3B N 0.0863(5) 0.5306(3) 1.3609(3)
N3B N 0.0863(5) 0.5306(3) 0.3609(3)
N4B N 0.1701(5) 0.6247(3) 1.2509(2)
H13B H 0.2197 0.6755 1.2256
O1B O -0.1915(4) 0.3695(3) 0.4130(3)
O2B O -0.3735(4) 0.2894(3) 0.2941(2)

#END
