./ABIZAP01_from_POSCAR.cif_generated_by_CrystalShift
_symmetry_cell_setting triclinic
_symmetry_space_group_name_H-M 'P 1'
loop_
_symmetry_equiv_pos_site_id
_symmetry_equiv_pos_as_xyz
1 x,y,z
_cell_length_a 5.377500
_cell_length_b 31.052000
_cell_length_c 12.323700
_cell_angle_alpha 90.000000
_cell_angle_beta 90.673000
_cell_angle_gamma 90.000000
_cell_volume 2057.695717
loop_
_atom_site_label
_atom_site_type_symbol
_atom_site_fract_x
_atom_site_fract_y
_atom_site_fract_z
H1 H 0.759000 0.712900 0.460500
H2 H 0.216400 0.931200 0.269900
H3 H -0.084300 0.894800 0.171300
H4 H 1.014800 0.763800 0.551600
H5 H 0.768400 0.053800 -0.023600
H6 H 0.263800 0.719800 0.367500
H7 H 0.505100 0.110500 -0.062800
H8 H 0.443200 0.720600 0.268000
H9 H 0.190200 0.129000 0.053700
H10 H 0.943200 0.779400 0.768000
H11 H 0.763800 0.780200 0.867500
H12 H 1.514800 0.736200 1.051600
H13 H 1.259000 0.787100 0.960500
H14 H 1.016000 0.605400 0.866900
H15 H -0.156600 0.070600 0.482500
H16 H 0.716400 0.568800 0.769900
H17 H -0.377200 0.131300 0.409800
H18 H 0.415700 0.605200 0.671300
H19 H 0.324500 0.036600 0.438200
H20 H 0.138900 0.005300 0.378500
H21 H 0.056800 0.220600 0.232000
H22 H 0.236200 0.219800 0.132500
H23 H 0.556800 0.279400 0.732000
H24 H -0.514800 0.263800 -0.051600
H25 H 0.736200 0.280200 0.632500
H26 H -0.014800 0.236200 0.448400
H27 H 0.241000 0.287100 0.539500
H28 H 0.484000 0.105400 0.633100
H29 H -0.268400 0.553800 0.523600
H30 H 0.783600 0.068800 0.730100
H31 H -0.005100 0.610500 0.562800
H32 H 1.084300 0.105200 0.828700
H33 H 0.309800 0.629000 0.446300
H34 H 0.584300 0.394800 0.328700
H35 H 0.283600 0.431200 0.230100
H36 H 0.638900 0.494700 0.878500
H37 H 0.824500 0.463400 0.938200
H38 H 0.122800 0.368700 0.909800
H39 H 0.656600 0.570600 0.017500
H40 H 0.343400 0.429400 0.982500
H41 H 0.877200 0.631300 0.090200
H42 H 0.690200 0.371000 0.553700
H43 H 0.175500 0.536600 0.061800
H44 H 0.361100 0.505300 0.121500
H45 H 1.005100 0.389500 0.437200
H46 H -0.259000 0.212900 0.039500
H47 H 1.268400 0.446200 0.476400
H48 H -0.016000 0.394600 0.133100
H49 H 0.861100 0.994700 0.621500
H50 H 0.675500 0.963400 0.561800
H51 H 1.377200 0.868700 0.590200
H52 H 1.156600 0.929400 0.517500
H53 H 0.231600 0.946200 1.023600
H54 H 0.809800 0.871000 0.946300
H55 H 0.494900 0.889500 1.062800
H56 H 0.516000 0.894600 0.366900
C57 C 0.515300 0.905070 0.999100
C58 C 0.740700 0.916030 0.832200
C59 C 0.580100 0.949700 0.811600
C60 C 0.921400 0.907440 0.747400
C61 C 0.932700 0.931590 0.653900
C62 C 1.121800 0.916860 0.584200
C63 C 0.357400 0.938810 0.975900
C64 C 1.247000 0.882380 0.625400
C65 C 0.389500 0.961490 0.880400
C66 C 0.763300 0.968630 0.629700
C67 C 0.251700 0.995870 0.824500
C68 C 0.388800 1.002670 0.714600
C69 C -0.066100 0.306410 0.107300
C70 C 0.279200 0.313820 0.230100
C71 C 0.100400 0.334500 0.168500
C72 C -0.052100 0.262180 0.111400
C73 C 1.111200 0.502670 0.785400
C74 C 1.248300 0.495870 0.675500
C75 C 1.110500 0.461490 0.619600
C76 C 1.142600 0.438810 0.524100
C77 C -0.239100 0.242510 0.046000
C78 C 0.984700 0.405070 0.500900
C79 C -0.383800 0.271320 -0.005500
C80 C 0.795000 0.393810 0.571500
C81 C 0.263300 0.531370 0.129700
C82 C 0.759300 0.416030 0.667800
C83 C 0.919900 0.449700 0.688400
C84 C 0.578600 0.407440 0.752600
C85 C 0.567300 0.431590 0.846100
C86 C 0.378200 0.416860 0.915800
C87 C 0.747000 0.617620 0.125400
C88 C 0.253000 0.382380 0.874600
C89 C 0.621800 0.583140 0.084200
C90 C 0.736700 0.468630 0.870300
C91 C 0.432700 0.568410 0.153900
C92 C 0.421400 0.592560 0.247400
C93 C 0.104400 0.379200 0.171500
C94 C 0.080100 0.550300 0.311600
C95 C 0.284000 0.401270 0.230600
C96 C 0.240700 0.583970 0.332200
C97 C 1.009400 0.241860 0.796400
C98 C 1.118600 0.198080 0.838300
C99 C 0.959000 0.165090 0.790900
C100 C 0.963100 0.120240 0.790000
C101 C 0.205000 0.606190 0.428500
C102 C 0.784000 0.098730 0.730600
C103 C 0.015300 0.594930 0.499100
C104 C 0.604400 0.120800 0.671500
C105 C -0.142600 0.561190 0.475900
C106 C 0.600400 0.165500 0.668500
C107 C 0.779200 0.186180 0.730100
C108 C 0.433900 0.193590 0.607300
C109 C 0.447900 0.237820 0.611400
C110 C 0.260900 0.257490 0.546000
C111 C -0.110500 0.538510 0.380400
C112 C 0.116200 0.228680 0.494500
C113 C -0.248300 0.504130 0.324500
C114 C 0.639800 0.261510 0.678900
C115 C -0.111200 0.497330 0.214600
C116 C 0.139800 0.238490 0.178900
C117 C 0.463100 0.379760 0.290000
C118 C 0.459000 0.334910 0.290900
C119 C 0.618600 0.301920 0.338300
C120 C 0.509400 0.258140 0.296400
C121 C 0.490600 0.741860 0.703600
C122 C 0.381400 0.698080 0.661700
C123 C 0.541000 0.665090 0.709100
C124 C 0.536900 0.620240 0.710000
C125 C 0.236700 0.031370 0.370300
C126 C 0.716000 0.598730 0.769400
C127 C -0.247000 0.117620 0.374600
C128 C 0.895600 0.620800 0.828500
C129 C -0.121800 0.083140 0.415800
C130 C 0.899600 0.665500 0.831500
C131 C 0.720800 0.686180 0.769900
C132 C 1.066100 0.693590 0.892700
C133 C 1.052100 0.737820 0.888600
C134 C 1.239100 0.757490 0.954000
C135 C 0.067300 0.068410 0.346100
C136 C 1.383800 0.728680 1.005500
C137 C 0.078600 0.092560 0.252600
C138 C 0.860200 0.761510 0.821100
C139 C 0.419900 0.050300 0.188400
C140 C 0.259300 0.083970 0.167800
C141 C 0.295000 0.106190 0.071500
C142 C 0.484700 0.094930 0.000900
C143 C 0.360200 0.738490 0.321100
C144 C 0.642600 0.061190 0.024100
C145 C -0.009400 0.758140 0.203600
C146 C -0.118600 0.801920 0.161700
C147 C 0.041000 0.834910 0.209100
C148 C 0.036900 0.879760 0.210000
C149 C 0.610500 0.038510 0.119600
C150 C 0.216000 0.901270 0.269400
C151 C 0.748300 0.004130 0.175500
C152 C 0.395600 0.879200 0.328500
C153 C 0.705000 0.893810 0.928500
C154 C 0.399600 0.834500 0.331500
C155 C 0.220800 0.813820 0.269900
C156 C 0.566100 0.806410 0.392700
C157 C 0.552100 0.762180 0.388600
C158 C 0.739100 0.742510 0.454000
C159 C 0.611200 -0.002670 0.285400
C160 C 0.883800 0.771320 0.505500
N161 N 0.916200 0.474710 0.783800
N162 N 0.583800 0.974710 0.716200
N163 N 0.416200 0.025290 0.283800
N164 N 0.694200 0.731460 0.765400
N165 N 0.194200 0.768540 0.265400
N166 N 0.805800 0.231460 0.734600
N167 N 0.305800 0.268540 0.234600
N168 N 0.083800 0.525290 0.216200
O169 O -0.298100 0.804670 0.102000
O170 O 1.298100 0.195330 0.898000
O171 O 1.089600 0.277700 0.815000
O172 O -0.089600 0.722300 0.185000
O173 O 0.410400 0.777700 0.685000
O174 O 1.431200 0.515760 0.649900
O175 O 1.168600 0.527410 0.857300
O176 O 0.798100 0.304670 0.398000
O177 O 0.668600 -0.027410 0.357300
O178 O 0.068800 1.015760 0.850100
O179 O 0.331400 1.027410 0.642700
O180 O 0.201900 0.695330 0.602000
O181 O 0.931200 -0.015760 0.149900
O182 O -0.431200 0.484240 0.350100
O183 O -0.168600 0.472590 0.142700
O184 O 0.589600 0.222300 0.315000
S185 S 0.638400 0.632970 0.248700
S186 S 1.138400 0.867030 0.748700
S187 S 0.361600 0.367030 0.751300
S188 S 0.197500 0.176770 0.522520
S189 S 0.802500 0.823230 0.477480
S190 S 1.302500 0.676770 0.977480
S191 S -0.138400 0.132970 0.251300
S192 S -0.302500 0.323230 0.022520

#END
