
#######################################################################
#
#                 Cambridge Crystallographic Data Centre
#                                CCDC 
#
#######################################################################
#
# If this CIF has been generated from an entry in the Cambridge 
# Structural Database, then it will include bibliographic, chemical, 
# crystal, experimental, refinement or atomic coordinate data resulting 
# from the CCDC's data processing and validation procedures.
#
#######################################################################

data_ABOFOP
_symmetry_cell_setting           triclinic
_symmetry_space_group_name_H-M   'P -1'
_symmetry_Int_Tables_number      2
_space_group_name_Hall           '-P 1'
loop_
_symmetry_equiv_pos_site_id
_symmetry_equiv_pos_as_xyz
1 x,y,z
2 -x,-y,-z
_cell_length_a                   8.708(4)
_cell_length_b                   9.023(4)
_cell_length_c                   10.758(5)
_cell_angle_alpha                79.51(4)
_cell_angle_beta                 74.70(4)
_cell_angle_gamma                89.79(3)
_cell_volume                     800.817
loop_
_atom_site_label
_atom_site_type_symbol
_atom_site_fract_x
_atom_site_fract_y
_atom_site_fract_z
O1 O 0.2846(2) 0.22633(18) 0.02634(16)
C1 C 0.3123(3) 0.0806(3) 0.0772(3)
O2 O 0.2920(3) -0.0163(2) 0.0193(2)
C2 C 0.3644(3) 0.0602(3) 0.1956(2)
H1 H 0.3847 -0.0372 0.2317
C3 C 0.3855(3) 0.1707(2) 0.2566(2)
C4 C 0.4430(3) 0.1368(2) 0.3805(2)
H2 H 0.4521 0.0272 0.3999
C5 C 0.6084(3) 0.2062(3) 0.3594(2)
C6 C 0.7317(3) 0.1890(3) 0.2502(2)
H3 H 0.7115 0.1357 0.1895
C7 C 0.8823(3) 0.2499(3) 0.2314(3)
H4 H 0.9632 0.2373 0.1584
C8 C 0.9138(3) 0.3295(3) 0.3202(3)
H5 H 1.0151 0.3729 0.3059
C9 C 0.7962(3) 0.3449(3) 0.4296(3)
H6 H 0.8177 0.3966 0.4909
C10 C 0.6441(3) 0.2824(3) 0.4479(2)
O3 O 0.5331(2) 0.3034(3) 0.5619(2)
C11 C 0.3759(3) 0.2507(3) 0.5849(2)
C12 C 0.2731(4) 0.2762(4) 0.7011(3)
H7 H 0.3111 0.3243 0.7573
C13 C 0.1158(4) 0.2301(4) 0.7326(3)
H8 H 0.0461 0.2465 0.8103
C14 C 0.0623(4) 0.1600(4) 0.6487(3)
H9 H -0.0449 0.1303 0.6687
C15 C 0.1664(3) 0.1323(3) 0.5336(3)
H10 H 0.1285 0.0831 0.4781
C16 C 0.3269(3) 0.1780(3) 0.5009(2)
C17 C 0.3537(3) 0.3252(2) 0.2009(2)
C18 C 0.3696(3) 0.4533(2) 0.2527(2)
H11 H 0.4029 0.4438 0.3290
C19 C 0.3370(3) 0.5927(3) 0.1935(2)
H12 H 0.3488 0.6769 0.2293
C20 C 0.2862(3) 0.6086(3) 0.0796(3)
H13 H 0.2632 0.7035 0.0400
C21 C 0.2699(3) 0.4854(3) 0.0257(2)
H14 H 0.2364 0.4957 -0.0505
C22 C 0.3040(3) 0.3451(2) 0.0863(2)
O1 O 0.7154(2) 0.77367(18) 0.97366(16)
C1 C 0.6877(3) 0.9194(3) 0.9228(3)
O2 O 0.7080(3) 1.0163(2) 0.9807(2)
C2 C 0.6356(3) 0.9398(3) 0.8044(2)
H1 H 0.6153 1.0372 0.7683
C3 C 0.6145(3) 0.8293(2) 0.7434(2)
C4 C 0.5570(3) 0.8632(2) 0.6195(2)
H2 H 0.5479 0.9728 0.6001
C5 C 0.3916(3) 0.7938(3) 0.6406(2)
C6 C 0.2683(3) 0.8110(3) 0.7498(2)
H3 H 0.2885 0.8643 0.8105
C7 C 0.1177(3) 0.7501(3) 0.7686(3)
H4 H 0.0368 0.7627 0.8416
C8 C 0.0862(3) 0.6705(3) 0.6798(3)
H5 H -0.0151 0.6271 0.6941
C9 C 0.2038(3) 0.6551(3) 0.5704(3)
H6 H 0.1823 0.6034 0.5091
C10 C 0.3559(3) 0.7176(3) 0.5521(2)
O3 O 0.4669(2) 0.6966(3) 0.4381(2)
C11 C 0.6241(3) 0.7493(3) 0.4151(2)
C12 C 0.7269(4) 0.7238(4) 0.2989(3)
H7 H 0.6889 0.6757 0.2427
C13 C 0.8842(4) 0.7699(4) 0.2674(3)
H8 H 0.9539 0.7535 0.1897
C14 C 0.9377(4) 0.8400(4) 0.3513(3)
H9 H 1.0449 0.8697 0.3313
C15 C 0.8336(3) 0.8677(3) 0.4664(3)
H10 H 0.8715 0.9169 0.5219
C16 C 0.6731(3) 0.8220(3) 0.4991(2)
C17 C 0.6463(3) 0.6748(2) 0.7991(2)
C18 C 0.6304(3) 0.5467(2) 0.7473(2)
H11 H 0.5971 0.5562 0.6710
C19 C 0.6630(3) 0.4073(3) 0.8065(2)
H12 H 0.6512 0.3231 0.7707
C20 C 0.7138(3) 0.3914(3) 0.9204(3)
H13 H 0.7368 0.2965 0.9600
C21 C 0.7301(3) 0.5146(3) 0.9743(2)
H14 H 0.7636 0.5043 1.0505
C22 C 0.6960(3) 0.6549(2) 0.9137(2)

#END
