./ABOKOT_from_POSCAR.cif_generated_by_CrystalShift
_symmetry_cell_setting triclinic
_symmetry_space_group_name_H-M 'P 1'
loop_
_symmetry_equiv_pos_site_id
_symmetry_equiv_pos_as_xyz
1 x,y,z
_cell_length_a 11.092000
_cell_length_b 12.371000
_cell_length_c 15.530000
_cell_angle_alpha 100.918000
_cell_angle_beta 105.277000
_cell_angle_gamma 95.784000
_cell_volume 1992.795040
loop_
_atom_site_label
_atom_site_type_symbol
_atom_site_fract_x
_atom_site_fract_y
_atom_site_fract_z
H1 H 0.596400 0.527100 0.275400
H2 H 0.750200 0.934700 1.431100
H3 H 0.752300 0.631100 0.401300
H4 H 0.584500 -0.242200 0.425700
H5 H 0.929400 0.563400 0.459500
H6 H 1.406500 1.219000 1.235800
H7 H 1.132900 0.507200 0.901900
H8 H 0.626200 0.349900 0.212400
H9 H 1.155500 0.450200 0.809600
H10 H 1.071300 0.383200 0.854600
H11 H 0.282900 0.282800 -0.024600
H12 H 0.267700 -0.270600 0.563600
H13 H -0.059800 0.027500 -0.117100
H14 H 0.865200 0.873400 1.552000
H15 H 1.403300 1.379900 1.335300
H16 H 0.490700 0.686400 0.169000
H17 H 1.048900 1.263300 1.325400
H18 H 0.384300 1.138400 1.050700
H19 H 0.429400 0.981800 0.346500
H20 H 0.806200 0.285900 0.275700
H21 H 0.488200 1.215600 0.959800
H22 H 0.493800 1.055000 1.159000
H23 H 0.802700 1.119800 1.093700
H24 H 0.890100 0.293200 0.769000
H25 H 0.259900 0.862700 0.273600
H26 H 1.004800 0.568500 0.782700
H27 H 0.947000 0.445300 0.730900
H28 H 1.068600 0.823900 1.025400
H29 H 1.061700 0.666600 0.918000
H30 H 0.740100 0.137300 0.726400
H31 H -0.061700 0.333400 0.082000
H32 H 0.570600 0.018200 0.653500
H33 H -0.068600 0.176100 -0.025400
H34 H 0.509300 0.313600 0.831000
H35 H 0.053000 0.554700 0.269100
H36 H -0.004800 0.431500 0.217300
H37 H 1.059800 0.972500 1.117100
H38 H 0.717100 0.717200 1.024600
H39 H 0.109900 0.706800 0.231000
H40 H 1.048100 0.803400 1.544100
H41 H 0.197300 -0.119800 -0.093700
H42 H 1.234500 1.080000 1.181500
H43 H 0.570400 -0.095500 0.536300
H44 H 0.506200 -0.055000 -0.159000
H45 H 1.107500 0.796400 1.411000
H46 H 0.511800 -0.215600 0.040200
H47 H 0.559400 1.403100 1.616500
H48 H 0.615700 -0.138400 -0.050700
H49 H 0.014900 0.140900 0.706800
H50 H -0.048900 -0.263300 -0.325400
H51 H 0.716700 1.416400 1.547000
H52 H -0.403300 -0.379900 -0.335300
H53 H -0.222900 -0.402500 0.621400
H54 H 0.134800 0.126600 -0.552000
H55 H -0.107500 0.203600 0.589000
H56 H 0.732300 1.270600 0.436400
H57 H 0.429600 1.095500 1.463700
H58 H -0.071300 0.616800 0.145400
H59 H -0.155500 0.549800 0.190400
H60 H -0.132900 0.492800 0.098100
H61 H -0.234500 -0.080000 0.818500
H62 H -0.406500 -0.219000 -0.235800
H63 H -0.048100 0.196600 0.455900
H64 H 0.415500 1.242200 0.574300
H65 H 0.297000 -0.208700 1.015400
H66 H 0.249800 0.065300 -0.431100
H67 H 0.249800 0.065300 0.568900
H68 H 0.297000 -0.208700 0.015400
H69 H 0.415500 1.242200 1.574300
H70 H -0.048100 0.196600 -0.544100
H71 H -0.406500 -0.219000 0.764200
H72 H -0.234500 -0.080000 -0.181500
H73 H -0.132900 0.492800 1.098100
H74 H 0.429600 1.095500 0.463700
H75 H -0.155500 0.549800 1.190400
H76 H -0.107500 0.203600 -0.411000
H77 H -0.071300 0.616800 1.145400
H78 H -0.222900 -0.402500 -0.378600
H79 H 0.732300 1.270600 1.436400
H80 H 0.716700 1.416400 0.547000
H81 H 0.134800 0.126600 0.448000
H82 H 0.014900 0.140900 -0.293200
H83 H -0.403300 -0.379900 0.664700
H84 H 0.559400 1.403100 0.616500
H85 H -0.048900 -0.263300 0.674600
H86 H 0.403600 0.472900 0.724600
H87 H 0.615700 -0.138400 0.949300
H88 H 0.247700 0.368900 0.598700
H89 H 0.511800 -0.215600 1.040200
H90 H 0.070600 0.436600 0.540500
H91 H 0.506200 -0.055000 0.841000
H92 H 0.197300 -0.119800 0.906300
H93 H 0.373800 0.650100 0.787600
H94 H 0.109900 0.706800 1.231000
H95 H 0.717100 0.717200 0.024600
H96 H -0.004800 0.431500 1.217300
H97 H 1.059800 0.972500 0.117100
H98 H 0.053000 0.554700 1.269100
H99 H -0.068600 0.176100 0.974600
H100 H 0.509300 0.313600 -0.169000
H101 H -0.061700 0.333400 1.082000
H102 H 0.259900 0.862700 1.273600
H103 H 0.570600 0.018200 -0.346500
H104 H 1.222900 1.402500 1.378600
H105 H 0.429400 0.981800 1.346500
H106 H 0.490700 0.686400 1.169000
H107 H -0.059800 0.027500 0.882900
H108 H 0.282900 0.282800 0.975400
H109 H 0.740100 0.137300 -0.273600
H110 H 0.283300 -0.416400 0.453000
H111 H 0.985100 0.859100 1.293200
H112 H 0.440600 -0.403100 0.383500
H113 H 0.193800 0.714100 0.724300
H114 H 0.440600 -0.403100 -0.616500
H115 H 1.061700 0.666600 -0.082000
H116 H 0.985100 0.859100 0.293200
H117 H 1.068600 0.823900 0.025400
H118 H 0.283300 -0.416400 -0.547000
H119 H 0.947000 0.445300 -0.269100
H120 H 1.004800 0.568500 -0.217300
H121 H 1.222900 1.402500 0.378600
H122 H 0.703000 1.208700 0.984600
H123 H 0.890100 0.293200 -0.231000
H124 H 1.107500 0.796400 0.411000
H125 H 0.802700 1.119800 0.093700
H126 H 0.570400 -0.095500 -0.463700
H127 H 1.234500 1.080000 0.181500
H128 H 0.493800 1.055000 0.159000
H129 H 1.048100 0.803400 0.544100
H130 H 0.488200 1.215600 -0.040200
H131 H 0.703000 1.208700 -0.015400
H132 H 0.384300 1.138400 0.050700
H133 H 0.750200 0.934700 0.431100
H134 H 1.048900 1.263300 0.325400
H135 H 0.584500 -0.242200 -0.574300
H136 H 1.403300 1.379900 0.335300
H137 H 1.406500 1.219000 0.235800
H138 H 0.865200 0.873400 0.552000
H139 H 1.132900 0.507200 -0.098100
H140 H 0.267700 -0.270600 -0.436400
H141 H 1.155500 0.450200 -0.190400
H142 H 1.071300 0.383200 -0.145400
C143 C 1.095400 0.455200 -0.155900
C144 C 0.333000 -0.264000 -0.463200
C145 C 1.334300 1.228400 0.254300
C146 C 0.892200 0.870000 0.499800
C147 C 0.520300 -0.248500 -0.546400
C148 C 1.332900 1.324100 0.313100
C149 C 0.823700 0.906800 0.426700
C150 C 1.120800 1.253300 0.306600
C151 C 0.658100 1.177100 0.019000
C152 C 0.469900 1.135900 0.058300
C153 C 0.999800 0.828400 0.495400
C154 C 0.531400 1.181900 0.004700
C155 C 1.230800 1.144900 0.221600
C156 C 0.536500 1.086000 0.123300
C157 C 0.512000 -0.160700 -0.479500
C158 C 0.498300 0.110400 -0.257900
C159 C 1.034700 0.824600 0.416800
C160 C 0.717300 1.124300 0.085400
C161 C 0.811800 0.299100 -0.220900
C162 C 0.778300 0.615800 -0.066100
C163 C 0.342000 -0.351300 -0.530100
C164 C 0.979400 0.494800 -0.208900
C165 C 0.960700 0.862900 0.346400
C166 C 0.995300 0.771200 0.003500
C167 C 0.435200 -0.343800 -0.571500
C168 C 0.990800 0.676800 -0.061900
C169 C 0.405200 -0.076500 -0.361900
C170 C 0.204200 0.642700 0.698700
C171 C 0.893300 0.885600 0.112300
C172 C 0.435200 -0.343800 0.428500
C173 C 0.673200 0.405400 -0.161000
C174 C 0.960700 0.862900 1.346400
C175 C 0.580600 1.167400 1.435800
C176 C 1.006100 1.067100 0.216600
C177 C 0.342000 -0.351300 0.469900
C178 C 0.214000 0.291500 0.998200
C179 C 0.721900 0.204500 -0.245500
C180 C 0.004800 0.025200 0.855000
C181 C 0.789100 0.403200 -0.181500
C182 C 0.395900 0.792500 1.229200
C183 C 0.415300 0.690500 1.184200
C184 C 0.893800 0.789100 0.037000
C185 C -0.121900 -0.155900 0.752900
C186 C 0.499900 0.982400 1.324700
C187 C 0.882100 0.596200 -0.098400
C188 C 0.312700 0.605200 0.736900
C189 C 0.117900 0.403800 1.098400
C190 C 0.106200 0.210900 0.963000
C191 C 0.210900 0.596800 1.181500
C192 C 0.278100 0.795500 1.245500
C193 C 0.500100 0.017600 -0.324700
C194 C -0.006100 -0.067100 0.783400
C195 C 0.326800 0.594600 1.161000
C196 C 0.106700 0.114400 0.887700
C197 C 0.594800 1.076500 1.361900
C198 C 0.009200 0.323200 1.061900
C199 C 1.121900 1.155900 0.247100
C200 C 0.004700 0.228800 0.996500
C201 C 0.584700 0.309500 -0.184200
C202 C 0.020600 0.505200 1.208900
C203 C 0.604100 0.207500 -0.229200
C204 C 0.995200 0.974800 0.145000
C205 C 0.221700 0.384200 1.066100
C206 C 0.188200 0.700900 1.220900
C207 C 0.786000 0.708500 0.001800
C208 C 0.282700 -0.124300 0.914600
C209 C 0.132300 0.480900 0.591200
C210 C 0.501700 0.889600 1.257900
C211 C 0.463500 -0.086000 0.876700
C212 C 0.419400 -0.167400 -0.435800
C213 C 0.468600 -0.181900 0.995300
C214 C 0.238000 0.439900 0.625900
C215 C 0.530100 -0.135900 0.941700
C216 C 0.330700 0.500900 0.700000
C217 C -0.120800 -0.253300 0.693400
C218 C 0.795800 0.357300 0.301300
C219 C -0.332900 -0.324100 0.686900
C220 C 0.564800 1.343800 0.571500
C221 C 0.107800 0.130000 0.500200
C222 C 0.039300 0.137100 -0.346400
C223 C 0.667000 1.264000 1.463200
C224 C 0.658000 1.351300 0.530100
C225 C -0.095400 0.544800 1.155900
C226 C -0.225700 -0.336900 -0.338900
C227 C -0.034700 0.175400 -0.416800
C228 C 0.488000 1.160700 0.479500
C229 C -0.334300 -0.228400 0.745700
C230 C -0.230800 -0.144900 -0.221600
C231 C 0.479700 1.248500 1.546400
C232 C 0.000200 0.171600 -0.495400
C233 C 0.176300 0.093200 0.573300
C234 C 0.341900 -0.177100 -0.019000
C235 C 0.341900 -0.177100 0.981000
C236 C 0.176300 0.093200 -0.426700
C237 C 0.000200 0.171600 0.504600
C238 C 0.479700 1.248500 0.546400
C239 C -0.230800 -0.144900 0.778400
C240 C -0.334300 -0.228400 -0.254300
C241 C 0.488000 1.160700 1.479500
C242 C -0.095400 0.544800 0.155900
C243 C -0.034700 0.175400 0.583200
C244 C 0.667000 1.264000 0.463200
C245 C -0.225700 -0.336900 0.661100
C246 C 0.107800 0.130000 -0.499800
C247 C 0.658000 1.351300 1.530100
C248 C -0.332900 -0.324100 -0.313100
C249 C 0.039300 0.137100 0.653600
C250 C -0.120800 -0.253300 -0.306600
C251 C 0.564800 1.343800 1.571500
C252 C 0.530100 -0.135900 -0.058300
C253 C 1.225700 1.336900 1.338900
C254 C 0.468600 -0.181900 -0.004700
C255 C 1.034700 0.824600 1.416800
C256 C 0.463500 -0.086000 -0.123300
C257 C 0.512000 -0.160700 0.520500
C258 C 0.501700 0.889600 0.257900
C259 C 0.419400 -0.167400 0.564200
C260 C 1.230800 1.144900 1.221600
C261 C 0.282700 -0.124300 -0.085400
C262 C 0.786000 0.708500 1.001800
C263 C 0.188200 0.700900 0.220900
C264 C 0.995200 0.974800 1.145000
C265 C 0.221700 0.384200 0.066100
C266 C 0.604100 0.207500 0.770800
C267 C 0.584700 0.309500 0.815800
C268 C 0.020600 0.505200 0.208900
C269 C 1.121900 1.155900 1.247100
C270 C 0.500100 0.017600 0.675300
C271 C 0.004700 0.228800 -0.003500
C272 C 0.999800 0.828400 1.495400
C273 C 0.882100 0.596200 0.901600
C274 C 0.893800 0.789100 1.037000
C275 C 0.789100 0.403200 0.818500
C276 C 0.721900 0.204500 0.754500
C277 C 0.009200 0.323200 0.061900
C278 C 1.006100 1.067100 1.216600
C279 C 0.673200 0.405400 0.839000
C280 C 0.893300 0.885600 1.112300
C281 C 0.405200 -0.076500 0.638100
C282 C 0.990800 0.676800 0.938100
C283 C 0.594800 1.076500 0.361900
C284 C 0.995300 0.771200 1.003500
C285 C 0.106700 0.114400 -0.112300
C286 C 0.979400 0.494800 0.791100
C287 C 0.326800 0.594600 0.161000
C288 C -0.006100 -0.067100 -0.216600
C289 C 0.778300 0.615800 0.933900
C290 C 0.811800 0.299100 0.779100
C291 C 0.278100 0.795500 0.245500
C292 C 0.717300 1.124300 1.085400
C293 C 0.210900 0.596800 0.181500
C294 C 0.498300 0.110400 0.742100
C295 C 0.536500 1.086000 1.123300
C296 C 0.106200 0.210900 -0.037000
C297 C 0.531400 1.181900 1.004700
C298 C 0.117900 0.403800 0.098400
C299 C 0.469900 1.135900 1.058300
C300 C 0.499900 0.982400 0.324700
C301 C 1.120800 1.253300 1.306600
C302 C -0.121900 -0.155900 -0.247100
C303 C 1.332900 1.324100 1.313100
C304 C 0.415300 0.690500 0.184200
C305 C 0.892200 0.870000 1.499800
C306 C 0.395900 0.792500 0.229200
C307 C 0.333000 -0.264000 0.536800
C308 C 0.004800 0.025200 -0.145000
C309 C 1.095400 0.455200 0.844100
C310 C 0.214000 0.291500 -0.001800
C311 C 0.687300 0.394800 0.263100
C312 C 0.580600 1.167400 0.435800
C313 C 1.334300 1.228400 1.254300
C314 C 0.867700 0.519100 0.408800
C315 C 0.520300 -0.248500 0.453600
C316 C 0.762000 0.560100 0.374100
C317 C 0.823700 0.906800 1.426700
C318 C 0.669300 0.499100 0.300000
C319 C 0.658100 1.177100 1.019000
C320 C 1.225700 1.336900 0.338900
N321 N 0.659500 1.079600 1.138000
N322 N 0.856300 0.905000 1.350500
N323 N 0.123800 0.500100 0.165300
N324 N 0.143700 0.095000 -0.350500
N325 N 0.340500 -0.079600 -0.138000
N326 N 0.888000 0.417400 0.373400
N327 N 0.876200 0.499900 0.834700
N328 N 0.876200 0.499900 -0.165300
N329 N 0.856300 0.905000 0.350500
N330 N 0.340500 -0.079600 0.862000
N331 N 0.143700 0.095000 0.649500
N332 N 0.659500 1.079600 0.138000
N333 N 0.112000 0.582600 0.626600
N334 N 0.123800 0.500100 1.165300
O335 O 0.588700 0.878300 1.219120
O336 O 0.695300 1.091500 1.337750
O337 O 0.076200 -0.085000 0.740760
O338 O 0.076200 -0.085000 -0.259240
O339 O 0.203400 0.121400 -0.140760
O340 O 0.203400 0.121400 0.859240
O341 O 0.796600 0.878600 1.140760
O342 O 0.796600 0.878600 0.140760
O343 O 0.923800 1.085000 0.259240
O344 O 0.304700 -0.091500 -0.337750
O345 O 0.411300 0.121700 -0.219120
O346 O 0.923800 1.085000 1.259240
O347 O 0.304700 -0.091500 0.662250
O348 O 0.411300 0.121700 0.780880
O349 O 0.588700 0.878300 0.219120
O350 O 0.695300 1.091500 0.337750
S351 S 0.371050 0.468810 0.114630
S352 S 0.371050 0.468810 1.114630
S353 S 0.628950 0.531190 0.885370
S354 S 0.628950 0.531190 -0.114630
Zn355 Zn 0.753660 0.986210 1.241790
Zn356 Zn 0.246340 0.013790 0.758210
Zn357 Zn 0.246340 0.013790 -0.241790
Zn358 Zn 0.753660 0.986210 0.241790

#END
