./ABOKUY_from_POSCAR.cif_generated_by_CrystalShift
_symmetry_cell_setting triclinic
_symmetry_space_group_name_H-M 'P 1'
loop_
_symmetry_equiv_pos_site_id
_symmetry_equiv_pos_as_xyz
1 x,y,z
_cell_length_a 4.567100
_cell_length_b 13.695000
_cell_length_c 9.376000
_cell_angle_alpha 90.000000
_cell_angle_beta 94.221000
_cell_angle_gamma 90.000000
_cell_volume 584.844703
loop_
_atom_site_label
_atom_site_type_symbol
_atom_site_fract_x
_atom_site_fract_y
_atom_site_fract_z
H1 H 0.349600 0.591800 1.188000
H2 H -0.093300 0.643500 1.006300
H3 H -0.011800 0.650200 0.847000
H4 H 0.566900 0.921300 0.911900
H5 H -0.066900 0.421300 0.588100
H6 H 0.044500 0.796000 1.159000
H7 H 0.455500 0.296000 0.341000
H8 H 0.650400 0.408200 0.812000
H9 H 0.511800 0.150200 0.653000
H10 H 0.593300 0.143500 0.493700
H11 H 0.691400 0.469300 1.231100
H12 H 0.191400 0.030700 0.731100
H13 H 1.093300 0.356500 0.993700
H14 H 1.011800 0.349800 1.153000
H15 H 0.150400 0.091800 0.312000
H16 H 0.955500 0.204000 0.841000
H17 H 0.433100 0.078700 1.088100
H18 H 0.349600 0.591800 0.188000
H19 H 0.308600 0.530700 -0.231100
H20 H -0.093300 0.643500 0.006300
H21 H -0.011800 0.650200 -0.153000
H22 H 0.566900 0.921300 -0.088100
H23 H 0.044500 0.796000 0.159000
H24 H -0.455500 -0.296000 0.659000
H25 H 0.066900 -0.421300 0.411900
H26 H -0.511800 -0.150200 0.347000
H27 H -0.593300 -0.143500 0.506300
H28 H 0.650400 0.408200 -0.188000
H29 H -0.191400 -0.030700 0.268900
H30 H -0.150400 -0.091800 0.688000
H31 H 0.691400 0.469300 0.231100
H32 H 1.093300 0.356500 -0.006300
H33 H 1.011800 0.349800 0.153000
H34 H 0.955500 0.204000 -0.159000
H35 H -0.066900 1.421300 0.588100
H36 H 0.433100 0.078700 0.088100
H37 H 0.455500 1.296000 0.341000
H38 H 0.849600 0.908200 0.688000
H39 H 0.511800 1.150200 0.653000
H40 H 0.593300 1.143500 0.493700
H41 H 0.808600 0.969300 0.268900
H42 H 0.191400 1.030700 0.731100
H43 H 0.406700 0.856500 0.506300
H44 H 0.488200 0.849800 0.347000
H45 H 0.150400 1.091800 0.312000
H46 H 1.066900 0.578700 0.411900
H47 H 0.544500 0.704000 0.659000
H48 H 1.150400 1.091800 0.312000
H49 H 1.191400 1.030700 0.731100
H50 H 1.593300 1.143500 0.493700
H51 H 1.511800 1.150200 0.653000
H52 H 1.455500 1.296000 0.341000
H53 H 0.933100 1.421300 0.588100
H54 H -0.455500 0.704000 0.659000
H55 H 0.066900 0.578700 0.411900
H56 H -0.511800 0.849800 0.347000
H57 H -0.593300 0.856500 0.506300
H58 H 0.849600 -0.091800 0.688000
H59 H -0.191400 0.969300 0.268900
H60 H -0.150400 0.908200 0.688000
H61 H 0.808600 -0.030700 0.268900
H62 H 0.406700 -0.143500 0.506300
H63 H 0.488200 -0.150200 0.347000
H64 H 1.066900 -0.421300 0.411900
H65 H 0.933100 0.421300 0.588100
H66 H 0.544500 -0.296000 0.659000
H67 H 1.455500 0.296000 0.341000
H68 H 1.150400 0.091800 0.312000
H69 H 1.511800 0.150200 0.653000
H70 H 1.593300 0.143500 0.493700
H71 H 1.191400 0.030700 0.731100
H72 H 0.308600 0.530700 0.768900
C73 C 1.207000 0.074230 0.526430
C74 C 1.090100 0.054930 0.387810
C75 C 1.432800 0.153920 0.554230
C76 C 0.909900 -0.054930 0.612190
C77 C 0.793000 -0.074230 0.473570
C78 C 0.567200 -0.153920 0.445770
C79 C 0.385100 0.518580 0.861880
C80 C 0.058600 0.375840 0.551240
C81 C 0.941400 -0.375840 0.448760
C82 C 0.340100 0.309800 0.416170
C83 C 0.659900 -0.309800 0.583830
C84 C 1.340100 0.309800 0.416170
C85 C 1.058600 0.375840 0.551240
C86 C 0.159900 0.809800 1.083830
C87 C 0.441400 0.875840 0.948760
C88 C 0.885100 -0.018580 0.361880
C89 C 0.067200 0.653920 0.945770
C90 C -0.114900 0.981420 0.361880
C91 C 0.293000 0.574230 0.973570
C92 C 0.409900 0.554930 1.112190
C93 C 0.432800 0.153920 0.554230
C94 C 1.058600 1.375840 0.551240
C95 C -0.340100 0.690200 0.583830
C96 C 1.340100 1.309800 0.416170
C97 C 0.590100 0.445070 0.887810
C98 C 1.432800 1.153920 0.554230
C99 C -0.058600 0.624160 0.448760
C100 C 0.707000 0.425770 1.026430
C101 C 1.114900 1.018580 0.638120
C102 C 0.114900 0.018580 0.638120
C103 C 1.207000 1.074230 0.526430
C104 C 1.090100 1.054930 0.387810
C105 C -0.432800 0.846080 0.445770
C106 C 0.909900 0.945070 0.612190
C107 C 0.793000 0.925770 0.473570
C108 C 0.567200 0.846080 0.445770
C109 C 0.614900 0.481420 1.138120
C110 C 0.207000 0.074230 0.526430
C111 C 0.941400 0.624160 0.448760
C112 C 0.090100 0.054930 0.387810
C113 C 0.659900 0.690200 0.583830
C114 C -0.207000 0.925770 0.473570
C115 C -0.090100 0.945070 0.612190
C116 C 0.090100 1.054930 0.387810
C117 C 0.207000 1.074230 0.526430
C118 C 0.885100 0.981420 0.361880
C119 C 0.114900 1.018580 0.638120
C120 C 0.432800 1.153920 0.554230
C121 C 0.932800 0.346080 1.054230
C122 C -0.090100 -0.054930 0.612190
C123 C 0.840100 0.190200 0.916170
C124 C 0.558600 0.124160 0.051240
C125 C 0.340100 1.309800 0.416170
C126 C 0.840100 0.190200 -0.083830
C127 C 0.058600 1.375840 0.551240
C128 C 0.932800 0.346080 0.054230
C129 C -0.207000 -0.074230 0.473570
C130 C 0.558600 0.124160 1.051240
C131 C 0.614900 0.481420 0.138120
C132 C -0.432800 -0.153920 0.445770
C133 C 0.707000 0.425770 0.026430
C134 C 0.590100 0.445070 -0.112190
C135 C -0.114900 -0.018580 0.361880
C136 C 0.409900 0.554930 0.112190
C137 C 0.293000 0.574230 -0.026430
C138 C 0.067200 0.653920 -0.054230
C139 C 0.385100 0.518580 -0.138120
C140 C -0.058600 -0.375840 0.448760
C141 C 0.441400 0.875840 -0.051240
C142 C -0.340100 -0.309800 0.583830
C143 C 0.159900 0.809800 0.083830
C144 C 1.114900 0.018580 0.638120
N145 N -0.184700 -0.390510 0.572810
N146 N 0.374500 0.792780 -0.116360
N147 N -0.125500 -0.292780 0.383640
N148 N 0.190500 0.751100 -0.026520
N149 N -0.309500 -0.251100 0.473480
N150 N 0.309500 1.251100 0.526520
N151 N 0.809500 0.248900 1.026520
N152 N 0.625500 0.207220 1.116360
N153 N 0.684700 0.109490 0.927190
N154 N 0.125500 1.292780 0.616360
N155 N 0.184700 1.390510 0.427190
N156 N 0.684700 0.109490 -0.072810
N157 N 0.625500 0.207220 0.116360
N158 N 0.809500 0.248900 0.026520
N159 N 0.815300 0.609490 0.572810
N160 N 0.874500 0.707220 0.383640
N161 N 0.690500 0.748900 0.473480
N162 N -0.309500 0.748900 0.473480
N163 N -0.125500 0.707220 0.383640
N164 N -0.184700 0.609490 0.572810
N165 N 1.184700 1.390510 0.427190
N166 N 1.125500 1.292780 0.616360
N167 N 1.309500 1.251100 0.526520
N168 N 1.309500 0.251100 0.526520
N169 N 0.190500 0.751100 0.973480
N170 N 0.374500 0.792780 0.883640
N171 N 1.125500 0.292780 0.616360
N172 N 0.315300 0.890510 1.072810
N173 N 1.184700 0.390510 0.427190
N174 N 0.815300 -0.390510 0.572810
N175 N 0.874500 -0.292780 0.383640
N176 N 0.184700 0.390510 0.427190
N177 N 0.125500 0.292780 0.616360
N178 N 0.690500 -0.251100 0.473480
N179 N 0.315300 0.890510 0.072810
N180 N 0.309500 0.251100 0.526520

#END
