./ABONIQ_from_POSCAR.cif_generated_by_CrystalShift
_symmetry_cell_setting triclinic
_symmetry_space_group_name_H-M 'P 1'
loop_
_symmetry_equiv_pos_site_id
_symmetry_equiv_pos_as_xyz
1 x,y,z
_cell_length_a 9.283900
_cell_length_b 10.498000
_cell_length_c 13.759800
_cell_angle_alpha 96.530000
_cell_angle_beta 101.059000
_cell_angle_gamma 100.442000
_cell_volume 1278.952853
loop_
_atom_site_label
_atom_site_type_symbol
_atom_site_fract_x
_atom_site_fract_y
_atom_site_fract_z
H1 H 0.259300 -0.177900 0.898700
H2 H 0.156800 -0.092200 0.946500
H3 H 0.155400 -0.115600 0.647200
H4 H 0.082600 -0.243000 0.688600
H5 H 1.025000 0.764400 0.115900
H6 H 1.201000 0.820800 0.157100
H7 H 1.089700 0.919200 0.136100
H8 H 0.260600 -0.190100 0.716400
H9 H 0.045600 -0.059800 0.783200
H10 H 1.111400 0.763000 0.474400
H11 H 0.146000 0.435700 0.827100
H12 H 1.164500 0.584000 0.547100
H13 H 0.193400 0.553500 0.767700
H14 H 1.213000 0.403700 0.452600
H15 H 0.311500 0.525200 0.859600
H16 H 0.491200 0.514800 0.750400
H17 H 0.374600 0.533700 0.653900
H18 H 0.451400 0.409000 0.650800
H19 H 1.263200 0.221400 0.286800
H20 H 0.197600 0.356400 0.671600
H21 H 1.297400 0.131600 0.132200
H22 H 0.428000 0.001600 0.908000
H23 H 1.263900 0.240500 -0.005400
H24 H 0.598000 0.200500 0.933100
H25 H 1.193800 0.445200 0.007700
H26 H 0.533400 0.371700 0.853500
H27 H -0.086500 -0.039400 0.551400
H28 H -0.272300 -0.203800 0.446700
H29 H 1.392500 0.938000 0.296700
H30 H -0.515700 -0.242200 0.475600
H31 H 1.574100 1.110800 0.396600
H32 H -0.574100 -0.110800 0.603400
H33 H 1.515700 1.242200 0.524400
H34 H -0.392500 0.062000 0.703300
H35 H 1.272300 1.203800 0.553300
H36 H -0.193800 0.554800 0.992300
H37 H 1.086500 1.039400 0.448600
H38 H -0.263900 0.759500 1.005400
H39 H -0.297400 0.868400 0.867800
H40 H -0.263200 0.778600 0.713200
H41 H 0.466600 0.628300 0.146500
H42 H -0.213000 0.596300 0.547400
H43 H 0.402000 0.799500 0.066900
H44 H -0.164500 0.416000 0.452900
H45 H 0.572000 0.998400 0.092000
H46 H -0.111400 0.237000 0.525600
H47 H -0.089700 0.080800 0.863900
H48 H 0.802400 0.643600 0.328400
H49 H -0.201000 0.179200 0.842900
H50 H 0.548600 0.591000 0.349200
H51 H 0.625400 0.466300 0.346100
H52 H 0.508800 0.485200 0.249600
H53 H -0.025000 0.235600 0.884100
H54 H 0.688500 0.474800 0.140400
H55 H 0.806600 0.446500 0.232300
H56 H 0.854000 0.564300 0.172900
H57 H 0.740700 1.177900 0.101300
H58 H 0.954400 1.059800 0.216800
H59 H 0.919100 1.227900 0.125800
H60 H 0.739400 1.190100 0.283600
H61 H 0.917400 1.243000 0.311400
H62 H 0.844600 1.115600 0.352800
H63 H 0.843200 1.092200 0.053500
H64 H 0.080900 -0.227900 0.874200
C65 C 0.836800 1.164380 0.296000
C66 C 0.851000 1.078140 0.203210
C67 C 0.162700 -0.150530 0.887110
C68 C 1.100530 0.835920 0.159350
C69 C 1.127380 0.698070 0.332230
C70 C -0.100530 0.164080 0.840650
C71 C 0.771480 0.515080 0.197230
C72 C 0.588480 0.530670 0.306950
C73 C 0.717500 0.608010 0.269270
C74 C -0.127380 0.301930 0.667770
C75 C -0.131150 0.308720 0.566010
C76 C 0.741800 0.947300 0.186400
C77 C -0.162590 0.416100 0.522180
C78 C 0.599680 0.928640 0.124600
C79 C -0.191230 0.523110 0.577770
C80 C 0.498190 0.810640 0.109710
C81 C -0.187470 0.521480 0.679020
C82 C -0.156100 0.411510 0.720790
C83 C -0.209690 0.611370 0.760050
C84 C -0.249750 0.733030 0.769030
C85 C 0.536890 0.709180 0.157180
C86 C -0.269440 0.785710 0.860760
C87 C 0.676930 0.722510 0.220570
C88 C -0.249340 0.720560 0.943170
C89 C 0.780980 0.842960 0.235360
C90 C -0.208460 0.599860 0.936320
C91 C 1.186140 1.052650 0.438430
C92 C -0.190320 0.548900 0.843960
C93 C -0.219920 0.027170 0.637930
C94 C -0.366880 0.006760 0.652560
C95 C 1.295910 1.151350 0.499980
C96 C -0.474950 -0.095010 0.592250
C97 C 1.440540 1.173230 0.483420
C98 C -0.440540 -0.173230 0.516580
C99 C 1.474950 1.095010 0.407750
C100 C -0.295910 -0.151350 0.500020
C101 C 1.366880 0.993240 0.347440
C102 C -0.186140 -0.052650 0.561570
C103 C 1.219920 0.972830 0.362070
C104 C 0.219020 0.157040 0.764640
C105 C 0.323070 0.277490 0.779430
C106 C 0.463110 0.290820 0.842820
C107 C 1.190320 0.451100 0.156040
C108 C 0.501810 0.189360 0.890290
C109 C 1.208460 0.400140 0.063680
C110 C 0.400320 0.071360 0.875400
C111 C 1.249340 0.279440 0.056830
C112 C 0.258200 0.052700 0.813600
C113 C 0.282500 0.391990 0.730730
C114 C 1.269440 0.214290 0.139240
C115 C 0.411520 0.469330 0.693050
C116 C 1.249750 0.266970 0.230970
C117 C 1.209690 0.388630 0.239950
C118 C 1.156100 0.588490 0.279210
C119 C 0.228520 0.484920 0.802770
C120 C 1.187470 0.478520 0.320980
C121 C 1.191230 0.476890 0.422230
C122 C 1.162590 0.583900 0.477820
C123 C 0.149000 -0.078140 0.796790
C124 C 1.131150 0.691280 0.433990
C125 C 0.163200 -0.164380 0.704000
C126 C 0.837300 1.150530 0.112890
N127 N 0.920160 0.863320 0.303550
N128 N 0.079840 0.136680 0.696450
O129 O 1.156390 0.573120 0.177900
O130 O -0.156390 0.426880 0.822100
P131 P -0.074730 0.157850 0.714150
P132 P 1.074730 0.842150 0.285850

#END
