./LADBID_from_xyz.cif_generated_by_CrystalShift
_symmetry_cell_setting triclinic
_symmetry_space_group_name_H-M 'P 1'
loop_
_symmetry_equiv_pos_site_id
_symmetry_equiv_pos_as_xyz
1 x,y,z
_cell_length_a 8.238200
_cell_length_b 7.360300
_cell_length_c 17.790200
_cell_angle_alpha 90.000000
_cell_angle_beta 102.979000
_cell_angle_gamma 90.000000
_cell_volume 1051.161220
loop_
_atom_site_label
_atom_site_type_symbol
_atom_site_fract_x
_atom_site_fract_y
_atom_site_fract_z
N1 N 0.516140 0.920640 0.154360
H2 H 0.478100 1.033900 0.123600
C3 C 0.470270 0.887780 0.221430
N4 N 0.380030 1.011870 0.248210
H5 H 0.345900 1.114800 0.220200
H6 H 0.331900 0.978000 0.286700
C7 C 0.520010 0.722050 0.260480
H8 H 0.490200 0.696100 0.307900
C9 C 0.611160 0.600060 0.229340
H10 H 0.643800 0.488400 0.255100
C11 C 0.657140 0.638060 0.159450
H12 H 0.721800 0.554300 0.137900
C13 C 0.606230 0.798830 0.123520
H14 H 0.634600 0.825900 0.075800
N15 N 0.983860 0.420640 0.345640
H16 H 1.021900 0.533900 0.376400
C17 C 1.029730 0.387780 0.278570
N18 N 1.119970 0.511870 0.251790
H19 H 1.154100 0.614800 0.279800
H20 H 1.168100 0.478000 0.213300
C21 C 0.979990 0.222050 0.239520
H22 H 1.009800 0.196100 0.192100
C23 C 0.888840 0.100060 0.270660
H24 H 0.856200 -0.011600 0.244900
C25 C 0.842860 0.138060 0.340550
H26 H 0.778200 0.054300 0.362100
C27 C 0.893770 0.298830 0.376480
H28 H 0.865400 0.325900 0.424200
N29 N 0.483860 0.079360 0.845640
H30 H 0.521900 -0.033900 0.876400
C31 C 0.529730 0.112220 0.778570
N32 N 0.619970 -0.011870 0.751790
H33 H 0.654100 -0.114800 0.779800
H34 H 0.668100 0.022000 0.713300
C35 C 0.479990 0.277950 0.739520
H36 H 0.509800 0.303900 0.692100
C37 C 0.388840 0.399940 0.770660
H38 H 0.356200 0.511600 0.744900
C39 C 0.342860 0.361940 0.840550
H40 H 0.278200 0.445700 0.862100
C41 C 0.393770 0.201170 0.876480
H42 H 0.365400 0.174100 0.924200
N43 N 0.016140 0.579360 0.654360
H44 H -0.021900 0.466100 0.623600
C45 C -0.029730 0.612220 0.721430
N46 N -0.119970 0.488130 0.748210
H47 H -0.154100 0.385200 0.720200
H48 H -0.168100 0.522000 0.786700
C49 C 0.020010 0.777950 0.760480
H50 H -0.009800 0.803900 0.807900
C51 C 0.111160 0.899940 0.729340
H52 H 0.143800 1.011600 0.755100
C53 C 0.157140 0.861940 0.659450
H54 H 0.221800 0.945700 0.637900
C55 C 0.106230 0.701170 0.623520
H56 H 0.134600 0.674100 0.575800
C57 C 0.331950 -0.679570 0.089660
O58 O 0.424150 -0.798710 0.068610
O59 O 0.283380 -0.685250 0.151180
C60 C 0.277040 -0.523970 0.033850
H61 H 0.206400 -0.573900 -0.014200
H62 H 0.377200 -0.470600 0.020400
C63 C 0.181380 -0.372820 0.062810
H64 H 0.251600 -0.320300 0.110400
H65 H 0.080400 -0.424400 0.076100
C66 C 0.130220 -0.222560 0.003290
H67 H 0.231500 -0.170000 -0.009300
H68 H 0.061900 -0.275900 -0.044600
C69 C 0.031650 -0.071340 0.030810
H70 H 0.103300 -0.011400 0.076200
H71 H -0.064600 -0.125200 0.047500
C72 C -0.331950 0.679570 -0.089660
O73 O -0.424150 0.798710 -0.068610
O74 O -0.283380 0.685250 -0.151180
C75 C -0.277040 0.523970 -0.033850
H76 H -0.206400 0.573900 0.014200
H77 H -0.377200 0.470600 -0.020400
C78 C -0.181380 0.372820 -0.062810
H79 H -0.251600 0.320300 -0.110400
H80 H -0.080400 0.424400 -0.076100
C81 C -0.130220 0.222560 -0.003290
H82 H -0.231500 0.170000 0.009300
H83 H -0.061900 0.275900 0.044600
C84 C -0.031650 0.071340 -0.030810
H85 H -0.103300 0.011400 -0.076200
H86 H 0.064600 0.125200 -0.047500
C87 C 0.331950 -0.679570 1.089660
O88 O 0.424150 -0.798710 1.068610
O89 O 0.283380 -0.685250 1.151180
C90 C 0.277040 -0.523970 1.033850
H91 H 0.206400 -0.573900 0.985800
H92 H 0.377200 -0.470600 1.020400
C93 C 0.181380 -0.372820 1.062810
H94 H 0.251600 -0.320300 1.110400
H95 H 0.080400 -0.424400 1.076100
C96 C 0.130220 -0.222560 1.003290
H97 H 0.231500 -0.170000 0.990700
H98 H 0.061900 -0.275900 0.955400
C99 C 0.031650 -0.071340 1.030810
H100 H 0.103300 -0.011400 1.076200
H101 H -0.064600 -0.125200 1.047500
C102 C -0.331950 0.679570 0.910340
O103 O -0.424150 0.798710 0.931390
O104 O -0.283380 0.685250 0.848820
C105 C -0.277040 0.523970 0.966150
H106 H -0.206400 0.573900 1.014200
H107 H -0.377200 0.470600 0.979600
C108 C -0.181380 0.372820 0.937190
H109 H -0.251600 0.320300 0.889600
H110 H -0.080400 0.424400 0.923900
C111 C -0.130220 0.222560 0.996710
H112 H -0.231500 0.170000 1.009300
H113 H -0.061900 0.275900 1.044600
C114 C -0.031650 0.071340 0.969190
H115 H -0.103300 0.011400 0.923800
H116 H 0.064600 0.125200 0.952500
C117 C 0.331950 0.320430 0.089660
O118 O 0.424150 0.201290 0.068610
O119 O 0.283380 0.314750 0.151180
C120 C 0.277040 0.476030 0.033850
H121 H 0.206400 0.426100 -0.014200
H122 H 0.377200 0.529400 0.020400
C123 C 0.181380 0.627180 0.062810
H124 H 0.251600 0.679700 0.110400
H125 H 0.080400 0.575600 0.076100
C126 C 0.130220 0.777440 0.003290
H127 H 0.231500 0.830000 -0.009300
H128 H 0.061900 0.724100 -0.044600
C129 C 0.031650 0.928660 0.030810
H130 H 0.103300 0.988600 0.076200
H131 H -0.064600 0.874800 0.047500
C132 C -0.331950 1.679570 -0.089660
O133 O -0.424150 1.798710 -0.068610
O134 O -0.283380 1.685250 -0.151180
C135 C -0.277040 1.523970 -0.033850
H136 H -0.206400 1.573900 0.014200
H137 H -0.377200 1.470600 -0.020400
C138 C -0.181380 1.372820 -0.062810
H139 H -0.251600 1.320300 -0.110400
H140 H -0.080400 1.424400 -0.076100
C141 C -0.130220 1.222560 -0.003290
H142 H -0.231500 1.170000 0.009300
H143 H -0.061900 1.275900 0.044600
C144 C -0.031650 1.071340 -0.030810
H145 H -0.103300 1.011400 -0.076200
H146 H 0.064600 1.125200 -0.047500
C147 C 0.331950 0.320430 1.089660
O148 O 0.424150 0.201290 1.068610
O149 O 0.283380 0.314750 1.151180
C150 C 0.277040 0.476030 1.033850
H151 H 0.206400 0.426100 0.985800
H152 H 0.377200 0.529400 1.020400
C153 C 0.181380 0.627180 1.062810
H154 H 0.251600 0.679700 1.110400
H155 H 0.080400 0.575600 1.076100
C156 C 0.130220 0.777440 1.003290
H157 H 0.231500 0.830000 0.990700
H158 H 0.061900 0.724100 0.955400
C159 C 0.031650 0.928660 1.030810
H160 H 0.103300 0.988600 1.076200
H161 H -0.064600 0.874800 1.047500
C162 C -0.331950 1.679570 0.910340
O163 O -0.424150 1.798710 0.931390
O164 O -0.283380 1.685250 0.848820
C165 C -0.277040 1.523970 0.966150
H166 H -0.206400 1.573900 1.014200
H167 H -0.377200 1.470600 0.979600
C168 C -0.181380 1.372820 0.937190
H169 H -0.251600 1.320300 0.889600
H170 H -0.080400 1.424400 0.923900
C171 C -0.130220 1.222560 0.996710
H172 H -0.231500 1.170000 1.009300
H173 H -0.061900 1.275900 1.044600
C174 C -0.031650 1.071340 0.969190
H175 H -0.103300 1.011400 0.923800
H176 H 0.064600 1.125200 0.952500
C177 C 1.331950 -0.679570 0.089660
O178 O 1.424150 -0.798710 0.068610
O179 O 1.283380 -0.685250 0.151180
C180 C 1.277040 -0.523970 0.033850
H181 H 1.206400 -0.573900 -0.014200
H182 H 1.377200 -0.470600 0.020400
C183 C 1.181380 -0.372820 0.062810
H184 H 1.251600 -0.320300 0.110400
H185 H 1.080400 -0.424400 0.076100
C186 C 1.130220 -0.222560 0.003290
H187 H 1.231500 -0.170000 -0.009300
H188 H 1.061900 -0.275900 -0.044600
C189 C 1.031650 -0.071340 0.030810
H190 H 1.103300 -0.011400 0.076200
H191 H 0.935400 -0.125200 0.047500
C192 C 0.668050 0.679570 -0.089660
O193 O 0.575850 0.798710 -0.068610
O194 O 0.716620 0.685250 -0.151180
C195 C 0.722960 0.523970 -0.033850
H196 H 0.793600 0.573900 0.014200
H197 H 0.622800 0.470600 -0.020400
C198 C 0.818620 0.372820 -0.062810
H199 H 0.748400 0.320300 -0.110400
H200 H 0.919600 0.424400 -0.076100
C201 C 0.869780 0.222560 -0.003290
H202 H 0.768500 0.170000 0.009300
H203 H 0.938100 0.275900 0.044600
C204 C 0.968350 0.071340 -0.030810
H205 H 0.896700 0.011400 -0.076200
H206 H 1.064600 0.125200 -0.047500
C207 C 1.331950 -0.679570 1.089660
O208 O 1.424150 -0.798710 1.068610
O209 O 1.283380 -0.685250 1.151180
C210 C 1.277040 -0.523970 1.033850
H211 H 1.206400 -0.573900 0.985800
H212 H 1.377200 -0.470600 1.020400
C213 C 1.181380 -0.372820 1.062810
H214 H 1.251600 -0.320300 1.110400
H215 H 1.080400 -0.424400 1.076100
C216 C 1.130220 -0.222560 1.003290
H217 H 1.231500 -0.170000 0.990700
H218 H 1.061900 -0.275900 0.955400
C219 C 1.031650 -0.071340 1.030810
H220 H 1.103300 -0.011400 1.076200
H221 H 0.935400 -0.125200 1.047500
C222 C 0.668050 0.679570 0.910340
O223 O 0.575850 0.798710 0.931390
O224 O 0.716620 0.685250 0.848820
C225 C 0.722960 0.523970 0.966150
H226 H 0.793600 0.573900 1.014200
H227 H 0.622800 0.470600 0.979600
C228 C 0.818620 0.372820 0.937190
H229 H 0.748400 0.320300 0.889600
H230 H 0.919600 0.424400 0.923900
C231 C 0.869780 0.222560 0.996710
H232 H 0.768500 0.170000 1.009300
H233 H 0.938100 0.275900 1.044600
C234 C 0.968350 0.071340 0.969190
H235 H 0.896700 0.011400 0.923800
H236 H 1.064600 0.125200 0.952500
C237 C 1.331950 0.320430 0.089660
O238 O 1.424150 0.201290 0.068610
O239 O 1.283380 0.314750 0.151180
C240 C 1.277040 0.476030 0.033850
H241 H 1.206400 0.426100 -0.014200
H242 H 1.377200 0.529400 0.020400
C243 C 1.181380 0.627180 0.062810
H244 H 1.251600 0.679700 0.110400
H245 H 1.080400 0.575600 0.076100
C246 C 1.130220 0.777440 0.003290
H247 H 1.231500 0.830000 -0.009300
H248 H 1.061900 0.724100 -0.044600
C249 C 1.031650 0.928660 0.030810
H250 H 1.103300 0.988600 0.076200
H251 H 0.935400 0.874800 0.047500
C252 C 0.668050 1.679570 -0.089660
O253 O 0.575850 1.798710 -0.068610
O254 O 0.716620 1.685250 -0.151180
C255 C 0.722960 1.523970 -0.033850
H256 H 0.793600 1.573900 0.014200
H257 H 0.622800 1.470600 -0.020400
C258 C 0.818620 1.372820 -0.062810
H259 H 0.748400 1.320300 -0.110400
H260 H 0.919600 1.424400 -0.076100
C261 C 0.869780 1.222560 -0.003290
H262 H 0.768500 1.170000 0.009300
H263 H 0.938100 1.275900 0.044600
C264 C 0.968350 1.071340 -0.030810
H265 H 0.896700 1.011400 -0.076200
H266 H 1.064600 1.125200 -0.047500
C267 C 1.331950 0.320430 1.089660
O268 O 1.424150 0.201290 1.068610
O269 O 1.283380 0.314750 1.151180
C270 C 1.277040 0.476030 1.033850
H271 H 1.206400 0.426100 0.985800
H272 H 1.377200 0.529400 1.020400
C273 C 1.181380 0.627180 1.062810
H274 H 1.251600 0.679700 1.110400
H275 H 1.080400 0.575600 1.076100
C276 C 1.130220 0.777440 1.003290
H277 H 1.231500 0.830000 0.990700
H278 H 1.061900 0.724100 0.955400
C279 C 1.031650 0.928660 1.030810
H280 H 1.103300 0.988600 1.076200
H281 H 0.935400 0.874800 1.047500
C282 C 0.668050 1.679570 0.910340
O283 O 0.575850 1.798710 0.931390
O284 O 0.716620 1.685250 0.848820
C285 C 0.722960 1.523970 0.966150
H286 H 0.793600 1.573900 1.014200
H287 H 0.622800 1.470600 0.979600
C288 C 0.818620 1.372820 0.937190
H289 H 0.748400 1.320300 0.889600
H290 H 0.919600 1.424400 0.923900
C291 C 0.869780 1.222560 0.996710
H292 H 0.768500 1.170000 1.009300
H293 H 0.938100 1.275900 1.044600
C294 C 0.968350 1.071340 0.969190
H295 H 0.896700 1.011400 0.923800
H296 H 1.064600 1.125200 0.952500
C297 C 0.168050 -0.179570 0.410340
O298 O 0.075850 -0.298710 0.431390
O299 O 0.216620 -0.185250 0.348820
C300 C 0.222960 -0.023970 0.466150
H301 H 0.293600 -0.073900 0.514200
H302 H 0.122800 0.029400 0.479600
C303 C 0.318620 0.127180 0.437190
H304 H 0.248400 0.179700 0.389600
H305 H 0.419600 0.075600 0.423900
C306 C 0.369780 0.277440 0.496710
H307 H 0.268500 0.330000 0.509300
H308 H 0.438100 0.224100 0.544600
C309 C 0.468350 0.428660 0.469190
H310 H 0.396700 0.488600 0.423800
H311 H 0.564600 0.374800 0.452500
C312 C 0.831950 1.179570 0.589660
O313 O 0.924150 1.298710 0.568610
O314 O 0.783380 1.185250 0.651180
C315 C 0.777040 1.023970 0.533850
H316 H 0.706400 1.073900 0.485800
H317 H 0.877200 0.970600 0.520400
C318 C 0.681380 0.872820 0.562810
H319 H 0.751600 0.820300 0.610400
H320 H 0.580400 0.924400 0.576100
C321 C 0.630220 0.722560 0.503290
H322 H 0.731500 0.670000 0.490700
H323 H 0.561900 0.775900 0.455400
C324 C 0.531650 0.571340 0.530810
H325 H 0.603300 0.511400 0.576200
H326 H 0.435400 0.625200 0.547500

#END
