./LADBEZ_from_xyz.cif_generated_by_CrystalShift
_symmetry_cell_setting triclinic
_symmetry_space_group_name_H-M 'P 1'
loop_
_symmetry_equiv_pos_site_id
_symmetry_equiv_pos_as_xyz
1 x,y,z
_cell_length_a 6.615300
_cell_length_b 7.983200
_cell_length_c 11.143000
_cell_angle_alpha 90.000000
_cell_angle_beta 99.763000
_cell_angle_gamma 90.000000
_cell_volume 579.953380
loop_
_atom_site_label
_atom_site_type_symbol
_atom_site_fract_x
_atom_site_fract_y
_atom_site_fract_z
Cl1 Cl 1.312060 -0.071400 0.701700
C2 C 0.710720 0.209550 0.617660
C3 C 0.509140 0.301940 0.585190
O4 O 0.426700 0.360280 0.671330
O5 O 0.436220 0.313830 0.473980
C6 C 0.829480 0.182740 0.526800
H7 H 0.781800 0.222100 0.446500
C8 C 1.016800 0.099070 0.552550
H9 H 1.098600 0.083200 0.491100
C10 C 1.081620 0.039230 0.670320
C11 C 0.966200 0.062380 0.762230
H12 H 1.012200 0.019600 0.841700
C13 C 0.781070 0.149780 0.735460
H14 H 0.702100 0.168900 0.797800
Cl15 Cl 0.812060 1.071400 0.201700
C16 C 0.210720 0.790450 0.117660
C17 C 0.009140 0.698060 0.085190
O18 O -0.073300 0.639720 0.171330
O19 O -0.063780 0.686170 -0.026020
C20 C 0.329480 0.817260 0.026800
H21 H 0.281800 0.777900 -0.053500
C22 C 0.516800 0.900930 0.052550
H23 H 0.598600 0.916800 -0.008900
C24 C 0.581620 0.960770 0.170320
C25 C 0.466200 0.937620 0.262230
H26 H 0.512200 0.980400 0.341700
C27 C 0.281070 0.850220 0.235460
H28 H 0.202100 0.831100 0.297800
N29 N 1.071540 0.536770 0.610050
H30 H 1.195000 0.475000 0.626400
C31 C 1.001200 0.577100 0.491330
N32 N 1.104320 0.523730 0.406390
H33 H 1.215000 0.454000 0.427500
H34 H 1.050000 0.555000 0.332000
C35 C 0.819100 0.674530 0.464750
H36 H 0.767000 0.706200 0.383200
C37 C 0.719400 0.722370 0.557030
H38 H 0.596300 0.785600 0.539000
C39 C 0.797900 0.678560 0.679580
H40 H 0.729800 0.712500 0.744000
C41 C 0.973500 0.586560 0.702160
H42 H 1.028800 0.556500 0.783600
N43 N 0.571540 0.463230 0.110050
H44 H 0.695000 0.525000 0.126400
C45 C 0.501200 0.422900 -0.008670
N46 N 0.604320 0.476270 -0.093610
H47 H 0.715000 0.546000 -0.072500
H48 H 0.550000 0.445000 -0.168000
C49 C 0.319100 0.325470 -0.035250
H50 H 0.267000 0.293800 -0.116800
C51 C 0.219400 0.277630 0.057030
H52 H 0.096300 0.214400 0.039000
C53 C 0.297900 0.321440 0.179580
H54 H 0.229800 0.287500 0.244000
C55 C 0.473500 0.413440 0.202160
H56 H 0.528800 0.443500 0.283600

#END
