
#######################################################################
#
#                 Cambridge Crystallographic Data Centre
#                                CCDC 
#
#######################################################################
#
# If this CIF has been generated from an entry in the Cambridge 
# Structural Database, then it will include bibliographic, chemical, 
# crystal, experimental, refinement or atomic coordinate data resulting 
# from the CCDC's data processing and validation procedures.
#
#######################################################################

data_LADCAW
_symmetry_cell_setting           triclinic
_symmetry_space_group_name_H-M   'P -1'
_symmetry_Int_Tables_number      2
_space_group_name_Hall           '-P 1'
loop_
_symmetry_equiv_pos_site_id
_symmetry_equiv_pos_as_xyz
1 x,y,z
2 -x,-y,-z
_cell_length_a                   3.9019(2)
_cell_length_b                   12.5454(8)
_cell_length_c                   16.9260(10)
_cell_angle_alpha                73.128(3)
_cell_angle_beta                 86.428(3)
_cell_angle_gamma                85.881(3)
_cell_volume                     790.084
loop_
_atom_site_label
_atom_site_type_symbol
_atom_site_fract_x
_atom_site_fract_y
_atom_site_fract_z
Br1 Br 0.19124(4) 0.875203(11) 0.079408(8)
N1 N 0.3329(3) 0.54554(10) 0.21372(7)
C1 C 0.5257(3) 0.49928(11) 0.16214(8)
N2 N 0.6037(3) 0.38542(10) 0.19503(7)
H1 H 0.508(5) 0.3565(16) 0.2409(12)
C2 C 0.6326(4) 0.56282(12) 0.08289(8)
H2 H 0.7683 0.5290 0.0472
C3 C 0.5372(4) 0.67553(12) 0.05760(8)
H3 H 0.6075 0.7204 0.0043
C4 C 0.3369(4) 0.72240(11) 0.11132(8)
C5 C 0.2401(4) 0.65486(12) 0.18856(8)
H4 H 0.1031 0.6869 0.2251
C6 C 0.8007(4) 0.31564(12) 0.15824(8)
O1 O 0.9483(3) 0.34788(9) 0.09077(7)
C7 C 0.8249(4) 0.19521(12) 0.21117(8)
H5 H 0.5917 0.1723 0.2328
H6 H 0.9664 0.1893 0.2590
C8 C 0.9823(4) 0.11584(13) 0.16372(10)
H7 H 0.9926 0.0394 0.2006
H8 H 1.2151 0.1372 0.1431
H9 H 0.8403 0.1199 0.1171
Br1 Br 0.80876(4) 0.124797(11) 0.920592(8)
N1 N 0.6671(3) 0.45446(10) 0.78628(7)
C1 C 0.4743(3) 0.50072(11) 0.83786(8)
N2 N 0.3963(3) 0.61458(10) 0.80497(7)
H1 H 0.492(5) 0.6435(16) 0.7591(12)
C2 C 0.3674(4) 0.43718(12) 0.91711(8)
H2 H 0.2317 0.4710 0.9528
C3 C 0.4628(4) 0.32447(12) 0.94240(8)
H3 H 0.3925 0.2796 0.9957
C4 C 0.6631(4) 0.27760(11) 0.88868(8)
C5 C 0.7599(4) 0.34514(12) 0.81144(8)
H4 H 0.8969 0.3131 0.7749
C6 C 0.1993(4) 0.68436(12) 0.84176(8)
O1 O 0.0517(3) 0.65212(9) 0.90923(7)
C7 C 0.1751(4) 0.80479(12) 0.78883(8)
H5 H 0.4083 0.8277 0.7672
H6 H 0.0336 0.8107 0.7410
C8 C 0.0177(4) 0.88416(13) 0.83628(10)
H7 H 0.0074 0.9606 0.7994
H8 H -0.2151 0.8628 0.8569
H9 H 0.1597 0.8801 0.8829
Cl1 Cl 0.62555(10) -0.00186(3) 0.60965(2)
Cl2 Cl 0.35690(9) 0.15548(3) 0.71893(2)
C9 C 0.8784(3) 0.29998(11) 0.46891(8)
C10 C 0.8423(4) 0.18508(11) 0.49832(8)
H10 H 0.9308 0.1377 0.4662
C11 C 0.6765(3) 0.14030(11) 0.57470(8)
C12 C 0.5516(3) 0.21035(12) 0.62235(8)
C13 C 0.5857(4) 0.32488(12) 0.59285(8)
H11 H 0.4990 0.3723 0.6251
C14 C 0.7472(4) 0.36967(11) 0.51600(8)
H12 H 0.7684 0.4480 0.4954
C15 C 1.0632(4) 0.34613(11) 0.38731(8)
O2 O 1.0422(3) 0.45605(9) 0.36010(7)
H13 H 1.149(5) 0.4782(17) 0.3102(14)
O3 O 1.2200(3) 0.28613(9) 0.34995(6)
Cl1 Cl 0.37445(10) 1.00186(3) 0.39035(2)
Cl2 Cl 0.64310(9) 0.84452(3) 0.28107(2)
C9 C 0.1216(3) 0.70002(11) 0.53109(8)
C10 C 0.1577(4) 0.81492(11) 0.50168(8)
H10 H 0.0692 0.8623 0.5338
C11 C 0.3235(3) 0.85970(11) 0.42530(8)
C12 C 0.4484(3) 0.78965(12) 0.37765(8)
C13 C 0.4143(4) 0.67512(12) 0.40715(8)
H11 H 0.5010 0.6277 0.3749
C14 C 0.2528(4) 0.63033(11) 0.48400(8)
H12 H 0.2316 0.5520 0.5046
C15 C -0.0632(4) 0.65387(11) 0.61269(8)
O2 O -0.0422(3) 0.54395(9) 0.63990(7)
H13 H -0.149(5) 0.5218(17) 0.6898(14)
O3 O -0.2200(3) 0.71387(9) 0.65005(6)

#END
