
#######################################################################
#
#                 Cambridge Crystallographic Data Centre
#                                CCDC 
#
#######################################################################
#
# If this CIF has been generated from an entry in the Cambridge 
# Structural Database, then it will include bibliographic, chemical, 
# crystal, experimental, refinement or atomic coordinate data resulting 
# from the CCDC's data processing and validation procedures.
#
#######################################################################

data_LADCUQ
_symmetry_cell_setting           triclinic
_symmetry_space_group_name_H-M   'P -1'
_symmetry_Int_Tables_number      2
_space_group_name_Hall           '-P 1'
loop_
_symmetry_equiv_pos_site_id
_symmetry_equiv_pos_as_xyz
1 x,y,z
2 -x,-y,-z
_cell_length_a                   5.1849(4)
_cell_length_b                   11.4665(8)
_cell_length_c                   12.4870(9)
_cell_angle_alpha                71.293(2)
_cell_angle_beta                 81.204(2)
_cell_angle_gamma                88.593(2)
_cell_volume                     694.658
loop_
_atom_site_label
_atom_site_type_symbol
_atom_site_fract_x
_atom_site_fract_y
_atom_site_fract_z
Br1 Br -0.22286(4) -0.454445(15) 0.213776(15)
N1 N -0.2662(3) -0.10891(12) 0.24309(11)
C1 C -0.0482(3) -0.05162(14) 0.17696(13)
N2 N -0.0248(3) 0.07005(12) 0.17075(12)
H1 H -0.145(4) 0.0941(19) 0.2089(18)
C2 C 0.1355(3) -0.11091(15) 0.11985(14)
H2 H 0.2898 -0.0686 0.0742
C3 C 0.0873(3) -0.23214(15) 0.13148(14)
H3 H 0.2091 -0.2755 0.0944
C4 C -0.1406(3) -0.29007(14) 0.19789(13)
C5 C -0.3114(3) -0.22603(14) 0.25227(14)
H4 H -0.4672 -0.2666 0.2980
C6 C 0.1759(3) 0.15299(14) 0.11543(13)
O1 O 0.3740(2) 0.12933(11) 0.06230(11)
C7 C 0.1224(3) 0.27895(14) 0.12643(15)
H5 H 0.0406 0.2695 0.2059
H6 H -0.0032 0.3203 0.0749
C8 C 0.3670(3) 0.35937(15) 0.09733(16)
H7 H 0.3217 0.4397 0.1060
H8 H 0.4466 0.3708 0.0181
H9 H 0.4909 0.3197 0.1490
Br1 Br 1.22286(4) 1.454445(15) 0.786224(15)
N1 N 1.2662(3) 1.10891(12) 0.75691(11)
C1 C 1.0482(3) 1.05162(14) 0.82304(13)
N2 N 1.0248(3) 0.92995(12) 0.82925(12)
H1 H 1.145(4) 0.9059(19) 0.7911(18)
C2 C 0.8645(3) 1.11091(15) 0.88015(14)
H2 H 0.7102 1.0686 0.9258
C3 C 0.9127(3) 1.23214(15) 0.86852(14)
H3 H 0.7909 1.2755 0.9056
C4 C 1.1406(3) 1.29007(14) 0.80211(13)
C5 C 1.3114(3) 1.22603(14) 0.74773(14)
H4 H 1.4672 1.2666 0.7020
C6 C 0.8241(3) 0.84701(14) 0.88457(13)
O1 O 0.6260(2) 0.87067(11) 0.93770(11)
C7 C 0.8776(3) 0.72105(14) 0.87357(15)
H5 H 0.9594 0.7305 0.7941
H6 H 1.0032 0.6797 0.9251
C8 C 0.6330(3) 0.64063(15) 0.90267(16)
H7 H 0.6783 0.5603 0.8940
H8 H 0.5534 0.6292 0.9819
H9 H 0.5091 0.6803 0.8510
C9 C 0.4066(3) 0.09111(13) 0.37417(13)
O2 O 0.3534(2) -0.02055(11) 0.37418(11)
H10 H 0.463(5) -0.040(2) 0.335(2)
O3 O 0.6072(2) 0.14713(11) 0.32375(11)
C10 C 0.1958(3) 0.14306(14) 0.44073(13)
H11 H 0.1672 0.0891 0.5215
H12 H 0.0311 0.1437 0.4096
C11 C 0.2624(3) 0.27277(14) 0.43627(14)
H13 H 0.4112 0.2698 0.4781
H14 H 0.3188 0.3231 0.3555
C12 C 0.0376(3) 0.33511(14) 0.48697(14)
H15 H -0.0164 0.2866 0.5684
H16 H -0.1130 0.3372 0.4463
C13 C 0.1117(3) 0.46564(14) 0.47809(15)
H17 H 0.2566 0.4625 0.5221
H18 H 0.1761 0.5121 0.3970
C9A C -0.4066(3) 0.90889(13) 0.62583(13)
O2A O -0.3534(2) 1.02055(11) 0.62582(11)
H10A H -0.463(5) 1.040(2) 0.665(2)
O3A O -0.6072(2) 0.85287(11) 0.67625(11)
C10A C -0.1958(3) 0.85694(14) 0.55927(13)
H11A H -0.1672 0.9109 0.4785
H12A H -0.0311 0.8563 0.5904
C11A C -0.2624(3) 0.72723(14) 0.56373(14)
H13A H -0.4112 0.7302 0.5219
H14A H -0.3188 0.6769 0.6445
C12A C -0.0376(3) 0.66489(14) 0.51303(14)
H15A H 0.0164 0.7134 0.4316
H16A H 0.1130 0.6628 0.5537
C13A C -0.1117(3) 0.53436(14) 0.52191(15)
H17A H -0.2566 0.5375 0.4779
H18A H -0.1761 0.4879 0.6030
C9 C 1.4066(3) 0.09111(13) 0.37417(13)
O2 O 1.3534(2) -0.02055(11) 0.37418(11)
H10 H 1.463(5) -0.040(2) 0.335(2)
O3 O 1.6072(2) 0.14713(11) 0.32375(11)
C10 C 1.1958(3) 0.14306(14) 0.44073(13)
H11 H 1.1672 0.0891 0.5215
H12 H 1.0311 0.1437 0.4096
C11 C 1.2624(3) 0.27277(14) 0.43627(14)
H13 H 1.4112 0.2698 0.4781
H14 H 1.3188 0.3231 0.3555
C12 C 1.0376(3) 0.33511(14) 0.48697(14)
H15 H 0.9836 0.2866 0.5684
H16 H 0.8870 0.3372 0.4463
C13 C 1.1117(3) 0.46564(14) 0.47809(15)
H17 H 1.2566 0.4625 0.5221
H18 H 1.1761 0.5121 0.3970
C9A C 0.5934(3) 0.90889(13) 0.62583(13)
O2A O 0.6466(2) 1.02055(11) 0.62582(11)
H10A H 0.537(5) 1.040(2) 0.665(2)
O3A O 0.3928(2) 0.85287(11) 0.67625(11)
C10A C 0.8042(3) 0.85694(14) 0.55927(13)
H11A H 0.8328 0.9109 0.4785
H12A H 0.9689 0.8563 0.5904
C11A C 0.7376(3) 0.72723(14) 0.56373(14)
H13A H 0.5888 0.7302 0.5219
H14A H 0.6812 0.6769 0.6445
C12A C 0.9624(3) 0.66489(14) 0.51303(14)
H15A H 1.0164 0.7134 0.4316
H16A H 1.1130 0.6628 0.5537
C13A C 0.8883(3) 0.53436(14) 0.52191(15)
H17A H 0.7434 0.5375 0.4779
H18A H 0.8239 0.4879 0.6030

#END
