./LADCEA_from_xyz.cif_generated_by_CrystalShift
_symmetry_cell_setting triclinic
_symmetry_space_group_name_H-M 'P 1'
loop_
_symmetry_equiv_pos_site_id
_symmetry_equiv_pos_as_xyz
1 x,y,z
_cell_length_a 5.317200
_cell_length_b 8.654800
_cell_length_c 14.992700
_cell_angle_alpha 101.970000
_cell_angle_beta 93.037000
_cell_angle_gamma 100.816000
_cell_volume 659.921675
loop_
_atom_site_label
_atom_site_type_symbol
_atom_site_fract_x
_atom_site_fract_y
_atom_site_fract_z
Br1 Br 0.969170 -0.214560 0.238312
N2 N 0.546400 0.135260 0.233900
C3 C 0.653600 0.252700 0.306750
N4 N 0.535600 0.384270 0.319840
H5 H 0.429000 0.377000 0.283700
C6 C 0.862700 0.239700 0.363390
H7 H 0.935700 0.324200 0.414500
C8 C 0.960100 0.101100 0.343010
H9 H 1.102600 0.088700 0.379900
C10 C 0.848300 -0.020200 0.268090
C11 C 0.642700 0.000700 0.215460
H12 H 0.566300 -0.082900 0.164400
C13 C 0.595500 0.524300 0.386410
O14 O 0.771600 0.552590 0.446250
C15 C 0.417900 0.637600 0.377540
H16 H 0.242800 0.587900 0.389100
H17 H 0.409600 0.653400 0.314000
C18 C 0.502000 0.800500 0.443090
H19 H 0.383900 0.870700 0.432600
H20 H 0.676600 0.849600 0.432800
H21 H 0.499800 0.786600 0.506300
Br22 Br 0.030830 1.214560 0.761688
N23 N 0.453600 0.864740 0.766100
C24 C 0.346400 0.747300 0.693250
N25 N 0.464400 0.615730 0.680160
H26 H 0.571000 0.623000 0.716300
C27 C 0.137300 0.760300 0.636610
H28 H 0.064300 0.675800 0.585500
C29 C 0.039900 0.898900 0.656990
H30 H -0.102600 0.911300 0.620100
C31 C 0.151700 1.020200 0.731910
C32 C 0.357300 0.999300 0.784540
H33 H 0.433700 1.082900 0.835600
C34 C 0.404500 0.475700 0.613590
O35 O 0.228400 0.447410 0.553750
C36 C 0.582100 0.362400 0.622460
H37 H 0.757200 0.412100 0.610900
H38 H 0.590400 0.346600 0.686000
C39 C 0.498000 0.199500 0.556910
H40 H 0.616100 0.129300 0.567400
H41 H 0.323400 0.150400 0.567200
H42 H 0.500200 0.213400 0.493700
C43 C 1.059000 0.257500 0.117010
O44 O 1.160500 0.127540 0.102130
H45 H 1.264000 0.134000 0.141500
O46 O 1.130100 0.369800 0.182470
C47 C 0.848900 0.255200 0.045050
H48 H 0.708000 0.161300 0.042700
H49 H 0.917700 0.242500 -0.015500
C50 C 0.742400 0.408700 0.064450
H51 H 0.887500 0.502500 0.074000
H52 H 0.658600 0.414700 0.122100
C53 C 0.548900 0.421700 -0.011000
H54 H 0.630900 0.414900 -0.069100
H55 H 0.401200 0.329500 -0.020000
C56 C -0.059000 0.742500 -0.117010
O57 O -0.160500 0.872460 -0.102130
H58 H -0.264000 0.866000 -0.141500
O59 O -0.130100 0.630200 -0.182470
C60 C 0.151100 0.744800 -0.045050
H61 H 0.292000 0.838700 -0.042700
H62 H 0.082300 0.757500 0.015500
C63 C 0.257600 0.591300 -0.064450
H64 H 0.112500 0.497500 -0.074000
H65 H 0.341400 0.585300 -0.122100
C66 C 0.451100 0.578300 0.011000
H67 H 0.369100 0.585100 0.069100
H68 H 0.598800 0.670500 0.020000
C69 C 1.059000 0.257500 1.117010
O70 O 1.160500 0.127540 1.102130
H71 H 1.264000 0.134000 1.141500
O72 O 1.130100 0.369800 1.182470
C73 C 0.848900 0.255200 1.045050
H74 H 0.708000 0.161300 1.042700
H75 H 0.917700 0.242500 0.984500
C76 C 0.742400 0.408700 1.064450
H77 H 0.887500 0.502500 1.074000
H78 H 0.658600 0.414700 1.122100
C79 C 0.548900 0.421700 0.989000
H80 H 0.630900 0.414900 0.930900
H81 H 0.401200 0.329500 0.980000
C82 C -0.059000 0.742500 0.882990
O83 O -0.160500 0.872460 0.897870
H84 H -0.264000 0.866000 0.858500
O85 O -0.130100 0.630200 0.817530
C86 C 0.151100 0.744800 0.954950
H87 H 0.292000 0.838700 0.957300
H88 H 0.082300 0.757500 1.015500
C89 C 0.257600 0.591300 0.935550
H90 H 0.112500 0.497500 0.926000
H91 H 0.341400 0.585300 0.877900
C92 C 0.451100 0.578300 1.011000
H93 H 0.369100 0.585100 1.069100
H94 H 0.598800 0.670500 1.020000

#END
