
#######################################################################
#
#                 Cambridge Crystallographic Data Centre
#                                CCDC 
#
#######################################################################
#
# If this CIF has been generated from an entry in the Cambridge 
# Structural Database, then it will include bibliographic, chemical, 
# crystal, experimental, refinement or atomic coordinate data resulting 
# from the CCDC's data processing and validation procedures.
#
#######################################################################

data_LADCEB01
_symmetry_cell_setting           orthorhombic
_symmetry_space_group_name_H-M   'P 21 21 21'
_symmetry_Int_Tables_number      19
_space_group_name_Hall           'P 2ac 2ab'
loop_
_symmetry_equiv_pos_site_id
_symmetry_equiv_pos_as_xyz
1 x,y,z
2 1/2-x,-y,1/2+z
3 1/2+x,1/2-y,-z
4 -x,1/2+y,1/2-z
_cell_length_a                   5.3760(5)
_cell_length_b                   11.9366(11)
_cell_length_c                   13.1122(13)
_cell_angle_alpha                90
_cell_angle_beta                 90
_cell_angle_gamma                90
_cell_volume                     841.425
loop_
_atom_site_label
_atom_site_type_symbol
_atom_site_fract_x
_atom_site_fract_y
_atom_site_fract_z
O1 O 0.1807(3) 0.29254(12) 0.39803(11)
O2 O 0.5555(3) 0.16880(11) 0.17117(11)
C1 C 0.3460(4) 0.03589(15) 0.26719(14)
C2 C 0.2985(4) 0.20551(16) 0.17041(15)
H1 H 0.2784 0.2871 0.1708
O3 O 0.6781(3) -0.01510(12) 0.38688(11)
N1 N 0.4599(3) 0.14816(13) 0.40877(12)
H2 H 0.5361 0.1710 0.4626
C3 C 0.2694(4) 0.20649(16) 0.36376(15)
C4 C 0.3419(4) 0.03756(17) 0.07365(15)
H3 H 0.2334 -0.0272 0.0783
H4 H 0.4428 0.0317 0.0126
C5 C 0.1943(4) 0.14670(15) 0.26711(14)
H5 H 0.0145 0.1337 0.2631
C6 C 0.1916(4) 0.14848(17) 0.07553(15)
H6 H 0.2209 0.1927 0.0146
H7 H 0.0146 0.1346 0.0826
C7 C 0.5030(4) 0.04987(16) 0.16907(15)
H8 H 0.6528 0.0031 0.1680
C8 C 0.5181(4) 0.04894(15) 0.35931(14)
C9 C 0.2025(4) -0.07417(16) 0.27564(15)
H9 H 0.1292 -0.0798 0.3422
H10 H 0.3142 -0.1359 0.2652
H11 H 0.0740 -0.0761 0.2249
O1 O 0.3193(3) 0.70746(12) 0.89803(11)
O2 O -0.0555(3) 0.83120(11) 0.67117(11)
C1 C 0.1540(4) 0.96411(15) 0.76719(14)
C2 C 0.2015(4) 0.79449(16) 0.67041(15)
H1 H 0.2216 0.7129 0.6708
O3 O -0.1781(3) 1.01510(12) 0.88688(11)
N1 N 0.0401(3) 0.85184(13) 0.90877(12)
H2 H -0.0361 0.8290 0.9626
C3 C 0.2306(4) 0.79351(16) 0.86376(15)
C4 C 0.1581(4) 0.96244(17) 0.57365(15)
H3 H 0.2666 1.0272 0.5783
H4 H 0.0572 0.9683 0.5126
C5 C 0.3057(4) 0.85330(15) 0.76711(14)
H5 H 0.4855 0.8663 0.7631
C6 C 0.3084(4) 0.85152(17) 0.57553(15)
H6 H 0.2791 0.8073 0.5146
H7 H 0.4854 0.8654 0.5826
C7 C -0.0030(4) 0.95013(16) 0.66907(15)
H8 H -0.1528 0.9969 0.6680
C8 C -0.0181(4) 0.95106(15) 0.85931(14)
C9 C 0.2975(4) 1.07417(16) 0.77564(15)
H9 H 0.3708 1.0798 0.8422
H10 H 0.1858 1.1359 0.7652
H11 H 0.4260 1.0761 0.7249
O1 O 0.6807(3) 0.20746(12) 0.60197(11)
O2 O 1.0555(3) 0.33120(11) 0.82883(11)
C1 C 0.8460(4) 0.46411(15) 0.73281(14)
C2 C 0.7985(4) 0.29449(16) 0.82959(15)
H1 H 0.7784 0.2129 0.8292
O3 O 1.1781(3) 0.51510(12) 0.61312(11)
N1 N 0.9599(3) 0.35184(13) 0.59123(12)
H2 H 1.0361 0.3290 0.5374
C3 C 0.7694(4) 0.29351(16) 0.63624(15)
C4 C 0.8419(4) 0.46244(17) 0.92635(15)
H3 H 0.7334 0.5272 0.9217
H4 H 0.9428 0.4683 0.9874
C5 C 0.6943(4) 0.35330(15) 0.73289(14)
H5 H 0.5145 0.3663 0.7369
C6 C 0.6916(4) 0.35152(17) 0.92447(15)
H6 H 0.7209 0.3073 0.9854
H7 H 0.5146 0.3654 0.9174
C7 C 1.0030(4) 0.45013(16) 0.83093(15)
H8 H 1.1528 0.4969 0.8320
C8 C 1.0181(4) 0.45106(15) 0.64069(14)
C9 C 0.7025(4) 0.57417(16) 0.72436(15)
H9 H 0.6292 0.5798 0.6578
H10 H 0.8142 0.6359 0.7348
H11 H 0.5740 0.5761 0.7751
O1 O 0.8193(3) 0.79254(12) 0.10197(11)
O2 O 0.4445(3) 0.66880(11) 0.32883(11)
C1 C 0.6540(4) 0.53589(15) 0.23281(14)
C2 C 0.7015(4) 0.70551(16) 0.32959(15)
H1 H 0.7216 0.7871 0.3292
O3 O 0.3219(3) 0.48490(12) 0.11312(11)
N1 N 0.5401(3) 0.64816(13) 0.09123(12)
H2 H 0.4639 0.6710 0.0374
C3 C 0.7306(4) 0.70649(16) 0.13624(15)
C4 C 0.6581(4) 0.53756(17) 0.42635(15)
H3 H 0.7666 0.4728 0.4217
H4 H 0.5572 0.5317 0.4874
C5 C 0.8057(4) 0.64670(15) 0.23289(14)
H5 H 0.9855 0.6337 0.2369
C6 C 0.8084(4) 0.64848(17) 0.42447(15)
H6 H 0.7791 0.6927 0.4854
H7 H 0.9854 0.6346 0.4174
C7 C 0.4970(4) 0.54987(16) 0.33093(15)
H8 H 0.3472 0.5031 0.3320
C8 C 0.4819(4) 0.54894(15) 0.14069(14)
C9 C 0.7975(4) 0.42583(16) 0.22436(15)
H9 H 0.8708 0.4202 0.1578
H10 H 0.6858 0.3641 0.2348
H11 H 0.9260 0.4239 0.2751

#END
