
#######################################################################
#
#                 Cambridge Crystallographic Data Centre
#                                CCDC 
#
#######################################################################
#
# If this CIF has been generated from an entry in the Cambridge 
# Structural Database, then it will include bibliographic, chemical, 
# crystal, experimental, refinement or atomic coordinate data resulting 
# from the CCDC's data processing and validation procedures.
#
#######################################################################

data_LADCOL
_symmetry_cell_setting           orthorhombic
_symmetry_space_group_name_H-M   'P b c a'
_symmetry_Int_Tables_number      61
_space_group_name_Hall           '-P 2ac 2ab'
loop_
_symmetry_equiv_pos_site_id
_symmetry_equiv_pos_as_xyz
1 x,y,z
2 1/2-x,-y,1/2+z
3 1/2+x,1/2-y,-z
4 -x,1/2+y,1/2-z
5 -x,-y,-z
6 1/2+x,y,1/2-z
7 1/2-x,1/2+y,z
8 x,1/2-y,1/2+z
_cell_length_a                   8.0890(3)
_cell_length_b                   11.4563(4)
_cell_length_c                   23.8022(6)
_cell_angle_alpha                90
_cell_angle_beta                 90
_cell_angle_gamma                90
_cell_volume                     2205.75
loop_
_atom_site_label
_atom_site_type_symbol
_atom_site_fract_x
_atom_site_fract_y
_atom_site_fract_z
N1 N 0.1599(4) 0.6143(3) 0.41883(14)
O1 O 0.0009(4) 0.5837(4) 0.34152(15)
O2 O 0.3416(4) 0.3868(3) 0.38090(14)
O3 O 0.3762(6) 0.6375(4) 0.47994(15)
C1 C 0.1345(5) 0.5877(4) 0.36375(17)
C2 C 0.4281(5) 0.5803(4) 0.38293(18)
C3 C 0.3245(6) 0.6146(4) 0.43370(18)
C4 C 0.2992(5) 0.5621(4) 0.33592(16)
C5 C 0.0253(7) 0.6440(4) 0.4578(2)
H1 H -0.0569 0.6900 0.4381
H2 H 0.0692 0.6913 0.4881
C6 C 0.3121(6) 0.4300(4) 0.3257(2)
H3 H 0.2138 0.3965 0.3079
C7 C 0.4887(6) 0.4532(5) 0.3912(2)
H4 H 0.5370 0.4390 0.4284
C8 C -0.0569(7) 0.5369(5) 0.4823(3)
H5 H -0.1499 0.5613 0.5052
H6 H -0.0998 0.4895 0.4519
C9 C 0.6003(8) 0.4150(6) 0.3428(3)
H7 H 0.6560 0.3420 0.3511
H8 H 0.6821 0.4741 0.3339
C10 C 0.4751(8) 0.4004(6) 0.2950(3)
H9 H 0.4744 0.3212 0.2805
H10 H 0.4966 0.4543 0.2644
C11 C 0.5601(7) 0.6747(6) 0.3744(3)
H11 H 0.6209 0.6588 0.3406
H12 H 0.6344 0.6748 0.4058
H13 H 0.5077 0.7496 0.3714
C12 C 0.3128(12) 0.6309(7) 0.2827(3)
H14 H 0.2276 0.6068 0.2571
H15 H 0.4191 0.6175 0.2659
H16 H 0.3005 0.7125 0.2908
N1D N -0.1599(4) 0.3857(3) 0.58117(14)
O1D O -0.0009(4) 0.4163(4) 0.65848(15)
O2D O -0.3416(4) 0.6132(3) 0.61910(14)
O3D O -0.3762(6) 0.3625(4) 0.52006(15)
C1D C -0.1345(5) 0.4123(4) 0.63625(17)
C2D C -0.4281(5) 0.4197(4) 0.61707(18)
C3D C -0.3245(6) 0.3854(4) 0.56630(18)
C4D C -0.2992(5) 0.4379(4) 0.66408(16)
C5D C -0.0253(7) 0.3560(4) 0.5422(2)
H1D H 0.0569 0.3100 0.5619
H2D H -0.0692 0.3087 0.5119
C6D C -0.3121(6) 0.5700(4) 0.6743(2)
H3D H -0.2138 0.6035 0.6921
C7D C -0.4887(6) 0.5468(5) 0.6088(2)
H4D H -0.5370 0.5610 0.5716
C8D C 0.0569(7) 0.4631(5) 0.5177(3)
H5D H 0.1499 0.4387 0.4948
H6D H 0.0998 0.5105 0.5481
C9D C -0.6003(8) 0.5850(6) 0.6572(3)
H7D H -0.6560 0.6580 0.6489
H8D H -0.6821 0.5259 0.6661
C10D C -0.4751(8) 0.5996(6) 0.7050(3)
H9D H -0.4744 0.6788 0.7195
H10D H -0.4966 0.5457 0.7356
C11D C -0.5601(7) 0.3253(6) 0.6256(3)
H11D H -0.6209 0.3412 0.6594
H12D H -0.6344 0.3252 0.5942
H13D H -0.5077 0.2504 0.6286
C12D C -0.3128(12) 0.3691(7) 0.7173(3)
H14D H -0.2276 0.3932 0.7429
H15D H -0.4191 0.3825 0.7341
H16D H -0.3005 0.2875 0.7092
N1 N 1.1599(4) 0.6143(3) 0.41883(14)
O1 O 1.0009(4) 0.5837(4) 0.34152(15)
O2 O 1.3416(4) 0.3868(3) 0.38090(14)
O3 O 1.3762(6) 0.6375(4) 0.47994(15)
C1 C 1.1345(5) 0.5877(4) 0.36375(17)
C2 C 1.4281(5) 0.5803(4) 0.38293(18)
C3 C 1.3245(6) 0.6146(4) 0.43370(18)
C4 C 1.2992(5) 0.5621(4) 0.33592(16)
C5 C 1.0253(7) 0.6440(4) 0.4578(2)
H1 H 0.9431 0.6900 0.4381
H2 H 1.0692 0.6913 0.4881
C6 C 1.3121(6) 0.4300(4) 0.3257(2)
H3 H 1.2138 0.3965 0.3079
C7 C 1.4887(6) 0.4532(5) 0.3912(2)
H4 H 1.5370 0.4390 0.4284
C8 C 0.9431(7) 0.5369(5) 0.4823(3)
H5 H 0.8501 0.5613 0.5052
H6 H 0.9002 0.4895 0.4519
C9 C 1.6003(8) 0.4150(6) 0.3428(3)
H7 H 1.6560 0.3420 0.3511
H8 H 1.6821 0.4741 0.3339
C10 C 1.4751(8) 0.4004(6) 0.2950(3)
H9 H 1.4744 0.3212 0.2805
H10 H 1.4966 0.4543 0.2644
C11 C 1.5601(7) 0.6747(6) 0.3744(3)
H11 H 1.6209 0.6588 0.3406
H12 H 1.6344 0.6748 0.4058
H13 H 1.5077 0.7496 0.3714
C12 C 1.3128(12) 0.6309(7) 0.2827(3)
H14 H 1.2276 0.6068 0.2571
H15 H 1.4191 0.6175 0.2659
H16 H 1.3005 0.7125 0.2908
N1D N 0.8401(4) 0.3857(3) 0.58117(14)
O1D O 0.9991(4) 0.4163(4) 0.65848(15)
O2D O 0.6584(4) 0.6132(3) 0.61910(14)
O3D O 0.6238(6) 0.3625(4) 0.52006(15)
C1D C 0.8655(5) 0.4123(4) 0.63625(17)
C2D C 0.5719(5) 0.4197(4) 0.61707(18)
C3D C 0.6755(6) 0.3854(4) 0.56630(18)
C4D C 0.7008(5) 0.4379(4) 0.66408(16)
C5D C 0.9747(7) 0.3560(4) 0.5422(2)
H1D H 1.0569 0.3100 0.5619
H2D H 0.9308 0.3087 0.5119
C6D C 0.6879(6) 0.5700(4) 0.6743(2)
H3D H 0.7862 0.6035 0.6921
C7D C 0.5113(6) 0.5468(5) 0.6088(2)
H4D H 0.4630 0.5610 0.5716
C8D C 1.0569(7) 0.4631(5) 0.5177(3)
H5D H 1.1499 0.4387 0.4948
H6D H 1.0998 0.5105 0.5481
C9D C 0.3997(8) 0.5850(6) 0.6572(3)
H7D H 0.3440 0.6580 0.6489
H8D H 0.3179 0.5259 0.6661
C10D C 0.5249(8) 0.5996(6) 0.7050(3)
H9D H 0.5256 0.6788 0.7195
H10D H 0.5034 0.5457 0.7356
C11D C 0.4399(7) 0.3253(6) 0.6256(3)
H11D H 0.3791 0.3412 0.6594
H12D H 0.3656 0.3252 0.5942
H13D H 0.4923 0.2504 0.6286
C12D C 0.6872(12) 0.3691(7) 0.7173(3)
H14D H 0.7724 0.3932 0.7429
H15D H 0.5809 0.3825 0.7341
H16D H 0.6995 0.2875 0.7092
N1 N 0.3401(4) 0.3857(3) -0.08117(14)
O1 O 0.4991(4) 0.4163(4) -0.15848(15)
O2 O 0.1584(4) 0.6132(3) -0.11910(14)
O3 O 0.1238(6) 0.3625(4) -0.02006(15)
C1 C 0.3655(5) 0.4123(4) -0.13625(17)
C2 C 0.0719(5) 0.4197(4) -0.11707(18)
C3 C 0.1755(6) 0.3854(4) -0.06630(18)
C4 C 0.2008(5) 0.4379(4) -0.16408(16)
C5 C 0.4747(7) 0.3560(4) -0.0422(2)
H1 H 0.5569 0.3100 -0.0619
H2 H 0.4308 0.3087 -0.0119
C6 C 0.1879(6) 0.5700(4) -0.1743(2)
H3 H 0.2862 0.6035 -0.1921
C7 C 0.0113(6) 0.5468(5) -0.1088(2)
H4 H -0.0370 0.5610 -0.0716
C8 C 0.5569(7) 0.4631(5) -0.0177(3)
H5 H 0.6499 0.4387 0.0052
H6 H 0.5998 0.5105 -0.0481
C9 C -0.1003(8) 0.5850(6) -0.1572(3)
H7 H -0.1560 0.6580 -0.1489
H8 H -0.1821 0.5259 -0.1661
C10 C 0.0249(8) 0.5996(6) -0.2050(3)
H9 H 0.0256 0.6788 -0.2195
H10 H 0.0034 0.5457 -0.2356
C11 C -0.0601(7) 0.3253(6) -0.1256(3)
H11 H -0.1209 0.3412 -0.1594
H12 H -0.1344 0.3252 -0.0942
H13 H -0.0077 0.2504 -0.1286
C12 C 0.1872(12) 0.3691(7) -0.2173(3)
H14 H 0.2724 0.3932 -0.2429
H15 H 0.0809 0.3825 -0.2341
H16 H 0.1995 0.2875 -0.2092
N1D N 0.6599(4) 0.6143(3) 0.08117(14)
O1D O 0.5009(4) 0.5837(4) 0.15848(15)
O2D O 0.8416(4) 0.3868(3) 0.11910(14)
O3D O 0.8762(6) 0.6375(4) 0.02006(15)
C1D C 0.6345(5) 0.5877(4) 0.13625(17)
C2D C 0.9281(5) 0.5803(4) 0.11707(18)
C3D C 0.8245(6) 0.6146(4) 0.06630(18)
C4D C 0.7992(5) 0.5621(4) 0.16408(16)
C5D C 0.5253(7) 0.6440(4) 0.0422(2)
H1D H 0.4431 0.6900 0.0619
H2D H 0.5692 0.6913 0.0119
C6D C 0.8121(6) 0.4300(4) 0.1743(2)
H3D H 0.7138 0.3965 0.1921
C7D C 0.9887(6) 0.4532(5) 0.1088(2)
H4D H 1.0370 0.4390 0.0716
C8D C 0.4431(7) 0.5369(5) 0.0177(3)
H5D H 0.3501 0.5613 -0.0052
H6D H 0.4002 0.4895 0.0481
C9D C 1.1003(8) 0.4150(6) 0.1572(3)
H7D H 1.1560 0.3420 0.1489
H8D H 1.1821 0.4741 0.1661
C10D C 0.9751(8) 0.4004(6) 0.2050(3)
H9D H 0.9744 0.3212 0.2195
H10D H 0.9966 0.4543 0.2356
C11D C 1.0601(7) 0.6747(6) 0.1256(3)
H11D H 1.1209 0.6588 0.1594
H12D H 1.1344 0.6748 0.0942
H13D H 1.0077 0.7496 0.1286
C12D C 0.8128(12) 0.6309(7) 0.2173(3)
H14D H 0.7276 0.6068 0.2429
H15D H 0.9191 0.6175 0.2341
H16D H 0.8005 0.7125 0.2092
N1 N 0.3401(4) 0.3857(3) 0.91883(14)
O1 O 0.4991(4) 0.4163(4) 0.84152(15)
O2 O 0.1584(4) 0.6132(3) 0.88090(14)
O3 O 0.1238(6) 0.3625(4) 0.97994(15)
C1 C 0.3655(5) 0.4123(4) 0.86375(17)
C2 C 0.0719(5) 0.4197(4) 0.88293(18)
C3 C 0.1755(6) 0.3854(4) 0.93370(18)
C4 C 0.2008(5) 0.4379(4) 0.83592(16)
C5 C 0.4747(7) 0.3560(4) 0.9578(2)
H1 H 0.5569 0.3100 0.9381
H2 H 0.4308 0.3087 0.9881
C6 C 0.1879(6) 0.5700(4) 0.8257(2)
H3 H 0.2862 0.6035 0.8079
C7 C 0.0113(6) 0.5468(5) 0.8912(2)
H4 H -0.0370 0.5610 0.9284
C8 C 0.5569(7) 0.4631(5) 0.9823(3)
H5 H 0.6499 0.4387 1.0052
H6 H 0.5998 0.5105 0.9519
C9 C -0.1003(8) 0.5850(6) 0.8428(3)
H7 H -0.1560 0.6580 0.8511
H8 H -0.1821 0.5259 0.8339
C10 C 0.0249(8) 0.5996(6) 0.7950(3)
H9 H 0.0256 0.6788 0.7805
H10 H 0.0034 0.5457 0.7644
C11 C -0.0601(7) 0.3253(6) 0.8744(3)
H11 H -0.1209 0.3412 0.8406
H12 H -0.1344 0.3252 0.9058
H13 H -0.0077 0.2504 0.8714
C12 C 0.1872(12) 0.3691(7) 0.7827(3)
H14 H 0.2724 0.3932 0.7571
H15 H 0.0809 0.3825 0.7659
H16 H 0.1995 0.2875 0.7908
N1D N 0.6599(4) 0.6143(3) 1.08117(14)
O1D O 0.5009(4) 0.5837(4) 1.15848(15)
O2D O 0.8416(4) 0.3868(3) 1.11910(14)
O3D O 0.8762(6) 0.6375(4) 1.02006(15)
C1D C 0.6345(5) 0.5877(4) 1.13625(17)
C2D C 0.9281(5) 0.5803(4) 1.11707(18)
C3D C 0.8245(6) 0.6146(4) 1.06630(18)
C4D C 0.7992(5) 0.5621(4) 1.16408(16)
C5D C 0.5253(7) 0.6440(4) 1.0422(2)
H1D H 0.4431 0.6900 1.0619
H2D H 0.5692 0.6913 1.0119
C6D C 0.8121(6) 0.4300(4) 1.1743(2)
H3D H 0.7138 0.3965 1.1921
C7D C 0.9887(6) 0.4532(5) 1.1088(2)
H4D H 1.0370 0.4390 1.0716
C8D C 0.4431(7) 0.5369(5) 1.0177(3)
H5D H 0.3501 0.5613 0.9948
H6D H 0.4002 0.4895 1.0481
C9D C 1.1003(8) 0.4150(6) 1.1572(3)
H7D H 1.1560 0.3420 1.1489
H8D H 1.1821 0.4741 1.1661
C10D C 0.9751(8) 0.4004(6) 1.2050(3)
H9D H 0.9744 0.3212 1.2195
H10D H 0.9966 0.4543 1.2356
C11D C 1.0601(7) 0.6747(6) 1.1256(3)
H11D H 1.1209 0.6588 1.1594
H12D H 1.1344 0.6748 1.0942
H13D H 1.0077 0.7496 1.1286
C12D C 0.8128(12) 0.6309(7) 1.2173(3)
H14D H 0.7276 0.6068 1.2429
H15D H 0.9191 0.6175 1.2341
H16D H 0.8005 0.7125 1.2092
N1 N 0.6599(4) -0.1143(3) 0.58117(14)
O1 O 0.5009(4) -0.0837(4) 0.65848(15)
O2 O 0.8416(4) 0.1132(3) 0.61910(14)
O3 O 0.8762(6) -0.1375(4) 0.52006(15)
C1 C 0.6345(5) -0.0877(4) 0.63625(17)
C2 C 0.9281(5) -0.0803(4) 0.61707(18)
C3 C 0.8245(6) -0.1146(4) 0.56630(18)
C4 C 0.7992(5) -0.0621(4) 0.66408(16)
C5 C 0.5253(7) -0.1440(4) 0.5422(2)
H1 H 0.4431 -0.1900 0.5619
H2 H 0.5692 -0.1913 0.5119
C6 C 0.8121(6) 0.0700(4) 0.6743(2)
H3 H 0.7138 0.1035 0.6921
C7 C 0.9887(6) 0.0468(5) 0.6088(2)
H4 H 1.0370 0.0610 0.5716
C8 C 0.4431(7) -0.0369(5) 0.5177(3)
H5 H 0.3501 -0.0613 0.4948
H6 H 0.4002 0.0105 0.5481
C9 C 1.1003(8) 0.0850(6) 0.6572(3)
H7 H 1.1560 0.1580 0.6489
H8 H 1.1821 0.0259 0.6661
C10 C 0.9751(8) 0.0996(6) 0.7050(3)
H9 H 0.9744 0.1788 0.7195
H10 H 0.9966 0.0457 0.7356
C11 C 1.0601(7) -0.1747(6) 0.6256(3)
H11 H 1.1209 -0.1588 0.6594
H12 H 1.1344 -0.1748 0.5942
H13 H 1.0077 -0.2496 0.6286
C12 C 0.8128(12) -0.1309(7) 0.7173(3)
H14 H 0.7276 -0.1068 0.7429
H15 H 0.9191 -0.1175 0.7341
H16 H 0.8005 -0.2125 0.7092
N1D N 0.3401(4) 0.1143(3) 0.41883(14)
O1D O 0.4991(4) 0.0837(4) 0.34152(15)
O2D O 0.1584(4) -0.1132(3) 0.38090(14)
O3D O 0.1238(6) 0.1375(4) 0.47994(15)
C1D C 0.3655(5) 0.0877(4) 0.36375(17)
C2D C 0.0719(5) 0.0803(4) 0.38293(18)
C3D C 0.1755(6) 0.1146(4) 0.43370(18)
C4D C 0.2008(5) 0.0621(4) 0.33592(16)
C5D C 0.4747(7) 0.1440(4) 0.4578(2)
H1D H 0.5569 0.1900 0.4381
H2D H 0.4308 0.1913 0.4881
C6D C 0.1879(6) -0.0700(4) 0.3257(2)
H3D H 0.2862 -0.1035 0.3079
C7D C 0.0113(6) -0.0468(5) 0.3912(2)
H4D H -0.0370 -0.0610 0.4284
C8D C 0.5569(7) 0.0369(5) 0.4823(3)
H5D H 0.6499 0.0613 0.5052
H6D H 0.5998 -0.0105 0.4519
C9D C -0.1003(8) -0.0850(6) 0.3428(3)
H7D H -0.1560 -0.1580 0.3511
H8D H -0.1821 -0.0259 0.3339
C10D C 0.0249(8) -0.0996(6) 0.2950(3)
H9D H 0.0256 -0.1788 0.2805
H10D H 0.0034 -0.0457 0.2644
C11D C -0.0601(7) 0.1747(6) 0.3744(3)
H11D H -0.1209 0.1588 0.3406
H12D H -0.1344 0.1748 0.4058
H13D H -0.0077 0.2496 0.3714
C12D C 0.1872(12) 0.1309(7) 0.2827(3)
H14D H 0.2724 0.1068 0.2571
H15D H 0.0809 0.1175 0.2659
H16D H 0.1995 0.2125 0.2908
N1 N 0.6599(4) 0.8857(3) 0.58117(14)
O1 O 0.5009(4) 0.9163(4) 0.65848(15)
O2 O 0.8416(4) 1.1132(3) 0.61910(14)
O3 O 0.8762(6) 0.8625(4) 0.52006(15)
C1 C 0.6345(5) 0.9123(4) 0.63625(17)
C2 C 0.9281(5) 0.9197(4) 0.61707(18)
C3 C 0.8245(6) 0.8854(4) 0.56630(18)
C4 C 0.7992(5) 0.9379(4) 0.66408(16)
C5 C 0.5253(7) 0.8560(4) 0.5422(2)
H1 H 0.4431 0.8100 0.5619
H2 H 0.5692 0.8087 0.5119
C6 C 0.8121(6) 1.0700(4) 0.6743(2)
H3 H 0.7138 1.1035 0.6921
C7 C 0.9887(6) 1.0468(5) 0.6088(2)
H4 H 1.0370 1.0610 0.5716
C8 C 0.4431(7) 0.9631(5) 0.5177(3)
H5 H 0.3501 0.9387 0.4948
H6 H 0.4002 1.0105 0.5481
C9 C 1.1003(8) 1.0850(6) 0.6572(3)
H7 H 1.1560 1.1580 0.6489
H8 H 1.1821 1.0259 0.6661
C10 C 0.9751(8) 1.0996(6) 0.7050(3)
H9 H 0.9744 1.1788 0.7195
H10 H 0.9966 1.0457 0.7356
C11 C 1.0601(7) 0.8253(6) 0.6256(3)
H11 H 1.1209 0.8412 0.6594
H12 H 1.1344 0.8252 0.5942
H13 H 1.0077 0.7504 0.6286
C12 C 0.8128(12) 0.8691(7) 0.7173(3)
H14 H 0.7276 0.8932 0.7429
H15 H 0.9191 0.8825 0.7341
H16 H 0.8005 0.7875 0.7092
N1D N 0.3401(4) 1.1143(3) 0.41883(14)
O1D O 0.4991(4) 1.0837(4) 0.34152(15)
O2D O 0.1584(4) 0.8868(3) 0.38090(14)
O3D O 0.1238(6) 1.1375(4) 0.47994(15)
C1D C 0.3655(5) 1.0877(4) 0.36375(17)
C2D C 0.0719(5) 1.0803(4) 0.38293(18)
C3D C 0.1755(6) 1.1146(4) 0.43370(18)
C4D C 0.2008(5) 1.0621(4) 0.33592(16)
C5D C 0.4747(7) 1.1440(4) 0.4578(2)
H1D H 0.5569 1.1900 0.4381
H2D H 0.4308 1.1913 0.4881
C6D C 0.1879(6) 0.9300(4) 0.3257(2)
H3D H 0.2862 0.8965 0.3079
C7D C 0.0113(6) 0.9532(5) 0.3912(2)
H4D H -0.0370 0.9390 0.4284
C8D C 0.5569(7) 1.0369(5) 0.4823(3)
H5D H 0.6499 1.0613 0.5052
H6D H 0.5998 0.9895 0.4519
C9D C -0.1003(8) 0.9150(6) 0.3428(3)
H7D H -0.1560 0.8420 0.3511
H8D H -0.1821 0.9741 0.3339
C10D C 0.0249(8) 0.9004(6) 0.2950(3)
H9D H 0.0256 0.8212 0.2805
H10D H 0.0034 0.9543 0.2644
C11D C -0.0601(7) 1.1747(6) 0.3744(3)
H11D H -0.1209 1.1588 0.3406
H12D H -0.1344 1.1748 0.4058
H13D H -0.0077 1.2496 0.3714
C12D C 0.1872(12) 1.1309(7) 0.2827(3)
H14D H 0.2724 1.1068 0.2571
H15D H 0.0809 1.1175 0.2659
H16D H 0.1995 1.2125 0.2908
N1 N -0.1599(4) 0.1143(3) 0.08117(14)
O1 O -0.0009(4) 0.0837(4) 0.15848(15)
O2 O -0.3416(4) -0.1132(3) 0.11910(14)
O3 O -0.3762(6) 0.1375(4) 0.02006(15)
C1 C -0.1345(5) 0.0877(4) 0.13625(17)
C2 C -0.4281(5) 0.0803(4) 0.11707(18)
C3 C -0.3245(6) 0.1146(4) 0.06630(18)
C4 C -0.2992(5) 0.0621(4) 0.16408(16)
C5 C -0.0253(7) 0.1440(4) 0.0422(2)
H1 H 0.0569 0.1900 0.0619
H2 H -0.0692 0.1913 0.0119
C6 C -0.3121(6) -0.0700(4) 0.1743(2)
H3 H -0.2138 -0.1035 0.1921
C7 C -0.4887(6) -0.0468(5) 0.1088(2)
H4 H -0.5370 -0.0610 0.0716
C8 C 0.0569(7) 0.0369(5) 0.0177(3)
H5 H 0.1499 0.0613 -0.0052
H6 H 0.0998 -0.0105 0.0481
C9 C -0.6003(8) -0.0850(6) 0.1572(3)
H7 H -0.6560 -0.1580 0.1489
H8 H -0.6821 -0.0259 0.1661
C10 C -0.4751(8) -0.0996(6) 0.2050(3)
H9 H -0.4744 -0.1788 0.2195
H10 H -0.4966 -0.0457 0.2356
C11 C -0.5601(7) 0.1747(6) 0.1256(3)
H11 H -0.6209 0.1588 0.1594
H12 H -0.6344 0.1748 0.0942
H13 H -0.5077 0.2496 0.1286
C12 C -0.3128(12) 0.1309(7) 0.2173(3)
H14 H -0.2276 0.1068 0.2429
H15 H -0.4191 0.1175 0.2341
H16 H -0.3005 0.2125 0.2092
N1D N 0.1599(4) -0.1143(3) -0.08117(14)
O1D O 0.0009(4) -0.0837(4) -0.15848(15)
O2D O 0.3416(4) 0.1132(3) -0.11910(14)
O3D O 0.3762(6) -0.1375(4) -0.02006(15)
C1D C 0.1345(5) -0.0877(4) -0.13625(17)
C2D C 0.4281(5) -0.0803(4) -0.11707(18)
C3D C 0.3245(6) -0.1146(4) -0.06630(18)
C4D C 0.2992(5) -0.0621(4) -0.16408(16)
C5D C 0.0253(7) -0.1440(4) -0.0422(2)
H1D H -0.0569 -0.1900 -0.0619
H2D H 0.0692 -0.1913 -0.0119
C6D C 0.3121(6) 0.0700(4) -0.1743(2)
H3D H 0.2138 0.1035 -0.1921
C7D C 0.4887(6) 0.0468(5) -0.1088(2)
H4D H 0.5370 0.0610 -0.0716
C8D C -0.0569(7) -0.0369(5) -0.0177(3)
H5D H -0.1499 -0.0613 0.0052
H6D H -0.0998 0.0105 -0.0481
C9D C 0.6003(8) 0.0850(6) -0.1572(3)
H7D H 0.6560 0.1580 -0.1489
H8D H 0.6821 0.0259 -0.1661
C10D C 0.4751(8) 0.0996(6) -0.2050(3)
H9D H 0.4744 0.1788 -0.2195
H10D H 0.4966 0.0457 -0.2356
C11D C 0.5601(7) -0.1747(6) -0.1256(3)
H11D H 0.6209 -0.1588 -0.1594
H12D H 0.6344 -0.1748 -0.0942
H13D H 0.5077 -0.2496 -0.1286
C12D C 0.3128(12) -0.1309(7) -0.2173(3)
H14D H 0.2276 -0.1068 -0.2429
H15D H 0.4191 -0.1175 -0.2341
H16D H 0.3005 -0.2125 -0.2092
N1 N -0.1599(4) 0.1143(3) 1.08117(14)
O1 O -0.0009(4) 0.0837(4) 1.15848(15)
O2 O -0.3416(4) -0.1132(3) 1.11910(14)
O3 O -0.3762(6) 0.1375(4) 1.02006(15)
C1 C -0.1345(5) 0.0877(4) 1.13625(17)
C2 C -0.4281(5) 0.0803(4) 1.11707(18)
C3 C -0.3245(6) 0.1146(4) 1.06630(18)
C4 C -0.2992(5) 0.0621(4) 1.16408(16)
C5 C -0.0253(7) 0.1440(4) 1.0422(2)
H1 H 0.0569 0.1900 1.0619
H2 H -0.0692 0.1913 1.0119
C6 C -0.3121(6) -0.0700(4) 1.1743(2)
H3 H -0.2138 -0.1035 1.1921
C7 C -0.4887(6) -0.0468(5) 1.1088(2)
H4 H -0.5370 -0.0610 1.0716
C8 C 0.0569(7) 0.0369(5) 1.0177(3)
H5 H 0.1499 0.0613 0.9948
H6 H 0.0998 -0.0105 1.0481
C9 C -0.6003(8) -0.0850(6) 1.1572(3)
H7 H -0.6560 -0.1580 1.1489
H8 H -0.6821 -0.0259 1.1661
C10 C -0.4751(8) -0.0996(6) 1.2050(3)
H9 H -0.4744 -0.1788 1.2195
H10 H -0.4966 -0.0457 1.2356
C11 C -0.5601(7) 0.1747(6) 1.1256(3)
H11 H -0.6209 0.1588 1.1594
H12 H -0.6344 0.1748 1.0942
H13 H -0.5077 0.2496 1.1286
C12 C -0.3128(12) 0.1309(7) 1.2173(3)
H14 H -0.2276 0.1068 1.2429
H15 H -0.4191 0.1175 1.2341
H16 H -0.3005 0.2125 1.2092
N1D N 0.1599(4) -0.1143(3) 0.91883(14)
O1D O 0.0009(4) -0.0837(4) 0.84152(15)
O2D O 0.3416(4) 0.1132(3) 0.88090(14)
O3D O 0.3762(6) -0.1375(4) 0.97994(15)
C1D C 0.1345(5) -0.0877(4) 0.86375(17)
C2D C 0.4281(5) -0.0803(4) 0.88293(18)
C3D C 0.3245(6) -0.1146(4) 0.93370(18)
C4D C 0.2992(5) -0.0621(4) 0.83592(16)
C5D C 0.0253(7) -0.1440(4) 0.9578(2)
H1D H -0.0569 -0.1900 0.9381
H2D H 0.0692 -0.1913 0.9881
C6D C 0.3121(6) 0.0700(4) 0.8257(2)
H3D H 0.2138 0.1035 0.8079
C7D C 0.4887(6) 0.0468(5) 0.8912(2)
H4D H 0.5370 0.0610 0.9284
C8D C -0.0569(7) -0.0369(5) 0.9823(3)
H5D H -0.1499 -0.0613 1.0052
H6D H -0.0998 0.0105 0.9519
C9D C 0.6003(8) 0.0850(6) 0.8428(3)
H7D H 0.6560 0.1580 0.8511
H8D H 0.6821 0.0259 0.8339
C10D C 0.4751(8) 0.0996(6) 0.7950(3)
H9D H 0.4744 0.1788 0.7805
H10D H 0.4966 0.0457 0.7644
C11D C 0.5601(7) -0.1747(6) 0.8744(3)
H11D H 0.6209 -0.1588 0.8406
H12D H 0.6344 -0.1748 0.9058
H13D H 0.5077 -0.2496 0.8714
C12D C 0.3128(12) -0.1309(7) 0.7827(3)
H14D H 0.2276 -0.1068 0.7571
H15D H 0.4191 -0.1175 0.7659
H16D H 0.3005 -0.2125 0.7908
N1 N -0.1599(4) 1.1143(3) 0.08117(14)
O1 O -0.0009(4) 1.0837(4) 0.15848(15)
O2 O -0.3416(4) 0.8868(3) 0.11910(14)
O3 O -0.3762(6) 1.1375(4) 0.02006(15)
C1 C -0.1345(5) 1.0877(4) 0.13625(17)
C2 C -0.4281(5) 1.0803(4) 0.11707(18)
C3 C -0.3245(6) 1.1146(4) 0.06630(18)
C4 C -0.2992(5) 1.0621(4) 0.16408(16)
C5 C -0.0253(7) 1.1440(4) 0.0422(2)
H1 H 0.0569 1.1900 0.0619
H2 H -0.0692 1.1913 0.0119
C6 C -0.3121(6) 0.9300(4) 0.1743(2)
H3 H -0.2138 0.8965 0.1921
C7 C -0.4887(6) 0.9532(5) 0.1088(2)
H4 H -0.5370 0.9390 0.0716
C8 C 0.0569(7) 1.0369(5) 0.0177(3)
H5 H 0.1499 1.0613 -0.0052
H6 H 0.0998 0.9895 0.0481
C9 C -0.6003(8) 0.9150(6) 0.1572(3)
H7 H -0.6560 0.8420 0.1489
H8 H -0.6821 0.9741 0.1661
C10 C -0.4751(8) 0.9004(6) 0.2050(3)
H9 H -0.4744 0.8212 0.2195
H10 H -0.4966 0.9543 0.2356
C11 C -0.5601(7) 1.1747(6) 0.1256(3)
H11 H -0.6209 1.1588 0.1594
H12 H -0.6344 1.1748 0.0942
H13 H -0.5077 1.2496 0.1286
C12 C -0.3128(12) 1.1309(7) 0.2173(3)
H14 H -0.2276 1.1068 0.2429
H15 H -0.4191 1.1175 0.2341
H16 H -0.3005 1.2125 0.2092
N1D N 0.1599(4) 0.8857(3) -0.08117(14)
O1D O 0.0009(4) 0.9163(4) -0.15848(15)
O2D O 0.3416(4) 1.1132(3) -0.11910(14)
O3D O 0.3762(6) 0.8625(4) -0.02006(15)
C1D C 0.1345(5) 0.9123(4) -0.13625(17)
C2D C 0.4281(5) 0.9197(4) -0.11707(18)
C3D C 0.3245(6) 0.8854(4) -0.06630(18)
C4D C 0.2992(5) 0.9379(4) -0.16408(16)
C5D C 0.0253(7) 0.8560(4) -0.0422(2)
H1D H -0.0569 0.8100 -0.0619
H2D H 0.0692 0.8087 -0.0119
C6D C 0.3121(6) 1.0700(4) -0.1743(2)
H3D H 0.2138 1.1035 -0.1921
C7D C 0.4887(6) 1.0468(5) -0.1088(2)
H4D H 0.5370 1.0610 -0.0716
C8D C -0.0569(7) 0.9631(5) -0.0177(3)
H5D H -0.1499 0.9387 0.0052
H6D H -0.0998 1.0105 -0.0481
C9D C 0.6003(8) 1.0850(6) -0.1572(3)
H7D H 0.6560 1.1580 -0.1489
H8D H 0.6821 1.0259 -0.1661
C10D C 0.4751(8) 1.0996(6) -0.2050(3)
H9D H 0.4744 1.1788 -0.2195
H10D H 0.4966 1.0457 -0.2356
C11D C 0.5601(7) 0.8253(6) -0.1256(3)
H11D H 0.6209 0.8412 -0.1594
H12D H 0.6344 0.8252 -0.0942
H13D H 0.5077 0.7504 -0.1286
C12D C 0.3128(12) 0.8691(7) -0.2173(3)
H14D H 0.2276 0.8932 -0.2429
H15D H 0.4191 0.8825 -0.2341
H16D H 0.3005 0.7875 -0.2092
N1 N -0.1599(4) 1.1143(3) 1.08117(14)
O1 O -0.0009(4) 1.0837(4) 1.15848(15)
O2 O -0.3416(4) 0.8868(3) 1.11910(14)
O3 O -0.3762(6) 1.1375(4) 1.02006(15)
C1 C -0.1345(5) 1.0877(4) 1.13625(17)
C2 C -0.4281(5) 1.0803(4) 1.11707(18)
C3 C -0.3245(6) 1.1146(4) 1.06630(18)
C4 C -0.2992(5) 1.0621(4) 1.16408(16)
C5 C -0.0253(7) 1.1440(4) 1.0422(2)
H1 H 0.0569 1.1900 1.0619
H2 H -0.0692 1.1913 1.0119
C6 C -0.3121(6) 0.9300(4) 1.1743(2)
H3 H -0.2138 0.8965 1.1921
C7 C -0.4887(6) 0.9532(5) 1.1088(2)
H4 H -0.5370 0.9390 1.0716
C8 C 0.0569(7) 1.0369(5) 1.0177(3)
H5 H 0.1499 1.0613 0.9948
H6 H 0.0998 0.9895 1.0481
C9 C -0.6003(8) 0.9150(6) 1.1572(3)
H7 H -0.6560 0.8420 1.1489
H8 H -0.6821 0.9741 1.1661
C10 C -0.4751(8) 0.9004(6) 1.2050(3)
H9 H -0.4744 0.8212 1.2195
H10 H -0.4966 0.9543 1.2356
C11 C -0.5601(7) 1.1747(6) 1.1256(3)
H11 H -0.6209 1.1588 1.1594
H12 H -0.6344 1.1748 1.0942
H13 H -0.5077 1.2496 1.1286
C12 C -0.3128(12) 1.1309(7) 1.2173(3)
H14 H -0.2276 1.1068 1.2429
H15 H -0.4191 1.1175 1.2341
H16 H -0.3005 1.2125 1.2092
N1D N 0.1599(4) 0.8857(3) 0.91883(14)
O1D O 0.0009(4) 0.9163(4) 0.84152(15)
O2D O 0.3416(4) 1.1132(3) 0.88090(14)
O3D O 0.3762(6) 0.8625(4) 0.97994(15)
C1D C 0.1345(5) 0.9123(4) 0.86375(17)
C2D C 0.4281(5) 0.9197(4) 0.88293(18)
C3D C 0.3245(6) 0.8854(4) 0.93370(18)
C4D C 0.2992(5) 0.9379(4) 0.83592(16)
C5D C 0.0253(7) 0.8560(4) 0.9578(2)
H1D H -0.0569 0.8100 0.9381
H2D H 0.0692 0.8087 0.9881
C6D C 0.3121(6) 1.0700(4) 0.8257(2)
H3D H 0.2138 1.1035 0.8079
C7D C 0.4887(6) 1.0468(5) 0.8912(2)
H4D H 0.5370 1.0610 0.9284
C8D C -0.0569(7) 0.9631(5) 0.9823(3)
H5D H -0.1499 0.9387 1.0052
H6D H -0.0998 1.0105 0.9519
C9D C 0.6003(8) 1.0850(6) 0.8428(3)
H7D H 0.6560 1.1580 0.8511
H8D H 0.6821 1.0259 0.8339
C10D C 0.4751(8) 1.0996(6) 0.7950(3)
H9D H 0.4744 1.1788 0.7805
H10D H 0.4966 1.0457 0.7644
C11D C 0.5601(7) 0.8253(6) 0.8744(3)
H11D H 0.6209 0.8412 0.8406
H12D H 0.6344 0.8252 0.9058
H13D H 0.5077 0.7504 0.8714
C12D C 0.3128(12) 0.8691(7) 0.7827(3)
H14D H 0.2276 0.8932 0.7571
H15D H 0.4191 0.8825 0.7659
H16D H 0.3005 0.7875 0.7908
N1 N 0.8401(4) 0.1143(3) 0.08117(14)
O1 O 0.9991(4) 0.0837(4) 0.15848(15)
O2 O 0.6584(4) -0.1132(3) 0.11910(14)
O3 O 0.6238(6) 0.1375(4) 0.02006(15)
C1 C 0.8655(5) 0.0877(4) 0.13625(17)
C2 C 0.5719(5) 0.0803(4) 0.11707(18)
C3 C 0.6755(6) 0.1146(4) 0.06630(18)
C4 C 0.7008(5) 0.0621(4) 0.16408(16)
C5 C 0.9747(7) 0.1440(4) 0.0422(2)
H1 H 1.0569 0.1900 0.0619
H2 H 0.9308 0.1913 0.0119
C6 C 0.6879(6) -0.0700(4) 0.1743(2)
H3 H 0.7862 -0.1035 0.1921
C7 C 0.5113(6) -0.0468(5) 0.1088(2)
H4 H 0.4630 -0.0610 0.0716
C8 C 1.0569(7) 0.0369(5) 0.0177(3)
H5 H 1.1499 0.0613 -0.0052
H6 H 1.0998 -0.0105 0.0481
C9 C 0.3997(8) -0.0850(6) 0.1572(3)
H7 H 0.3440 -0.1580 0.1489
H8 H 0.3179 -0.0259 0.1661
C10 C 0.5249(8) -0.0996(6) 0.2050(3)
H9 H 0.5256 -0.1788 0.2195
H10 H 0.5034 -0.0457 0.2356
C11 C 0.4399(7) 0.1747(6) 0.1256(3)
H11 H 0.3791 0.1588 0.1594
H12 H 0.3656 0.1748 0.0942
H13 H 0.4923 0.2496 0.1286
C12 C 0.6872(12) 0.1309(7) 0.2173(3)
H14 H 0.7724 0.1068 0.2429
H15 H 0.5809 0.1175 0.2341
H16 H 0.6995 0.2125 0.2092
N1D N 1.1599(4) -0.1143(3) -0.08117(14)
O1D O 1.0009(4) -0.0837(4) -0.15848(15)
O2D O 1.3416(4) 0.1132(3) -0.11910(14)
O3D O 1.3762(6) -0.1375(4) -0.02006(15)
C1D C 1.1345(5) -0.0877(4) -0.13625(17)
C2D C 1.4281(5) -0.0803(4) -0.11707(18)
C3D C 1.3245(6) -0.1146(4) -0.06630(18)
C4D C 1.2992(5) -0.0621(4) -0.16408(16)
C5D C 1.0253(7) -0.1440(4) -0.0422(2)
H1D H 0.9431 -0.1900 -0.0619
H2D H 1.0692 -0.1913 -0.0119
C6D C 1.3121(6) 0.0700(4) -0.1743(2)
H3D H 1.2138 0.1035 -0.1921
C7D C 1.4887(6) 0.0468(5) -0.1088(2)
H4D H 1.5370 0.0610 -0.0716
C8D C 0.9431(7) -0.0369(5) -0.0177(3)
H5D H 0.8501 -0.0613 0.0052
H6D H 0.9002 0.0105 -0.0481
C9D C 1.6003(8) 0.0850(6) -0.1572(3)
H7D H 1.6560 0.1580 -0.1489
H8D H 1.6821 0.0259 -0.1661
C10D C 1.4751(8) 0.0996(6) -0.2050(3)
H9D H 1.4744 0.1788 -0.2195
H10D H 1.4966 0.0457 -0.2356
C11D C 1.5601(7) -0.1747(6) -0.1256(3)
H11D H 1.6209 -0.1588 -0.1594
H12D H 1.6344 -0.1748 -0.0942
H13D H 1.5077 -0.2496 -0.1286
C12D C 1.3128(12) -0.1309(7) -0.2173(3)
H14D H 1.2276 -0.1068 -0.2429
H15D H 1.4191 -0.1175 -0.2341
H16D H 1.3005 -0.2125 -0.2092
N1 N 0.8401(4) 0.1143(3) 1.08117(14)
O1 O 0.9991(4) 0.0837(4) 1.15848(15)
O2 O 0.6584(4) -0.1132(3) 1.11910(14)
O3 O 0.6238(6) 0.1375(4) 1.02006(15)
C1 C 0.8655(5) 0.0877(4) 1.13625(17)
C2 C 0.5719(5) 0.0803(4) 1.11707(18)
C3 C 0.6755(6) 0.1146(4) 1.06630(18)
C4 C 0.7008(5) 0.0621(4) 1.16408(16)
C5 C 0.9747(7) 0.1440(4) 1.0422(2)
H1 H 1.0569 0.1900 1.0619
H2 H 0.9308 0.1913 1.0119
C6 C 0.6879(6) -0.0700(4) 1.1743(2)
H3 H 0.7862 -0.1035 1.1921
C7 C 0.5113(6) -0.0468(5) 1.1088(2)
H4 H 0.4630 -0.0610 1.0716
C8 C 1.0569(7) 0.0369(5) 1.0177(3)
H5 H 1.1499 0.0613 0.9948
H6 H 1.0998 -0.0105 1.0481
C9 C 0.3997(8) -0.0850(6) 1.1572(3)
H7 H 0.3440 -0.1580 1.1489
H8 H 0.3179 -0.0259 1.1661
C10 C 0.5249(8) -0.0996(6) 1.2050(3)
H9 H 0.5256 -0.1788 1.2195
H10 H 0.5034 -0.0457 1.2356
C11 C 0.4399(7) 0.1747(6) 1.1256(3)
H11 H 0.3791 0.1588 1.1594
H12 H 0.3656 0.1748 1.0942
H13 H 0.4923 0.2496 1.1286
C12 C 0.6872(12) 0.1309(7) 1.2173(3)
H14 H 0.7724 0.1068 1.2429
H15 H 0.5809 0.1175 1.2341
H16 H 0.6995 0.2125 1.2092
N1D N 1.1599(4) -0.1143(3) 0.91883(14)
O1D O 1.0009(4) -0.0837(4) 0.84152(15)
O2D O 1.3416(4) 0.1132(3) 0.88090(14)
O3D O 1.3762(6) -0.1375(4) 0.97994(15)
C1D C 1.1345(5) -0.0877(4) 0.86375(17)
C2D C 1.4281(5) -0.0803(4) 0.88293(18)
C3D C 1.3245(6) -0.1146(4) 0.93370(18)
C4D C 1.2992(5) -0.0621(4) 0.83592(16)
C5D C 1.0253(7) -0.1440(4) 0.9578(2)
H1D H 0.9431 -0.1900 0.9381
H2D H 1.0692 -0.1913 0.9881
C6D C 1.3121(6) 0.0700(4) 0.8257(2)
H3D H 1.2138 0.1035 0.8079
C7D C 1.4887(6) 0.0468(5) 0.8912(2)
H4D H 1.5370 0.0610 0.9284
C8D C 0.9431(7) -0.0369(5) 0.9823(3)
H5D H 0.8501 -0.0613 1.0052
H6D H 0.9002 0.0105 0.9519
C9D C 1.6003(8) 0.0850(6) 0.8428(3)
H7D H 1.6560 0.1580 0.8511
H8D H 1.6821 0.0259 0.8339
C10D C 1.4751(8) 0.0996(6) 0.7950(3)
H9D H 1.4744 0.1788 0.7805
H10D H 1.4966 0.0457 0.7644
C11D C 1.5601(7) -0.1747(6) 0.8744(3)
H11D H 1.6209 -0.1588 0.8406
H12D H 1.6344 -0.1748 0.9058
H13D H 1.5077 -0.2496 0.8714
C12D C 1.3128(12) -0.1309(7) 0.7827(3)
H14D H 1.2276 -0.1068 0.7571
H15D H 1.4191 -0.1175 0.7659
H16D H 1.3005 -0.2125 0.7908
N1 N 0.8401(4) 1.1143(3) 0.08117(14)
O1 O 0.9991(4) 1.0837(4) 0.15848(15)
O2 O 0.6584(4) 0.8868(3) 0.11910(14)
O3 O 0.6238(6) 1.1375(4) 0.02006(15)
C1 C 0.8655(5) 1.0877(4) 0.13625(17)
C2 C 0.5719(5) 1.0803(4) 0.11707(18)
C3 C 0.6755(6) 1.1146(4) 0.06630(18)
C4 C 0.7008(5) 1.0621(4) 0.16408(16)
C5 C 0.9747(7) 1.1440(4) 0.0422(2)
H1 H 1.0569 1.1900 0.0619
H2 H 0.9308 1.1913 0.0119
C6 C 0.6879(6) 0.9300(4) 0.1743(2)
H3 H 0.7862 0.8965 0.1921
C7 C 0.5113(6) 0.9532(5) 0.1088(2)
H4 H 0.4630 0.9390 0.0716
C8 C 1.0569(7) 1.0369(5) 0.0177(3)
H5 H 1.1499 1.0613 -0.0052
H6 H 1.0998 0.9895 0.0481
C9 C 0.3997(8) 0.9150(6) 0.1572(3)
H7 H 0.3440 0.8420 0.1489
H8 H 0.3179 0.9741 0.1661
C10 C 0.5249(8) 0.9004(6) 0.2050(3)
H9 H 0.5256 0.8212 0.2195
H10 H 0.5034 0.9543 0.2356
C11 C 0.4399(7) 1.1747(6) 0.1256(3)
H11 H 0.3791 1.1588 0.1594
H12 H 0.3656 1.1748 0.0942
H13 H 0.4923 1.2496 0.1286
C12 C 0.6872(12) 1.1309(7) 0.2173(3)
H14 H 0.7724 1.1068 0.2429
H15 H 0.5809 1.1175 0.2341
H16 H 0.6995 1.2125 0.2092
N1D N 1.1599(4) 0.8857(3) -0.08117(14)
O1D O 1.0009(4) 0.9163(4) -0.15848(15)
O2D O 1.3416(4) 1.1132(3) -0.11910(14)
O3D O 1.3762(6) 0.8625(4) -0.02006(15)
C1D C 1.1345(5) 0.9123(4) -0.13625(17)
C2D C 1.4281(5) 0.9197(4) -0.11707(18)
C3D C 1.3245(6) 0.8854(4) -0.06630(18)
C4D C 1.2992(5) 0.9379(4) -0.16408(16)
C5D C 1.0253(7) 0.8560(4) -0.0422(2)
H1D H 0.9431 0.8100 -0.0619
H2D H 1.0692 0.8087 -0.0119
C6D C 1.3121(6) 1.0700(4) -0.1743(2)
H3D H 1.2138 1.1035 -0.1921
C7D C 1.4887(6) 1.0468(5) -0.1088(2)
H4D H 1.5370 1.0610 -0.0716
C8D C 0.9431(7) 0.9631(5) -0.0177(3)
H5D H 0.8501 0.9387 0.0052
H6D H 0.9002 1.0105 -0.0481
C9D C 1.6003(8) 1.0850(6) -0.1572(3)
H7D H 1.6560 1.1580 -0.1489
H8D H 1.6821 1.0259 -0.1661
C10D C 1.4751(8) 1.0996(6) -0.2050(3)
H9D H 1.4744 1.1788 -0.2195
H10D H 1.4966 1.0457 -0.2356
C11D C 1.5601(7) 0.8253(6) -0.1256(3)
H11D H 1.6209 0.8412 -0.1594
H12D H 1.6344 0.8252 -0.0942
H13D H 1.5077 0.7504 -0.1286
C12D C 1.3128(12) 0.8691(7) -0.2173(3)
H14D H 1.2276 0.8932 -0.2429
H15D H 1.4191 0.8825 -0.2341
H16D H 1.3005 0.7875 -0.2092
N1 N 0.8401(4) 1.1143(3) 1.08117(14)
O1 O 0.9991(4) 1.0837(4) 1.15848(15)
O2 O 0.6584(4) 0.8868(3) 1.11910(14)
O3 O 0.6238(6) 1.1375(4) 1.02006(15)
C1 C 0.8655(5) 1.0877(4) 1.13625(17)
C2 C 0.5719(5) 1.0803(4) 1.11707(18)
C3 C 0.6755(6) 1.1146(4) 1.06630(18)
C4 C 0.7008(5) 1.0621(4) 1.16408(16)
C5 C 0.9747(7) 1.1440(4) 1.0422(2)
H1 H 1.0569 1.1900 1.0619
H2 H 0.9308 1.1913 1.0119
C6 C 0.6879(6) 0.9300(4) 1.1743(2)
H3 H 0.7862 0.8965 1.1921
C7 C 0.5113(6) 0.9532(5) 1.1088(2)
H4 H 0.4630 0.9390 1.0716
C8 C 1.0569(7) 1.0369(5) 1.0177(3)
H5 H 1.1499 1.0613 0.9948
H6 H 1.0998 0.9895 1.0481
C9 C 0.3997(8) 0.9150(6) 1.1572(3)
H7 H 0.3440 0.8420 1.1489
H8 H 0.3179 0.9741 1.1661
C10 C 0.5249(8) 0.9004(6) 1.2050(3)
H9 H 0.5256 0.8212 1.2195
H10 H 0.5034 0.9543 1.2356
C11 C 0.4399(7) 1.1747(6) 1.1256(3)
H11 H 0.3791 1.1588 1.1594
H12 H 0.3656 1.1748 1.0942
H13 H 0.4923 1.2496 1.1286
C12 C 0.6872(12) 1.1309(7) 1.2173(3)
H14 H 0.7724 1.1068 1.2429
H15 H 0.5809 1.1175 1.2341
H16 H 0.6995 1.2125 1.2092
N1D N 1.1599(4) 0.8857(3) 0.91883(14)
O1D O 1.0009(4) 0.9163(4) 0.84152(15)
O2D O 1.3416(4) 1.1132(3) 0.88090(14)
O3D O 1.3762(6) 0.8625(4) 0.97994(15)
C1D C 1.1345(5) 0.9123(4) 0.86375(17)
C2D C 1.4281(5) 0.9197(4) 0.88293(18)
C3D C 1.3245(6) 0.8854(4) 0.93370(18)
C4D C 1.2992(5) 0.9379(4) 0.83592(16)
C5D C 1.0253(7) 0.8560(4) 0.9578(2)
H1D H 0.9431 0.8100 0.9381
H2D H 1.0692 0.8087 0.9881
C6D C 1.3121(6) 1.0700(4) 0.8257(2)
H3D H 1.2138 1.1035 0.8079
C7D C 1.4887(6) 1.0468(5) 0.8912(2)
H4D H 1.5370 1.0610 0.9284
C8D C 0.9431(7) 0.9631(5) 0.9823(3)
H5D H 0.8501 0.9387 1.0052
H6D H 0.9002 1.0105 0.9519
C9D C 1.6003(8) 1.0850(6) 0.8428(3)
H7D H 1.6560 1.1580 0.8511
H8D H 1.6821 1.0259 0.8339
C10D C 1.4751(8) 1.0996(6) 0.7950(3)
H9D H 1.4744 1.1788 0.7805
H10D H 1.4966 1.0457 0.7644
C11D C 1.5601(7) 0.8253(6) 0.8744(3)
H11D H 1.6209 0.8412 0.8406
H12D H 1.6344 0.8252 0.9058
H13D H 1.5077 0.7504 0.8714
C12D C 1.3128(12) 0.8691(7) 0.7827(3)
H14D H 1.2276 0.8932 0.7571
H15D H 1.4191 0.8825 0.7659
H16D H 1.3005 0.7875 0.7908

#END
