./LADCAW_from_xyz.cif_generated_by_CrystalShift
_symmetry_cell_setting triclinic
_symmetry_space_group_name_H-M 'P 1'
loop_
_symmetry_equiv_pos_site_id
_symmetry_equiv_pos_as_xyz
1 x,y,z
_cell_length_a 3.901900
_cell_length_b 12.545400
_cell_length_c 16.926000
_cell_angle_alpha 73.128000
_cell_angle_beta 86.428000
_cell_angle_gamma 85.881000
_cell_volume 790.084413
loop_
_atom_site_label
_atom_site_type_symbol
_atom_site_fract_x
_atom_site_fract_y
_atom_site_fract_z
Br1 Br 0.191240 0.875203 0.079408
N2 N 0.332900 0.545540 0.213720
C3 C 0.525700 0.499280 0.162140
N4 N 0.603700 0.385420 0.195030
H5 H 0.508000 0.356500 0.240900
C6 C 0.632600 0.562820 0.082890
H7 H 0.768300 0.529000 0.047200
C8 C 0.537200 0.675530 0.057600
H9 H 0.607500 0.720400 0.004300
C10 C 0.336900 0.722400 0.111320
C11 C 0.240100 0.654860 0.188560
H12 H 0.103100 0.686900 0.225100
C13 C 0.800700 0.315640 0.158240
O14 O 0.948300 0.347880 0.090770
C15 C 0.824900 0.195210 0.211170
H16 H 0.591700 0.172300 0.232800
H17 H 0.966400 0.189300 0.259000
C18 C 0.982300 0.115840 0.163720
H19 H 0.992600 0.039400 0.200600
H20 H 1.215100 0.137200 0.143100
H21 H 0.840300 0.119900 0.117100
Br22 Br 0.808760 0.124797 0.920592
N23 N 0.667100 0.454460 0.786280
C24 C 0.474300 0.500720 0.837860
N25 N 0.396300 0.614580 0.804970
H26 H 0.492000 0.643500 0.759100
C27 C 0.367400 0.437180 0.917110
H28 H 0.231700 0.471000 0.952800
C29 C 0.462800 0.324470 0.942400
H30 H 0.392500 0.279600 0.995700
C31 C 0.663100 0.277600 0.888680
C32 C 0.759900 0.345140 0.811440
H33 H 0.896900 0.313100 0.774900
C34 C 0.199300 0.684360 0.841760
O35 O 0.051700 0.652120 0.909230
C36 C 0.175100 0.804790 0.788830
H37 H 0.408300 0.827700 0.767200
H38 H 0.033600 0.810700 0.741000
C39 C 0.017700 0.884160 0.836280
H40 H 0.007400 0.960600 0.799400
H41 H -0.215100 0.862800 0.856900
H42 H 0.159700 0.880100 0.882900
Cl43 Cl 0.625550 -0.001860 0.609650
Cl44 Cl 0.356900 0.155480 0.718930
C45 C 0.878400 0.299980 0.468910
C46 C 0.842300 0.185080 0.498320
H47 H 0.930800 0.137700 0.466200
C48 C 0.676500 0.140300 0.574700
C49 C 0.551600 0.210350 0.622350
C50 C 0.585700 0.324880 0.592850
H51 H 0.499000 0.372300 0.625100
C52 C 0.747200 0.369670 0.516000
H53 H 0.768400 0.448000 0.495400
C54 C 1.063200 0.346130 0.387310
O55 O 1.042200 0.456050 0.360100
H56 H 1.149000 0.478200 0.310200
O57 O 1.220000 0.286130 0.349950
Cl58 Cl 0.374450 1.001860 0.390350
Cl59 Cl 0.643100 0.844520 0.281070
C60 C 0.121600 0.700020 0.531090
C61 C 0.157700 0.814920 0.501680
H62 H 0.069200 0.862300 0.533800
C63 C 0.323500 0.859700 0.425300
C64 C 0.448400 0.789650 0.377650
C65 C 0.414300 0.675120 0.407150
H66 H 0.501000 0.627700 0.374900
C67 C 0.252800 0.630330 0.484000
H68 H 0.231600 0.552000 0.504600
C69 C -0.063200 0.653870 0.612690
O70 O -0.042200 0.543950 0.639900
H71 H -0.149000 0.521800 0.689800
O72 O -0.220000 0.713870 0.650050

#END
