./LADCUQ_from_xyz.cif_generated_by_CrystalShift
_symmetry_cell_setting triclinic
_symmetry_space_group_name_H-M 'P 1'
loop_
_symmetry_equiv_pos_site_id
_symmetry_equiv_pos_as_xyz
1 x,y,z
_cell_length_a 5.184900
_cell_length_b 11.466500
_cell_length_c 12.487000
_cell_angle_alpha 71.293000
_cell_angle_beta 81.204000
_cell_angle_gamma 88.593000
_cell_volume 694.658166
loop_
_atom_site_label
_atom_site_type_symbol
_atom_site_fract_x
_atom_site_fract_y
_atom_site_fract_z
Br1 Br -0.222860 -0.454445 0.213776
N2 N -0.266200 -0.108910 0.243090
C3 C -0.048200 -0.051620 0.176960
N4 N -0.024800 0.070050 0.170750
H5 H -0.145000 0.094100 0.208900
C6 C 0.135500 -0.110910 0.119850
H7 H 0.289800 -0.068600 0.074200
C8 C 0.087300 -0.232140 0.131480
H9 H 0.209100 -0.275500 0.094400
C10 C -0.140600 -0.290070 0.197890
C11 C -0.311400 -0.226030 0.252270
H12 H -0.467200 -0.266600 0.298000
C13 C 0.175900 0.152990 0.115430
O14 O 0.374000 0.129330 0.062300
C15 C 0.122400 0.278950 0.126430
H16 H 0.040600 0.269500 0.205900
H17 H -0.003200 0.320300 0.074900
C18 C 0.367000 0.359370 0.097330
H19 H 0.321700 0.439700 0.106000
H20 H 0.446600 0.370800 0.018100
H21 H 0.490900 0.319700 0.149000
Br22 Br 1.222860 1.454445 0.786224
N23 N 1.266200 1.108910 0.756910
C24 C 1.048200 1.051620 0.823040
N25 N 1.024800 0.929950 0.829250
H26 H 1.145000 0.905900 0.791100
C27 C 0.864500 1.110910 0.880150
H28 H 0.710200 1.068600 0.925800
C29 C 0.912700 1.232140 0.868520
H30 H 0.790900 1.275500 0.905600
C31 C 1.140600 1.290070 0.802110
C32 C 1.311400 1.226030 0.747730
H33 H 1.467200 1.266600 0.702000
C34 C 0.824100 0.847010 0.884570
O35 O 0.626000 0.870670 0.937700
C36 C 0.877600 0.721050 0.873570
H37 H 0.959400 0.730500 0.794100
H38 H 1.003200 0.679700 0.925100
C39 C 0.633000 0.640630 0.902670
H40 H 0.678300 0.560300 0.894000
H41 H 0.553400 0.629200 0.981900
H42 H 0.509100 0.680300 0.851000
C43 C 0.406600 0.091110 0.374170
O44 O 0.353400 -0.020550 0.374180
H45 H 0.463000 -0.040000 0.335000
O46 O 0.607200 0.147130 0.323750
C47 C 0.195800 0.143060 0.440730
H48 H 0.167200 0.089100 0.521500
H49 H 0.031100 0.143700 0.409600
C50 C 0.262400 0.272770 0.436270
H51 H 0.411200 0.269800 0.478100
H52 H 0.318800 0.323100 0.355500
C53 C 0.037600 0.335110 0.486970
H54 H -0.016400 0.286600 0.568400
H55 H -0.113000 0.337200 0.446300
C56 C 0.111700 0.465640 0.478090
H57 H 0.256600 0.462500 0.522100
H58 H 0.176100 0.512100 0.397000
C59 C -0.406600 0.908890 0.625830
O60 O -0.353400 1.020550 0.625820
H61 H -0.463000 1.040000 0.665000
O62 O -0.607200 0.852870 0.676250
C63 C -0.195800 0.856940 0.559270
H64 H -0.167200 0.910900 0.478500
H65 H -0.031100 0.856300 0.590400
C66 C -0.262400 0.727230 0.563730
H67 H -0.411200 0.730200 0.521900
H68 H -0.318800 0.676900 0.644500
C69 C -0.037600 0.664890 0.513030
H70 H 0.016400 0.713400 0.431600
H71 H 0.113000 0.662800 0.553700
C72 C -0.111700 0.534360 0.521910
H73 H -0.256600 0.537500 0.477900
H74 H -0.176100 0.487900 0.603000
C75 C 1.406600 0.091110 0.374170
O76 O 1.353400 -0.020550 0.374180
H77 H 1.463000 -0.040000 0.335000
O78 O 1.607200 0.147130 0.323750
C79 C 1.195800 0.143060 0.440730
H80 H 1.167200 0.089100 0.521500
H81 H 1.031100 0.143700 0.409600
C82 C 1.262400 0.272770 0.436270
H83 H 1.411200 0.269800 0.478100
H84 H 1.318800 0.323100 0.355500
C85 C 1.037600 0.335110 0.486970
H86 H 0.983600 0.286600 0.568400
H87 H 0.887000 0.337200 0.446300
C88 C 1.111700 0.465640 0.478090
H89 H 1.256600 0.462500 0.522100
H90 H 1.176100 0.512100 0.397000
C91 C 0.593400 0.908890 0.625830
O92 O 0.646600 1.020550 0.625820
H93 H 0.537000 1.040000 0.665000
O94 O 0.392800 0.852870 0.676250
C95 C 0.804200 0.856940 0.559270
H96 H 0.832800 0.910900 0.478500
H97 H 0.968900 0.856300 0.590400
C98 C 0.737600 0.727230 0.563730
H99 H 0.588800 0.730200 0.521900
H100 H 0.681200 0.676900 0.644500
C101 C 0.962400 0.664890 0.513030
H102 H 1.016400 0.713400 0.431600
H103 H 1.113000 0.662800 0.553700
C104 C 0.888300 0.534360 0.521910
H105 H 0.743400 0.537500 0.477900
H106 H 0.823900 0.487900 0.603000

#END
