./LADDOM_from_xyz.cif_generated_by_CrystalShift
_symmetry_cell_setting triclinic
_symmetry_space_group_name_H-M 'P 1'
loop_
_symmetry_equiv_pos_site_id
_symmetry_equiv_pos_as_xyz
1 x,y,z
_cell_length_a 13.689800
_cell_length_b 15.552700
_cell_length_c 14.502100
_cell_angle_alpha 90.000000
_cell_angle_beta 117.901000
_cell_angle_gamma 90.000000
_cell_volume 2728.769703
loop_
_atom_site_label
_atom_site_type_symbol
_atom_site_fract_x
_atom_site_fract_y
_atom_site_fract_z
N1 N 0.966540 0.725410 0.243110
N2 N 0.995180 0.799060 0.731630
N3 N 0.979110 0.712390 0.506940
N4 N 1.110930 0.837160 0.676320
N5 N 1.103740 0.711940 0.398870
N6 N 1.061880 0.733420 0.236200
N7 N 1.090290 0.822980 0.815720
N8 N 1.158750 0.845170 0.781580
N9 N 1.142610 0.725620 0.329400
C10 C 0.878530 0.671010 0.714120
H11 H 0.867400 0.667700 0.643100
H12 H 0.808300 0.656400 0.711300
C13 C 0.872570 0.946090 0.494040
H14 H 0.801000 0.930400 0.485500
H15 H 0.865200 0.993200 0.448400
H16 H 0.919100 0.963000 0.565100
C17 C 0.816760 0.562340 0.414980
H18 H 0.833100 0.585600 0.482000
H19 H 0.814700 0.500700 0.417600
H20 H 0.746300 0.583400 0.363400
C21 C 0.933380 0.789230 0.532590
H22 H 0.860000 0.775200 0.524500
C23 C 0.959830 0.597530 0.775350
C24 C 0.905660 0.589730 0.386450
H25 H 0.884300 0.572300 0.315300
H26 H 0.974300 0.560800 0.432000
C27 C 0.994670 0.711510 0.344800
C28 C 0.872670 0.906880 0.122240
C29 C 1.009760 0.808090 0.646180
C30 C 0.906160 0.514820 0.715460
H31 H 0.898000 0.518500 0.646100
H32 H 0.834800 0.507700 0.711900
H33 H 0.952100 0.466500 0.750900
C34 C 0.876770 0.963840 0.037800
H35 H 0.880000 1.023200 0.057300
H36 H 0.811700 0.954300 -0.027400
H37 H 0.941200 0.949800 0.030600
C38 C 0.860880 0.732160 0.142080
C39 C 0.899980 0.766470 0.746070
C40 C 0.773110 0.933810 0.135900
H41 H 0.773700 0.903100 0.193600
H42 H 0.706400 0.920800 0.073500
H43 H 0.776600 0.994500 0.149300
C44 C 0.924070 0.869480 0.467350
H45 H 0.997300 0.885400 0.478300
H46 H 0.879700 0.855700 0.394000
C47 C 0.924180 0.687580 0.396230
H48 H 0.852700 0.716900 0.360300
C49 C 0.865160 0.813370 0.082200
H50 H 0.799800 0.811200 0.014700
H51 H 0.927900 0.805700 0.069100
C52 C 0.976970 0.924420 0.223600
H53 H 0.980900 0.984500 0.240100
H54 H 1.040500 0.908400 0.215900
H55 H 0.975400 0.891400 0.278800
C56 C 1.072500 0.608080 0.779120
H57 H 1.115900 0.557200 0.808300
H58 H 1.109900 0.656800 0.821700
H59 H 1.062600 0.616800 0.709800
C60 C 0.972750 0.585050 0.885420
H61 H 1.005100 0.529800 0.911700
H62 H 0.901500 0.588200 0.882900
H63 H 1.019700 0.629300 0.930600
C64 C 0.797420 0.819390 0.675300
H65 H 0.815200 0.879500 0.685300
H66 H 0.739100 0.807300 0.692500
H67 H 0.773800 0.804400 0.603700
C68 C 0.857830 0.653670 0.076690
H69 H 0.922300 0.653600 0.066700
H70 H 0.792800 0.656200 0.010100
H71 H 0.856400 0.602100 0.112400
C72 C 0.760210 0.729470 0.160530
H73 H 0.756200 0.674400 0.188400
H74 H 0.694600 0.738600 0.095700
H75 H 0.766400 0.773700 0.209100
C76 C 0.924810 0.784440 0.858650
H77 H 0.994900 0.759700 0.905600
H78 H 0.868000 0.759500 0.871200
H79 H 0.927100 0.845400 0.869800
H80 H 1.050700 0.722000 0.528600
N81 N 0.533460 0.225410 0.756890
N82 N 0.504820 0.299060 0.268370
N83 N 0.520890 0.212390 0.493060
N84 N 0.389070 0.337160 0.323680
N85 N 0.396260 0.211940 0.601130
N86 N 0.438120 0.233420 0.763800
N87 N 0.409710 0.322980 0.184280
N88 N 0.341250 0.345170 0.218420
N89 N 0.357390 0.225620 0.670600
C90 C 0.621470 0.171010 0.285880
H91 H 0.632600 0.167700 0.356900
H92 H 0.691700 0.156400 0.288700
C93 C 0.627430 0.446090 0.505960
H94 H 0.699000 0.430400 0.514500
H95 H 0.634800 0.493200 0.551600
H96 H 0.580900 0.463000 0.434900
C97 C 0.683240 0.062340 0.585020
H98 H 0.666900 0.085600 0.518000
H99 H 0.685300 0.000700 0.582400
H100 H 0.753700 0.083400 0.636600
C101 C 0.566620 0.289230 0.467410
H102 H 0.640000 0.275200 0.475500
C103 C 0.540170 0.097530 0.224650
C104 C 0.594340 0.089730 0.613550
H105 H 0.615700 0.072300 0.684700
H106 H 0.525700 0.060800 0.568000
C107 C 0.505330 0.211510 0.655200
C108 C 0.627330 0.406880 0.877760
C109 C 0.490240 0.308090 0.353820
C110 C 0.593840 0.014820 0.284540
H111 H 0.602000 0.018500 0.353900
H112 H 0.665200 0.007700 0.288100
H113 H 0.547900 -0.033500 0.249100
C114 C 0.623230 0.463840 0.962200
H115 H 0.620000 0.523200 0.942700
H116 H 0.688300 0.454300 1.027400
H117 H 0.558800 0.449800 0.969400
C118 C 0.639120 0.232160 0.857920
C119 C 0.600020 0.266470 0.253930
C120 C 0.726890 0.433810 0.864100
H121 H 0.726300 0.403100 0.806400
H122 H 0.793600 0.420800 0.926500
H123 H 0.723400 0.494500 0.850700
C124 C 0.575930 0.369480 0.532650
H125 H 0.502700 0.385400 0.521700
H126 H 0.620300 0.355700 0.606000
C127 C 0.575820 0.187580 0.603770
H128 H 0.647300 0.216900 0.639700
C129 C 0.634840 0.313370 0.917800
H130 H 0.700200 0.311200 0.985300
H131 H 0.572100 0.305700 0.930900
C132 C 0.523030 0.424420 0.776400
H133 H 0.519100 0.484500 0.759900
H134 H 0.459500 0.408400 0.784100
H135 H 0.524600 0.391400 0.721200
C136 C 0.427500 0.108080 0.220880
H137 H 0.384100 0.057200 0.191700
H138 H 0.390100 0.156800 0.178300
H139 H 0.437400 0.116800 0.290200
C140 C 0.527250 0.085050 0.114580
H141 H 0.494900 0.029800 0.088300
H142 H 0.598500 0.088200 0.117100
H143 H 0.480300 0.129300 0.069400
C144 C 0.702580 0.319390 0.324700
H145 H 0.684800 0.379500 0.314700
H146 H 0.760900 0.307300 0.307500
H147 H 0.726200 0.304400 0.396300
C148 C 0.642170 0.153670 0.923310
H149 H 0.577700 0.153600 0.933300
H150 H 0.707200 0.156200 0.989900
H151 H 0.643600 0.102100 0.887600
C152 C 0.739790 0.229470 0.839470
H153 H 0.743800 0.174400 0.811600
H154 H 0.805400 0.238600 0.904300
H155 H 0.733600 0.273700 0.790900
C156 C 0.575190 0.284440 0.141350
H157 H 0.505100 0.259700 0.094400
H158 H 0.632000 0.259500 0.128800
H159 H 0.572900 0.345400 0.130200
H160 H 0.449300 0.222000 0.471400
N161 N 0.033460 0.274590 0.756890
N162 N 0.004820 0.200940 0.268370
N163 N 0.020890 0.287610 0.493060
N164 N -0.110930 0.162840 0.323680
N165 N -0.103740 0.288060 0.601130
N166 N -0.061880 0.266580 0.763800
N167 N -0.090290 0.177020 0.184280
N168 N -0.158750 0.154830 0.218420
N169 N -0.142610 0.274380 0.670600
C170 C 0.121470 0.328990 0.285880
H171 H 0.132600 0.332300 0.356900
H172 H 0.191700 0.343600 0.288700
C173 C 0.127430 0.053910 0.505960
H174 H 0.199000 0.069600 0.514500
H175 H 0.134800 0.006800 0.551600
H176 H 0.080900 0.037000 0.434900
C177 C 0.183240 0.437660 0.585020
H178 H 0.166900 0.414400 0.518000
H179 H 0.185300 0.499300 0.582400
H180 H 0.253700 0.416600 0.636600
C181 C 0.066620 0.210770 0.467410
H182 H 0.140000 0.224800 0.475500
C183 C 0.040170 0.402470 0.224650
C184 C 0.094340 0.410270 0.613550
H185 H 0.115700 0.427700 0.684700
H186 H 0.025700 0.439200 0.568000
C187 C 0.005330 0.288490 0.655200
C188 C 0.127330 0.093120 0.877760
C189 C -0.009760 0.191910 0.353820
C190 C 0.093840 0.485180 0.284540
H191 H 0.102000 0.481500 0.353900
H192 H 0.165200 0.492300 0.288100
H193 H 0.047900 0.533500 0.249100
C194 C 0.123230 0.036160 0.962200
H195 H 0.120000 -0.023200 0.942700
H196 H 0.188300 0.045700 1.027400
H197 H 0.058800 0.050200 0.969400
C198 C 0.139120 0.267840 0.857920
C199 C 0.100020 0.233530 0.253930
C200 C 0.226890 0.066190 0.864100
H201 H 0.226300 0.096900 0.806400
H202 H 0.293600 0.079200 0.926500
H203 H 0.223400 0.005500 0.850700
C204 C 0.075930 0.130520 0.532650
H205 H 0.002700 0.114600 0.521700
H206 H 0.120300 0.144300 0.606000
C207 C 0.075820 0.312420 0.603770
H208 H 0.147300 0.283100 0.639700
C209 C 0.134840 0.186630 0.917800
H210 H 0.200200 0.188800 0.985300
H211 H 0.072100 0.194300 0.930900
C212 C 0.023030 0.075580 0.776400
H213 H 0.019100 0.015500 0.759900
H214 H -0.040500 0.091600 0.784100
H215 H 0.024600 0.108600 0.721200
C216 C -0.072500 0.391920 0.220880
H217 H -0.115900 0.442800 0.191700
H218 H -0.109900 0.343200 0.178300
H219 H -0.062600 0.383200 0.290200
C220 C 0.027250 0.414950 0.114580
H221 H -0.005100 0.470200 0.088300
H222 H 0.098500 0.411800 0.117100
H223 H -0.019700 0.370700 0.069400
C224 C 0.202580 0.180610 0.324700
H225 H 0.184800 0.120500 0.314700
H226 H 0.260900 0.192700 0.307500
H227 H 0.226200 0.195600 0.396300
C228 C 0.142170 0.346330 0.923310
H229 H 0.077700 0.346400 0.933300
H230 H 0.207200 0.343800 0.989900
H231 H 0.143600 0.397900 0.887600
C232 C 0.239790 0.270530 0.839470
H233 H 0.243800 0.325600 0.811600
H234 H 0.305400 0.261400 0.904300
H235 H 0.233600 0.226300 0.790900
C236 C 0.075190 0.215560 0.141350
H237 H 0.005100 0.240300 0.094400
H238 H 0.132000 0.240500 0.128800
H239 H 0.072900 0.154600 0.130200
H240 H -0.050700 0.278000 0.471400
N241 N 0.466540 0.774590 0.243110
N242 N 0.495180 0.700940 0.731630
N243 N 0.479110 0.787610 0.506940
N244 N 0.610930 0.662840 0.676320
N245 N 0.603740 0.788060 0.398870
N246 N 0.561880 0.766580 0.236200
N247 N 0.590290 0.677020 0.815720
N248 N 0.658750 0.654830 0.781580
N249 N 0.642610 0.774380 0.329400
C250 C 0.378530 0.828990 0.714120
H251 H 0.367400 0.832300 0.643100
H252 H 0.308300 0.843600 0.711300
C253 C 0.372570 0.553910 0.494040
H254 H 0.301000 0.569600 0.485500
H255 H 0.365200 0.506800 0.448400
H256 H 0.419100 0.537000 0.565100
C257 C 0.316760 0.937660 0.414980
H258 H 0.333100 0.914400 0.482000
H259 H 0.314700 0.999300 0.417600
H260 H 0.246300 0.916600 0.363400
C261 C 0.433380 0.710770 0.532590
H262 H 0.360000 0.724800 0.524500
C263 C 0.459830 0.902470 0.775350
C264 C 0.405660 0.910270 0.386450
H265 H 0.384300 0.927700 0.315300
H266 H 0.474300 0.939200 0.432000
C267 C 0.494670 0.788490 0.344800
C268 C 0.372670 0.593120 0.122240
C269 C 0.509760 0.691910 0.646180
C270 C 0.406160 0.985180 0.715460
H271 H 0.398000 0.981500 0.646100
H272 H 0.334800 0.992300 0.711900
H273 H 0.452100 1.033500 0.750900
C274 C 0.376770 0.536160 0.037800
H275 H 0.380000 0.476800 0.057300
H276 H 0.311700 0.545700 -0.027400
H277 H 0.441200 0.550200 0.030600
C278 C 0.360880 0.767840 0.142080
C279 C 0.399980 0.733530 0.746070
C280 C 0.273110 0.566190 0.135900
H281 H 0.273700 0.596900 0.193600
H282 H 0.206400 0.579200 0.073500
H283 H 0.276600 0.505500 0.149300
C284 C 0.424070 0.630520 0.467350
H285 H 0.497300 0.614600 0.478300
H286 H 0.379700 0.644300 0.394000
C287 C 0.424180 0.812420 0.396230
H288 H 0.352700 0.783100 0.360300
C289 C 0.365160 0.686630 0.082200
H290 H 0.299800 0.688800 0.014700
H291 H 0.427900 0.694300 0.069100
C292 C 0.476970 0.575580 0.223600
H293 H 0.480900 0.515500 0.240100
H294 H 0.540500 0.591600 0.215900
H295 H 0.475400 0.608600 0.278800
C296 C 0.572500 0.891920 0.779120
H297 H 0.615900 0.942800 0.808300
H298 H 0.609900 0.843200 0.821700
H299 H 0.562600 0.883200 0.709800
C300 C 0.472750 0.914950 0.885420
H301 H 0.505100 0.970200 0.911700
H302 H 0.401500 0.911800 0.882900
H303 H 0.519700 0.870700 0.930600
C304 C 0.297420 0.680610 0.675300
H305 H 0.315200 0.620500 0.685300
H306 H 0.239100 0.692700 0.692500
H307 H 0.273800 0.695600 0.603700
C308 C 0.357830 0.846330 0.076690
H309 H 0.422300 0.846400 0.066700
H310 H 0.292800 0.843800 0.010100
H311 H 0.356400 0.897900 0.112400
C312 C 0.260210 0.770530 0.160530
H313 H 0.256200 0.825600 0.188400
H314 H 0.194600 0.761400 0.095700
H315 H 0.266400 0.726300 0.209100
C316 C 0.424810 0.715560 0.858650
H317 H 0.494900 0.740300 0.905600
H318 H 0.368000 0.740500 0.871200
H319 H 0.427100 0.654600 0.869800
H320 H 0.550700 0.778000 0.528600

#END
