./LADDAX_from_xyz.cif_generated_by_CrystalShift
_symmetry_cell_setting triclinic
_symmetry_space_group_name_H-M 'P 1'
loop_
_symmetry_equiv_pos_site_id
_symmetry_equiv_pos_as_xyz
1 x,y,z
_cell_length_a 7.384900
_cell_length_b 31.340000
_cell_length_c 13.308200
_cell_angle_alpha 90.000000
_cell_angle_beta 90.344000
_cell_angle_gamma 90.000000
_cell_volume 3080.031072
loop_
_atom_site_label
_atom_site_type_symbol
_atom_site_fract_x
_atom_site_fract_y
_atom_site_fract_z
Br1 Br 0.721930 0.146960 0.413300
Br2 Br 0.774350 0.326372 0.434360
N3 N 0.577400 0.243850 0.218770
C4 C 0.604800 0.204670 0.257150
N5 N 0.554300 0.171000 0.201370
H6 H 0.503000 0.173900 0.144000
H7 H 0.572000 0.144400 0.222000
C8 C 0.683100 0.201080 0.354410
C9 C 0.731400 0.236650 0.407320
H10 H 0.783700 0.234200 0.472400
C11 C 0.702500 0.276520 0.364260
C12 C 0.624300 0.279190 0.270820
H13 H 0.602600 0.306500 0.242100
Br14 Br 0.278070 0.646960 0.086700
Br15 Br 0.225650 0.826372 0.065640
N16 N 0.422600 0.743850 0.281230
C17 C 0.395200 0.704670 0.242850
N18 N 0.445700 0.671000 0.298630
H19 H 0.497000 0.673900 0.356000
H20 H 0.428000 0.644400 0.278000
C21 C 0.316900 0.701080 0.145590
C22 C 0.268600 0.736650 0.092680
H23 H 0.216300 0.734200 0.027600
C24 C 0.297500 0.776520 0.135740
C25 C 0.375700 0.779190 0.229180
H26 H 0.397400 0.806500 0.257900
Br27 Br 0.278070 0.853040 0.586700
Br28 Br 0.225650 0.673628 0.565640
N29 N 0.422600 0.756150 0.781230
C30 C 0.395200 0.795330 0.742850
N31 N 0.445700 0.829000 0.798630
H32 H 0.497000 0.826100 0.856000
H33 H 0.428000 0.855600 0.778000
C34 C 0.316900 0.798920 0.645590
C35 C 0.268600 0.763350 0.592680
H36 H 0.216300 0.765800 0.527600
C37 C 0.297500 0.723480 0.635740
C38 C 0.375700 0.720810 0.729180
H39 H 0.397400 0.693500 0.757900
Br40 Br 0.721930 0.353040 0.913300
Br41 Br 0.774350 0.173628 0.934360
N42 N 0.577400 0.256150 0.718770
C43 C 0.604800 0.295330 0.757150
N44 N 0.554300 0.329000 0.701370
H45 H 0.503000 0.326100 0.644000
H46 H 0.572000 0.355600 0.722000
C47 C 0.683100 0.298920 0.854410
C48 C 0.731400 0.263350 0.907320
H49 H 0.783700 0.265800 0.972400
C50 C 0.702500 0.223480 0.864260
C51 C 0.624300 0.220810 0.770820
H52 H 0.602600 0.193500 0.742100
C53 C 0.243700 0.255980 0.910110
C54 C 0.330800 0.238340 1.003960
O55 O 0.403500 0.268200 1.060150
H56 H 0.460000 0.257600 1.108000
O57 O 0.333000 0.200420 1.021880
C58 C 0.180800 0.227150 0.838670
H59 H 0.189200 0.197300 0.849800
C60 C 0.105600 0.243130 0.750850
N61 N 0.037700 0.212800 0.675340
O62 O 0.034000 0.174840 0.697020
O63 O -0.014100 0.227130 0.594590
C64 C 0.088500 0.286360 0.731100
H65 H 0.036100 0.296600 0.670300
C66 C 0.151900 0.313870 0.804730
N67 N 0.133600 0.360190 0.787250
O68 O 0.054300 0.371490 0.710810
O69 O 0.198200 0.384290 0.849600
C70 C 0.229300 0.299850 0.893950
H71 H 0.271600 0.319600 0.942900
C72 C 0.756300 0.755980 0.589890
C73 C 0.669200 0.738340 0.496040
O74 O 0.596500 0.768200 0.439850
H75 H 0.540000 0.757600 0.392000
O76 O 0.667000 0.700420 0.478120
C77 C 0.819200 0.727150 0.661330
H78 H 0.810800 0.697300 0.650200
C79 C 0.894400 0.743130 0.749150
N80 N 0.962300 0.712800 0.824660
O81 O 0.966000 0.674840 0.802980
O82 O 1.014100 0.727130 0.905410
C83 C 0.911500 0.786360 0.768900
H84 H 0.963900 0.796600 0.829700
C85 C 0.848100 0.813870 0.695270
N86 N 0.866400 0.860190 0.712750
O87 O 0.945700 0.871490 0.789190
O88 O 0.801800 0.884290 0.650400
C89 C 0.770700 0.799850 0.606050
H90 H 0.728400 0.819600 0.557100
C91 C 0.756300 0.744020 0.089890
C92 C 0.669200 0.761660 -0.003960
O93 O 0.596500 0.731800 -0.060150
H94 H 0.540000 0.742400 -0.108000
O95 O 0.667000 0.799580 -0.021880
C96 C 0.819200 0.772850 0.161330
H97 H 0.810800 0.802700 0.150200
C98 C 0.894400 0.756870 0.249150
N99 N 0.962300 0.787200 0.324660
O100 O 0.966000 0.825160 0.302980
O101 O 1.014100 0.772870 0.405410
C102 C 0.911500 0.713640 0.268900
H103 H 0.963900 0.703400 0.329700
C104 C 0.848100 0.686130 0.195270
N105 N 0.866400 0.639810 0.212750
O106 O 0.945700 0.628510 0.289190
O107 O 0.801800 0.615710 0.150400
C108 C 0.770700 0.700150 0.106050
H109 H 0.728400 0.680400 0.057100
C110 C 0.243700 0.244020 0.410110
C111 C 0.330800 0.261660 0.503960
O112 O 0.403500 0.231800 0.560150
H113 H 0.460000 0.242400 0.608000
O114 O 0.333000 0.299580 0.521880
C115 C 0.180800 0.272850 0.338670
H116 H 0.189200 0.302700 0.349800
C117 C 0.105600 0.256870 0.250850
N118 N 0.037700 0.287200 0.175340
O119 O 0.034000 0.325160 0.197020
O120 O -0.014100 0.272870 0.094590
C121 C 0.088500 0.213640 0.231100
H122 H 0.036100 0.203400 0.170300
C123 C 0.151900 0.186130 0.304730
N124 N 0.133600 0.139810 0.287250
O125 O 0.054300 0.128510 0.210810
O126 O 0.198200 0.115710 0.349600
C127 C 0.229300 0.200150 0.393950
H128 H 0.271600 0.180400 0.442900
Br129 Br 0.231580 0.112305 0.940010
Br130 Br 0.273380 -0.066815 0.987560
N131 N 0.027400 0.010940 0.777510
C132 C 0.066300 0.050940 0.807420
N133 N 0.004700 0.083600 0.751330
H134 H -0.062000 0.077400 0.694000
H135 H 0.024000 0.111800 0.773000
C136 C 0.173300 0.056830 0.895860
C137 C 0.234800 0.022330 0.949210
H138 H 0.306700 0.026100 1.007900
C139 C 0.189400 -0.018640 0.915360
C140 C 0.085800 -0.023320 0.830250
H141 H 0.054500 -0.051200 0.807900
Br142 Br 0.768420 0.612305 0.559990
Br143 Br 0.726620 0.433185 0.512440
N144 N 0.972600 0.510940 0.722490
C145 C 0.933700 0.550940 0.692580
N146 N 0.995300 0.583600 0.748670
H147 H 1.062000 0.577400 0.806000
H148 H 0.976000 0.611800 0.727000
C149 C 0.826700 0.556830 0.604140
C150 C 0.765200 0.522330 0.550790
H151 H 0.693300 0.526100 0.492100
C152 C 0.810600 0.481360 0.584640
C153 C 0.914200 0.476680 0.669750
H154 H 0.945500 0.448800 0.692100
Br155 Br 0.768420 0.887695 0.059990
Br156 Br 0.726620 1.066815 0.012440
N157 N 0.972600 0.989060 0.222490
C158 C 0.933700 0.949060 0.192580
N159 N 0.995300 0.916400 0.248670
H160 H 1.062000 0.922600 0.306000
H161 H 0.976000 0.888200 0.227000
C162 C 0.826700 0.943170 0.104140
C163 C 0.765200 0.977670 0.050790
H164 H 0.693300 0.973900 -0.007900
C165 C 0.810600 1.018640 0.084640
C166 C 0.914200 1.023320 0.169750
H167 H 0.945500 1.051200 0.192100
Br168 Br 0.231580 0.387695 0.440010
Br169 Br 0.273380 0.566815 0.487560
N170 N 0.027400 0.489060 0.277510
C171 C 0.066300 0.449060 0.307420
N172 N 0.004700 0.416400 0.251330
H173 H -0.062000 0.422600 0.194000
H174 H 0.024000 0.388200 0.273000
C175 C 0.173300 0.443170 0.395860
C176 C 0.234800 0.477670 0.449210
H177 H 0.306700 0.473900 0.507900
C178 C 0.189400 0.518640 0.415360
C179 C 0.085800 0.523320 0.330250
H180 H 0.054500 0.551200 0.307900
C181 C 0.721500 0.998640 0.461470
C182 C 0.813800 1.017190 0.552980
O183 O 0.870800 0.988600 0.615560
H184 H 0.942000 1.001500 0.690000
O185 O 0.826500 1.056120 0.563530
C186 C 0.645700 1.026550 0.391120
H187 H 0.659700 1.056500 0.398000
C188 C 0.549400 1.009430 0.310850
N189 N 0.466000 1.038540 0.238250
O190 O 0.509200 1.076380 0.242360
O191 O 0.359600 1.023740 0.177080
C192 C 0.525900 0.966040 0.297270
H193 H 0.458500 0.954900 0.242200
C194 C 0.605500 0.939710 0.367890
N195 N 0.580900 0.893190 0.355800
O196 O 0.490200 0.880850 0.285220
O197 O 0.654700 0.869830 0.417090
C198 C 0.702500 0.954760 0.450120
H199 H 0.754600 0.935600 0.497400
C200 C 0.278500 0.498640 0.038530
C201 C 0.186200 0.517190 -0.052980
O202 O 0.129200 0.488600 -0.115560
H203 H 0.058000 0.501500 -0.190000
O204 O 0.173500 0.556120 -0.063530
C205 C 0.354300 0.526550 0.108880
H206 H 0.340300 0.556500 0.102000
C207 C 0.450600 0.509430 0.189150
N208 N 0.534000 0.538540 0.261750
O209 O 0.490800 0.576380 0.257640
O210 O 0.640400 0.523740 0.322920
C211 C 0.474100 0.466040 0.202730
H212 H 0.541500 0.454900 0.257800
C213 C 0.394500 0.439710 0.132110
N214 N 0.419100 0.393190 0.144200
O215 O 0.509800 0.380850 0.214780
O216 O 0.345300 0.369830 0.082910
C217 C 0.297500 0.454760 0.049880
H218 H 0.245400 0.435600 0.002600
C219 C 0.278500 0.001360 0.538530
C220 C 0.186200 -0.017190 0.447020
O221 O 0.129200 0.011400 0.384440
H222 H 0.058000 -0.001500 0.310000
O223 O 0.173500 -0.056120 0.436470
C224 C 0.354300 -0.026550 0.608880
H225 H 0.340300 -0.056500 0.602000
C226 C 0.450600 -0.009430 0.689150
N227 N 0.534000 -0.038540 0.761750
O228 O 0.490800 -0.076380 0.757640
O229 O 0.640400 -0.023740 0.822920
C230 C 0.474100 0.033960 0.702730
H231 H 0.541500 0.045100 0.757800
C232 C 0.394500 0.060290 0.632110
N233 N 0.419100 0.106810 0.644200
O234 O 0.509800 0.119150 0.714780
O235 O 0.345300 0.130170 0.582910
C236 C 0.297500 0.045240 0.549880
H237 H 0.245400 0.064400 0.502600
C238 C 0.721500 0.501360 0.961470
C239 C 0.813800 0.482810 1.052980
O240 O 0.870800 0.511400 1.115560
H241 H 0.942000 0.498500 1.190000
O242 O 0.826500 0.443880 1.063530
C243 C 0.645700 0.473450 0.891120
H244 H 0.659700 0.443500 0.898000
C245 C 0.549400 0.490570 0.810850
N246 N 0.466000 0.461460 0.738250
O247 O 0.509200 0.423620 0.742360
O248 O 0.359600 0.476260 0.677080
C249 C 0.525900 0.533960 0.797270
H250 H 0.458500 0.545100 0.742200
C251 C 0.605500 0.560290 0.867890
N252 N 0.580900 0.606810 0.855800
O253 O 0.490200 0.619150 0.785220
O254 O 0.654700 0.630170 0.917090
C255 C 0.702500 0.545240 0.950120
H256 H 0.754600 0.564400 0.997400

#END
