./LADNOT_from_xyz.cif_generated_by_CrystalShift
_symmetry_cell_setting triclinic
_symmetry_space_group_name_H-M 'P 1'
loop_
_symmetry_equiv_pos_site_id
_symmetry_equiv_pos_as_xyz
1 x,y,z
_cell_length_a 6.387000
_cell_length_b 20.590000
_cell_length_c 6.619000
_cell_angle_alpha 90.000000
_cell_angle_beta 104.050000
_cell_angle_gamma 90.000000
_cell_volume 844.413409
loop_
_atom_site_label
_atom_site_type_symbol
_atom_site_fract_x
_atom_site_fract_y
_atom_site_fract_z
O1 O 0.077400 0.525500 1.152300
O2 O 0.210700 0.531100 1.496100
O3 O 0.380500 0.433700 0.880500
O4 O 0.137500 0.654500 0.880100
O5 O -0.167800 0.597400 0.803300
O6 O 0.408800 0.305700 0.523200
O7 O 0.357400 0.205200 0.393500
O8 O 0.654700 0.398100 0.751300
C9 C 0.239700 0.538200 1.325100
C10 C 0.442800 0.558800 1.264700
C11 C 0.633900 0.514800 1.368900
C12 C 0.596300 0.454800 1.234700
C13 C 0.520500 0.480900 1.013800
C14 C 0.393900 0.544200 1.029300
C15 C 0.148600 0.540100 0.964300
C16 C 0.042800 0.603400 0.877800
C17 C 0.310200 0.343400 0.663900
C18 C 0.305000 0.247200 0.499400
C19 C 0.133600 0.249600 0.618200
C20 C -0.033100 0.299700 0.495700
C21 C 0.090500 0.365600 0.532800
C22 C 0.257100 0.290100 0.810200
C23 C 0.460400 0.256100 0.935700
C24 C 0.118300 0.311700 0.954200
C25 C 0.038000 0.184200 0.656000
C26 C 0.472000 0.394900 0.765600
H27 H 0.473800 0.603800 1.295700
H28 H 0.632500 0.505600 1.510700
H29 H 0.769500 0.534300 1.365700
H30 H 0.485900 0.428500 1.269100
H31 H 0.725800 0.429600 1.251900
H32 H 0.643800 0.489400 0.958900
H33 H 0.442700 0.578800 0.955000
H34 H 0.105500 0.505800 0.864500
H35 H -0.161100 0.300600 0.547400
H36 H -0.072000 0.288900 0.350300
H37 H 0.103000 0.385100 0.404600
H38 H 0.022200 0.395500 0.608000
H39 H 0.529400 0.283300 1.050300
H40 H 0.420400 0.215600 0.988100
H41 H 0.558100 0.247900 0.849000
H42 H 0.203200 0.336500 1.067700
H43 H 0.000800 0.337800 0.878300
H44 H 0.062300 0.273800 1.007700
H45 H 0.149800 0.156500 0.733700
H46 H -0.070700 0.190100 0.732200
H47 H -0.025500 0.164600 0.523700
H48 H -0.212300 0.636500 0.742200
O49 O 0.922600 1.025500 -0.152300
O50 O 0.789300 1.031100 -0.496100
O51 O 0.619500 0.933700 0.119500
O52 O 0.862500 1.154500 0.119900
O53 O 1.167800 1.097400 0.196700
O54 O 0.591200 0.805700 0.476800
O55 O 0.642600 0.705200 0.606500
O56 O 0.345300 0.898100 0.248700
C57 C 0.760300 1.038200 -0.325100
C58 C 0.557200 1.058800 -0.264700
C59 C 0.366100 1.014800 -0.368900
C60 C 0.403700 0.954800 -0.234700
C61 C 0.479500 0.980900 -0.013800
C62 C 0.606100 1.044200 -0.029300
C63 C 0.851400 1.040100 0.035700
C64 C 0.957200 1.103400 0.122200
C65 C 0.689800 0.843400 0.336100
C66 C 0.695000 0.747200 0.500600
C67 C 0.866400 0.749600 0.381800
C68 C 1.033100 0.799700 0.504300
C69 C 0.909500 0.865600 0.467200
C70 C 0.742900 0.790100 0.189800
C71 C 0.539600 0.756100 0.064300
C72 C 0.881700 0.811700 0.045800
C73 C 0.962000 0.684200 0.344000
C74 C 0.528000 0.894900 0.234400
H75 H 0.526200 1.103800 -0.295700
H76 H 0.367500 1.005600 -0.510700
H77 H 0.230500 1.034300 -0.365700
H78 H 0.514100 0.928500 -0.269100
H79 H 0.274200 0.929600 -0.251900
H80 H 0.356200 0.989400 0.041100
H81 H 0.557300 1.078800 0.045000
H82 H 0.894500 1.005800 0.135500
H83 H 1.161100 0.800600 0.452600
H84 H 1.072000 0.788900 0.649700
H85 H 0.897000 0.885100 0.595400
H86 H 0.977800 0.895500 0.392000
H87 H 0.470600 0.783300 -0.050300
H88 H 0.579600 0.715600 0.011900
H89 H 0.441900 0.747900 0.151000
H90 H 0.796800 0.836500 -0.067700
H91 H 0.999200 0.837800 0.121700
H92 H 0.937700 0.773800 -0.007700
H93 H 0.850200 0.656500 0.266300
H94 H 1.070700 0.690100 0.267800
H95 H 1.025500 0.664600 0.476300
H96 H 1.212300 1.136500 0.257800

#END
