./LAFTAQ_from_POSCAR.cif_generated_by_CrystalShift
_symmetry_cell_setting triclinic
_symmetry_space_group_name_H-M 'P 1'
loop_
_symmetry_equiv_pos_site_id
_symmetry_equiv_pos_as_xyz
1 x,y,z
_cell_length_a 19.348300
_cell_length_b 19.348300
_cell_length_c 6.225200
_cell_angle_alpha 90.000000
_cell_angle_beta 90.000000
_cell_angle_gamma 120.000000
_cell_volume 2018.224926
loop_
_atom_site_label
_atom_site_type_symbol
_atom_site_fract_x
_atom_site_fract_y
_atom_site_fract_z
H1 H 1.035600 -0.228500 0.696000
H2 H 0.459300 0.572900 0.328000
H3 H 0.510800 0.565200 0.979000
H4 H 0.597400 0.702300 0.971000
H5 H 0.501900 0.874400 1.001000
H6 H 0.553100 0.792700 1.006000
H7 H -0.264100 -0.035600 -0.304000
H8 H -0.177500 0.101500 -0.312000
H9 H -0.126000 0.093800 0.339000
H10 H -0.207700 -0.039100 0.334000
H11 H 0.612300 0.844200 0.355000
H12 H 0.561800 0.930800 0.363000
H13 H 0.372400 0.498100 1.001000
H14 H 0.239500 0.446900 1.006000
H15 H 0.231800 0.387700 0.355000
H16 H 0.368900 0.438200 0.363000
H17 H -0.035600 0.228500 0.304000
H18 H 0.101500 0.279000 0.312000
H19 H 0.093800 0.219800 -0.339000
H20 H -0.039100 0.168600 -0.334000
H21 H 0.164700 0.459000 0.333000
H22 H 0.113500 0.540700 0.328000
H23 H 0.054300 0.489200 0.979000
H24 H 0.104800 0.402600 0.971000
H25 H 0.294200 0.835300 0.333000
H26 H 0.427100 0.886500 0.328000
H27 H -0.228500 -0.264100 0.304000
H28 H -0.279000 -0.177500 0.312000
H29 H -0.219800 -0.126000 -0.339000
H30 H -0.168600 -0.207700 -0.334000
H31 H 0.434800 0.945700 0.979000
H32 H 0.297700 0.895200 0.971000
H33 H 0.125600 0.627600 1.001000
H34 H 0.207300 0.760500 1.006000
H35 H 0.155800 0.768200 0.355000
H36 H 0.069200 0.631100 0.363000
H37 H 0.035600 -0.228500 -0.304000
H38 H -0.101500 -0.279000 -0.312000
H39 H -0.093800 -0.219800 0.339000
H40 H 0.039100 -0.168600 0.334000
H41 H 0.874400 0.372400 -0.001000
H42 H 0.792700 0.239500 -0.006000
H43 H 0.844200 0.231800 0.645000
H44 H 0.930800 0.368900 0.637000
H45 H 0.835300 0.541000 0.667000
H46 H 0.886500 0.459300 0.672000
H47 H 0.228500 0.264100 -0.304000
H48 H 0.279000 0.177500 -0.312000
H49 H 0.219800 0.126000 0.339000
H50 H 0.168600 0.207700 0.334000
H51 H 0.945700 0.510800 0.021000
H52 H 0.895200 0.597400 0.029000
H53 H 0.705800 0.164700 0.667000
H54 H 0.572900 0.113500 0.672000
H55 H 0.565200 0.054300 0.021000
H56 H 0.702300 0.104800 0.029000
H57 H 0.264100 0.035600 0.304000
H58 H 0.177500 -0.101500 0.312000
H59 H 0.126000 -0.093800 -0.339000
H60 H 0.207700 0.039100 -0.334000
H61 H 0.498100 0.125600 -0.001000
H62 H 0.446900 0.207300 -0.006000
H63 H 0.387700 0.155800 0.645000
H64 H 0.438200 0.069200 0.637000
H65 H 0.627600 0.501900 -0.001000
H66 H 0.760500 0.553100 -0.006000
H67 H -0.264100 -0.035600 0.696000
H68 H -0.177500 0.101500 0.688000
H69 H -0.126000 0.093800 1.339000
H70 H -0.207700 -0.039100 1.334000
H71 H 0.768200 0.612300 0.645000
H72 H 0.631100 0.561800 0.637000
H73 H 0.459000 0.294200 0.667000
H74 H 0.540700 0.427100 0.672000
H75 H 0.489200 0.434800 0.021000
H76 H 0.402600 0.297700 0.029000
H77 H -0.035600 0.228500 1.304000
H78 H 0.101500 0.279000 1.312000
H79 H 0.093800 0.219800 0.661000
H80 H -0.039100 0.168600 0.666000
H81 H 1.207700 1.039100 0.666000
H82 H 1.126000 0.906200 0.661000
H83 H 1.177500 0.898500 1.312000
H84 H 1.264100 1.035600 1.304000
H85 H 1.168600 1.207700 1.334000
H86 H 1.219800 1.126000 1.339000
H87 H -0.228500 -0.264100 1.304000
H88 H -0.279000 -0.177500 1.312000
H89 H -0.219800 -0.126000 0.661000
H90 H -0.168600 -0.207700 0.666000
H91 H 1.279000 1.177500 0.688000
H92 H 1.228500 1.264100 0.696000
H93 H 1.039100 0.831400 1.334000
H94 H 0.906200 0.780200 1.339000
H95 H 0.898500 0.721000 0.688000
H96 H 1.035600 0.771500 0.696000
H97 H 0.035600 -0.228500 0.696000
H98 H -0.101500 -0.279000 0.688000
H99 H -0.093800 -0.219800 1.339000
H100 H 0.039100 -0.168600 1.334000
H101 H 0.831400 0.792300 0.666000
H102 H 0.780200 0.874000 0.661000
H103 H 0.721000 0.822500 1.312000
H104 H 0.771500 0.735900 1.304000
H105 H 0.960900 1.168600 0.666000
H106 H 1.093800 1.219800 0.661000
H107 H 0.228500 0.264100 0.696000
H108 H 0.279000 0.177500 0.688000
H109 H 0.219800 0.126000 1.339000
H110 H 0.168600 0.207700 1.334000
H111 H 1.101500 1.279000 1.312000
H112 H 0.964400 1.228500 1.304000
H113 H 0.792300 0.960900 1.334000
H114 H 0.874000 1.093800 1.339000
H115 H 0.822500 1.101500 0.688000
H116 H 0.735900 0.964400 0.696000
H117 H 0.264100 0.035600 1.304000
H118 H 0.177500 -0.101500 1.312000
H119 H 0.126000 -0.093800 0.661000
H120 H 0.207700 0.039100 0.666000
H121 H 1.207700 1.039100 -0.334000
H122 H 1.126000 0.906200 -0.339000
H123 H 1.177500 0.898500 0.312000
H124 H 1.264100 1.035600 0.304000
H125 H 1.168600 1.207700 0.334000
H126 H 1.219800 1.126000 0.339000
H127 H -0.264100 0.964400 -0.304000
H128 H -0.177500 1.101500 -0.312000
H129 H -0.126000 1.093800 0.339000
H130 H -0.207700 0.960900 0.334000
H131 H 1.279000 1.177500 -0.312000
H132 H 1.228500 1.264100 -0.304000
H133 H 1.039100 0.831400 0.334000
H134 H 0.906200 0.780200 0.339000
H135 H 0.898500 0.721000 -0.312000
H136 H 1.035600 0.771500 -0.304000
H137 H -0.035600 1.228500 0.304000
H138 H 0.101500 1.279000 0.312000
H139 H 0.093800 1.219800 -0.339000
H140 H -0.039100 1.168600 -0.334000
H141 H 0.831400 0.792300 -0.334000
H142 H 0.780200 0.874000 -0.339000
H143 H 0.721000 0.822500 0.312000
H144 H 0.771500 0.735900 0.304000
H145 H 0.960900 1.168600 -0.334000
H146 H 1.093800 1.219800 -0.339000
H147 H -0.228500 0.735900 0.304000
H148 H -0.279000 0.822500 0.312000
H149 H -0.219800 0.874000 -0.339000
H150 H -0.168600 0.792300 -0.334000
H151 H 1.101500 1.279000 0.312000
H152 H 0.964400 1.228500 0.304000
H153 H 0.792300 0.960900 0.334000
H154 H 0.874000 1.093800 0.339000
H155 H 0.822500 1.101500 -0.312000
H156 H 0.735900 0.964400 -0.304000
H157 H 0.035600 0.771500 -0.304000
H158 H -0.101500 0.721000 -0.312000
H159 H -0.093800 0.780200 0.339000
H160 H 0.039100 0.831400 0.334000
H161 H 1.207700 0.039100 0.666000
H162 H 1.126000 -0.093800 0.661000
H163 H 1.177500 -0.101500 1.312000
H164 H 1.264100 0.035600 1.304000
H165 H 1.168600 0.207700 1.334000
H166 H 1.219800 0.126000 1.339000
H167 H 0.228500 1.264100 -0.304000
H168 H 0.279000 1.177500 -0.312000
H169 H 0.219800 1.126000 0.339000
H170 H 0.168600 1.207700 0.334000
H171 H 1.279000 0.177500 0.688000
H172 H 1.228500 0.264100 0.696000
H173 H 1.039100 -0.168600 1.334000
H174 H 0.906200 -0.219800 1.339000
H175 H 0.898500 -0.279000 0.688000
H176 H 0.831400 -0.207700 0.666000
H177 H 0.264100 1.035600 0.304000
H178 H 0.177500 0.898500 0.312000
H179 H 0.126000 0.906200 -0.339000
H180 H 0.207700 1.039100 -0.334000
H181 H 0.780200 -0.126000 0.661000
H182 H 0.721000 -0.177500 1.312000
H183 H 0.771500 -0.264100 1.304000
H184 H 0.960900 0.168600 0.666000
H185 H 1.093800 0.219800 0.661000
H186 H 1.101500 0.279000 1.312000
H187 H -0.264100 0.964400 0.696000
H188 H -0.177500 1.101500 0.688000
H189 H -0.126000 1.093800 1.339000
H190 H -0.207700 0.960900 1.334000
H191 H 0.964400 0.228500 1.304000
H192 H 0.792300 -0.039100 1.334000
H193 H 0.874000 0.093800 1.339000
H194 H 0.822500 0.101500 0.688000
H195 H 0.735900 -0.035600 0.696000
H196 H 0.541000 0.705800 0.333000
H197 H -0.035600 1.228500 1.304000
H198 H 0.101500 1.279000 1.312000
H199 H 0.093800 1.219800 0.661000
H200 H -0.039100 1.168600 0.666000
H201 H 1.207700 0.039100 -0.334000
H202 H 1.126000 -0.093800 -0.339000
H203 H 1.177500 -0.101500 0.312000
H204 H 1.264100 0.035600 0.304000
H205 H 1.168600 0.207700 0.334000
H206 H 1.219800 0.126000 0.339000
H207 H -0.228500 0.735900 1.304000
H208 H -0.279000 0.822500 1.312000
H209 H -0.219800 0.874000 0.661000
H210 H -0.168600 0.792300 0.666000
H211 H 1.279000 0.177500 -0.312000
H212 H 1.228500 0.264100 -0.304000
H213 H 1.039100 -0.168600 0.334000
H214 H 0.906200 -0.219800 0.339000
H215 H 0.898500 -0.279000 -0.312000
H216 H 1.035600 -0.228500 -0.304000
H217 H 0.035600 0.771500 0.696000
H218 H -0.101500 0.721000 0.688000
H219 H -0.093800 0.780200 1.339000
H220 H 0.039100 0.831400 1.334000
H221 H 0.831400 -0.207700 -0.334000
H222 H 0.780200 -0.126000 -0.339000
H223 H 0.721000 -0.177500 0.312000
H224 H 0.771500 -0.264100 0.304000
H225 H 0.960900 0.168600 -0.334000
H226 H 1.093800 0.219800 -0.339000
H227 H 0.228500 1.264100 0.696000
H228 H 0.279000 1.177500 0.688000
H229 H 0.219800 1.126000 1.339000
H230 H 0.168600 1.207700 1.334000
H231 H 1.101500 0.279000 0.312000
H232 H 0.964400 0.228500 0.304000
H233 H 0.792300 -0.039100 0.334000
H234 H 0.874000 0.093800 0.339000
H235 H 0.822500 0.101500 -0.312000
H236 H 0.735900 -0.035600 -0.304000
H237 H 0.264100 1.035600 1.304000
H238 H 0.177500 0.898500 1.312000
H239 H 0.126000 0.906200 0.661000
H240 H 0.207700 1.039100 0.666000
C241 C 0.762720 -0.053420 0.011200
C242 C 0.766380 -0.007990 -0.168800
C243 C 0.817400 0.073820 -0.170400
C244 C 0.864730 0.113070 0.008000
C245 C 0.845150 0.070140 0.199300
C246 C 0.795130 -0.011670 0.200600
C247 C 0.204870 1.011670 0.799400
C248 C 0.154850 0.929860 0.800700
C249 C 0.135270 0.886930 0.992000
C250 C 0.182600 0.926180 1.170400
C251 C 0.946580 0.183860 -0.011200
C252 C 0.992010 0.225630 0.168800
C253 C 1.073820 0.256420 0.170400
C254 C 1.113070 0.248340 -0.008000
C255 C 1.070140 0.224990 -0.199300
C256 C 0.988330 0.193200 -0.200600
C257 C 0.233620 1.007990 1.168800
C258 C 0.237280 1.053420 0.988800
C259 C 0.193200 1.204870 1.200600
C260 C 0.224990 1.154850 1.199300
C261 C 0.816140 -0.237280 -0.011200
C262 C 0.774370 -0.233620 0.168800
C263 C 0.743580 -0.182600 0.170400
C264 C 0.751660 -0.135270 -0.008000
C265 C 0.775010 -0.154850 -0.199300
C266 C 0.806800 -0.204870 -0.200600
C267 C 0.248340 1.135270 1.008000
C268 C 0.256420 1.182600 0.829600
C269 C 0.225630 1.233620 0.831200
C270 C 0.183860 1.237280 1.011200
C271 C 1.053420 -0.183860 0.011200
C272 C 1.007990 -0.225630 -0.168800
C273 C 0.926180 -0.256420 -0.170400
C274 C 0.886930 -0.248340 0.008000
C275 C 0.929860 -0.224990 0.199300
C276 C 1.011670 -0.193200 0.200600
C277 C 0.011670 0.806800 1.200600
C278 C -0.070140 0.775010 1.199300
C279 C -0.113070 0.751660 1.008000
C280 C -0.073820 0.743580 0.829600
C281 C 1.183860 0.237280 0.011200
C282 C 1.225630 0.233620 -0.168800
C283 C 1.256420 0.182600 -0.170400
C284 C 1.248340 0.135270 0.008000
C285 C 1.224990 0.154850 0.199300
C286 C 1.193200 0.204870 0.200600
C287 C 0.007990 0.774370 0.831200
C288 C 0.053420 0.816140 1.011200
C289 C -0.193200 0.795130 0.799400
C290 C -0.224990 0.845150 0.800700
C291 C 1.237280 0.053420 -0.011200
C292 C 1.233620 0.007990 0.168800
C293 C 1.182600 -0.073820 0.170400
C294 C 1.135270 -0.113070 -0.008000
C295 C 1.154850 -0.070140 -0.199300
C296 C 1.204870 0.011670 -0.200600
C297 C -0.248340 0.864730 0.992000
C298 C -0.256420 0.817400 1.170400
C299 C -0.225630 0.766380 1.168800
C300 C -0.183860 0.762720 0.988800
C301 C -0.011670 1.193200 0.799400
C302 C 0.766380 -0.007990 0.831200
C303 C 0.817400 0.073820 0.829600
C304 C 0.864730 0.113070 1.008000
C305 C 0.845150 0.070140 1.199300
C306 C 0.795130 -0.011670 1.200600
C307 C 0.070140 1.224990 0.800700
C308 C 0.113070 1.248340 0.992000
C309 C 0.073820 1.256420 1.170400
C310 C -0.007990 1.225630 1.168800
C311 C 0.946580 0.183860 0.988800
C312 C 0.992010 0.225630 1.168800
C313 C 1.073820 0.256420 1.170400
C314 C 1.113070 0.248340 0.992000
C315 C 1.070140 0.224990 0.800700
C316 C 0.988330 0.193200 0.799400
C317 C -0.053420 1.183860 0.988800
C318 C -0.204870 0.988330 1.200600
C319 C -0.154850 1.070140 1.199300
C320 C -0.135270 1.113070 1.008000
C321 C 0.816140 -0.237280 0.988800
C322 C 0.774370 -0.233620 1.168800
C323 C 0.743580 -0.182600 1.170400
C324 C 0.751660 -0.135270 0.992000
C325 C 0.775010 -0.154850 0.800700
C326 C 0.806800 -0.204870 0.799400
C327 C -0.182600 1.073820 0.829600
C328 C -0.233620 0.992010 0.831200
C329 C -0.237280 0.946580 1.011200
C330 C 0.204870 1.011670 -0.200600
C331 C 1.053420 -0.183860 1.011200
C332 C 1.007990 -0.225630 0.831200
C333 C 0.926180 -0.256420 0.829600
C334 C 0.886930 -0.248340 1.008000
C335 C 0.929860 -0.224990 1.199300
C336 C 1.011670 -0.193200 1.200600
C337 C -0.237280 -0.053420 0.011200
C338 C 0.154850 0.929860 -0.199300
C339 C 0.135270 0.886930 -0.008000
C340 C 0.182600 0.926180 0.170400
C341 C 1.183860 0.237280 1.011200
C342 C 1.225630 0.233620 0.831200
C343 C 1.256420 0.182600 0.829600
C344 C 1.248340 0.135270 1.008000
C345 C 1.224990 0.154850 1.199300
C346 C 1.193200 0.204870 1.200600
C347 C 0.233620 1.007990 0.168800
C348 C 0.237280 1.053420 -0.011200
C349 C 0.193200 1.204870 0.200600
C350 C 0.224990 1.154850 0.199300
C351 C 1.237280 0.053420 0.988800
C352 C 1.233620 0.007990 1.168800
C353 C 1.182600 -0.073820 1.170400
C354 C 1.135270 -0.113070 0.992000
C355 C 1.154850 -0.070140 0.800700
C356 C 1.204870 0.011670 0.799400
C357 C 0.248340 1.135270 0.008000
C358 C 0.256420 1.182600 -0.170400
C359 C 0.225630 1.233620 -0.168800
C360 C 0.183860 1.237280 0.011200
C361 C 0.762720 0.946580 0.011200
C362 C 0.766380 0.992010 -0.168800
C363 C 0.817400 1.073820 -0.170400
C364 C 0.864730 1.113070 0.008000
C365 C 0.845150 1.070140 0.199300
C366 C 0.795130 0.988330 0.200600
C367 C 0.011670 0.806800 0.200600
C368 C -0.070140 0.775010 0.199300
C369 C -0.113070 0.751660 0.008000
C370 C -0.073820 0.743580 -0.170400
C371 C 0.946580 1.183860 -0.011200
C372 C 0.992010 1.225630 0.168800
C373 C 1.073820 1.256420 0.170400
C374 C 1.113070 1.248340 -0.008000
C375 C 1.070140 1.224990 -0.199300
C376 C 0.988330 1.193200 -0.200600
C377 C 0.007990 0.774370 -0.168800
C378 C 0.053420 0.816140 0.011200
C379 C -0.193200 0.795130 -0.200600
C380 C -0.224990 0.845150 -0.199300
C381 C 0.816140 0.762720 -0.011200
C382 C 0.774370 0.766380 0.168800
C383 C 0.743580 0.817400 0.170400
C384 C 0.751660 0.864730 -0.008000
C385 C 0.775010 0.845150 -0.199300
C386 C 0.806800 0.795130 -0.200600
C387 C -0.248340 0.864730 -0.008000
C388 C -0.256420 0.817400 0.170400
C389 C -0.225630 0.766380 0.168800
C390 C -0.183860 0.762720 -0.011200
C391 C 1.053420 0.816140 0.011200
C392 C 1.007990 0.774370 -0.168800
C393 C 0.926180 0.743580 -0.170400
C394 C 0.886930 0.751660 0.008000
C395 C 0.929860 0.775010 0.199300
C396 C 1.011670 0.806800 0.200600
C397 C -0.011670 1.193200 -0.200600
C398 C 0.070140 1.224990 -0.199300
C399 C 0.113070 1.248340 -0.008000
C400 C 0.073820 1.256420 0.170400
C401 C 1.183860 1.237280 0.011200
C402 C 1.225630 1.233620 -0.168800
C403 C 1.256420 1.182600 -0.170400
C404 C 1.248340 1.135270 0.008000
C405 C 1.224990 1.154850 0.199300
C406 C 1.193200 1.204870 0.200600
C407 C -0.007990 1.225630 0.168800
C408 C -0.053420 1.183860 -0.011200
C409 C -0.204870 0.988330 0.200600
C410 C -0.154850 1.070140 0.199300
C411 C 1.237280 1.053420 -0.011200
C412 C 1.233620 1.007990 0.168800
C413 C 1.182600 0.926180 0.170400
C414 C 1.135270 0.886930 -0.008000
C415 C 1.154850 0.929860 -0.199300
C416 C 1.204870 1.011670 -0.200600
C417 C -0.135270 1.113070 0.008000
C418 C -0.182600 1.073820 -0.170400
C419 C -0.233620 0.992010 -0.168800
C420 C -0.237280 0.946580 0.011200
C421 C 0.762720 0.946580 1.011200
C422 C 0.766380 0.992010 0.831200
C423 C 0.817400 1.073820 0.829600
C424 C 0.864730 1.113070 1.008000
C425 C 0.845150 1.070140 1.199300
C426 C 0.795130 0.988330 1.200600
C427 C 0.204870 0.011670 0.799400
C428 C 0.154850 -0.070140 0.800700
C429 C 0.135270 -0.113070 0.992000
C430 C 0.182600 -0.073820 1.170400
C431 C 0.946580 1.183860 0.988800
C432 C 0.992010 1.225630 1.168800
C433 C 1.073820 1.256420 1.170400
C434 C 1.113070 1.248340 0.992000
C435 C 1.070140 1.224990 0.800700
C436 C 0.988330 1.193200 0.799400
C437 C 0.233620 0.007990 1.168800
C438 C 0.237280 0.053420 0.988800
C439 C 0.193200 0.204870 1.200600
C440 C 0.224990 0.154850 1.199300
C441 C 0.816140 0.762720 0.988800
C442 C 0.774370 0.766380 1.168800
C443 C 0.743580 0.817400 1.170400
C444 C 0.751660 0.864730 0.992000
C445 C 0.775010 0.845150 0.800700
C446 C 0.806800 0.795130 0.799400
C447 C 0.248340 0.135270 1.008000
C448 C 0.256420 0.182600 0.829600
C449 C 0.225630 0.233620 0.831200
C450 C 0.183860 0.237280 1.011200
C451 C 1.053420 0.816140 1.011200
C452 C 1.007990 0.774370 0.831200
C453 C 0.926180 0.743580 0.829600
C454 C 0.886930 0.751660 1.008000
C455 C 0.929860 0.775010 1.199300
C456 C 1.011670 0.806800 1.200600
C457 C 0.011670 -0.193200 1.200600
C458 C -0.070140 -0.224990 1.199300
C459 C -0.113070 -0.248340 1.008000
C460 C -0.073820 -0.256420 0.829600
C461 C 1.183860 1.237280 1.011200
C462 C 1.225630 1.233620 0.831200
C463 C 1.256420 1.182600 0.829600
C464 C 1.248340 1.135270 1.008000
C465 C 1.224990 1.154850 1.199300
C466 C 1.193200 1.204870 1.200600
C467 C 0.007990 -0.225630 0.831200
C468 C 0.053420 -0.183860 1.011200
C469 C -0.193200 -0.204870 0.799400
C470 C -0.224990 -0.154850 0.800700
C471 C 1.237280 1.053420 0.988800
C472 C 1.233620 1.007990 1.168800
C473 C 1.182600 0.926180 1.170400
C474 C 1.135270 0.886930 0.992000
C475 C 1.154850 0.929860 0.800700
C476 C 1.204870 1.011670 0.799400
C477 C -0.248340 -0.135270 0.992000
C478 C -0.256420 -0.182600 1.170400
C479 C -0.225630 -0.233620 1.168800
C480 C -0.183860 -0.237280 0.988800
C481 C 0.429390 0.279910 0.344500
C482 C 0.433050 0.325340 0.164500
C483 C 0.484070 0.407150 0.162900
C484 C 0.531400 0.446400 0.341300
C485 C 0.511820 0.403470 0.532600
C486 C 0.461800 0.321660 0.533900
C487 C -0.011670 0.193200 0.799400
C488 C 0.070140 0.224990 0.800700
C489 C 0.113070 0.248340 0.992000
C490 C 0.073820 0.256420 1.170400
C491 C 0.613250 0.517190 0.322100
C492 C 0.658680 0.558960 0.502100
C493 C 0.740490 0.589750 0.503700
C494 C 0.779740 0.581670 0.325300
C495 C 0.736810 0.558320 0.134000
C496 C 0.655000 0.526530 0.132700
C497 C -0.007990 0.225630 1.168800
C498 C -0.053420 0.183860 0.988800
C499 C -0.204870 -0.011670 1.200600
C500 C -0.154850 0.070140 1.199300
C501 C 0.482810 0.096050 0.322100
C502 C 0.441040 0.099710 0.502100
C503 C 0.410250 0.150730 0.503700
C504 C 0.418330 0.198060 0.325300
C505 C 0.441680 0.178480 0.134000
C506 C 0.473470 0.128460 0.132700
C507 C -0.135270 0.113070 1.008000
C508 C -0.182600 0.073820 0.829600
C509 C -0.233620 -0.007990 0.831200
C510 C -0.237280 -0.053420 1.011200
C511 C 0.720090 0.149470 0.344500
C512 C 0.674660 0.107700 0.164500
C513 C 0.592850 0.076910 0.162900
C514 C 0.553600 0.084990 0.341300
C515 C 0.596530 0.108340 0.532600
C516 C 0.678340 0.140130 0.533900
C517 C 0.204870 0.011670 -0.200600
C518 C 0.154850 -0.070140 -0.199300
C519 C 0.135270 -0.113070 -0.008000
C520 C 0.182600 -0.073820 0.170400
C521 C 0.850530 0.570610 0.344500
C522 C 0.892300 0.566950 0.164500
C523 C 0.923090 0.515930 0.162900
C524 C 0.915010 0.468600 0.341300
C525 C 0.891660 0.488180 0.532600
C526 C 0.859870 0.538200 0.533900
C527 C 0.233620 0.007990 0.168800
C528 C 0.237280 0.053420 -0.011200
C529 C 0.193200 0.204870 0.200600
C530 C 0.224990 0.154850 0.199300
C531 C 0.903950 0.386750 0.322100
C532 C 0.900290 0.341320 0.502100
C533 C 0.849270 0.259510 0.503700
C534 C 0.801940 0.220260 0.325300
C535 C 0.821520 0.263190 0.134000
C536 C 0.871540 0.345000 0.132700
C537 C 0.248340 0.135270 0.008000
C538 C 0.256420 0.182600 -0.170400
C539 C 0.225630 0.233620 -0.168800
C540 C 0.183860 0.237280 0.011200
C541 C 0.096050 0.613250 0.677900
C542 C 0.099710 0.658680 0.497900
C543 C 0.150730 0.740490 0.496300
C544 C 0.198060 0.779740 0.674700
C545 C 0.178480 0.736810 0.866000
C546 C 0.128460 0.655000 0.867300
C547 C 0.011670 -0.193200 0.200600
C548 C -0.070140 -0.224990 0.199300
C549 C -0.113070 -0.248340 0.008000
C550 C -0.073820 -0.256420 -0.170400
C551 C 0.279910 0.850530 0.655500
C552 C 0.325340 0.892300 0.835500
C553 C 0.407150 0.923090 0.837100
C554 C 0.446400 0.915010 0.658700
C555 C 0.403470 0.891660 0.467400
C556 C 0.321660 0.859870 0.466100
C557 C 0.007990 -0.225630 -0.168800
C558 C 0.053420 -0.183860 0.011200
C559 C -0.193200 -0.204870 -0.200600
C560 C -0.224990 -0.154850 -0.199300
C561 C 0.149470 0.429390 0.655500
C562 C 0.107700 0.433050 0.835500
C563 C 0.076910 0.484070 0.837100
C564 C 0.084990 0.531400 0.658700
C565 C 0.108340 0.511820 0.467400
C566 C 0.140130 0.461800 0.466100
C567 C -0.248340 -0.135270 -0.008000
C568 C -0.256420 -0.182600 0.170400
C569 C -0.225630 -0.233620 0.168800
C570 C -0.183860 -0.237280 -0.011200
C571 C 0.386750 0.482810 0.677900
C572 C 0.341320 0.441040 0.497900
C573 C 0.259510 0.410250 0.496300
C574 C 0.220260 0.418330 0.674700
C575 C 0.263190 0.441680 0.866000
C576 C 0.345000 0.473470 0.867300
C577 C -0.011670 0.193200 -0.200600
C578 C 0.070140 0.224990 -0.199300
C579 C 0.113070 0.248340 -0.008000
C580 C 0.073820 0.256420 0.170400
C581 C 0.517190 0.903950 0.677900
C582 C 0.558960 0.900290 0.497900
C583 C 0.589750 0.849270 0.496300
C584 C 0.581670 0.801940 0.674700
C585 C 0.558320 0.821520 0.866000
C586 C 0.526530 0.871540 0.867300
C587 C -0.007990 0.225630 0.168800
C588 C -0.053420 0.183860 -0.011200
C589 C -0.204870 -0.011670 0.200600
C590 C -0.154850 0.070140 0.199300
C591 C 0.570610 0.720090 0.655500
C592 C 0.566950 0.674660 0.835500
C593 C 0.515930 0.592850 0.837100
C594 C 0.468600 0.553600 0.658700
C595 C 0.488180 0.596530 0.467400
C596 C 0.538200 0.678340 0.466100
C597 C -0.135270 0.113070 0.008000
C598 C -0.182600 0.073820 -0.170400
C599 C -0.233620 -0.007990 -0.168800
C600 C 0.762720 -0.053420 1.011200
N601 N 0.766380 -0.007990 -0.168800
N602 N 0.817400 0.073820 -0.170400
N603 N 0.845150 0.070140 0.199300
N604 N 0.795130 -0.011670 0.200600
N605 N 1.007990 0.774370 -0.168800
N606 N 0.926180 0.743580 -0.170400
N607 N 0.929860 0.775010 0.199300
N608 N 1.011670 0.806800 0.200600
N609 N 0.225630 0.233620 -0.168800
N610 N 0.256420 0.182600 -0.170400
N611 N 0.224990 0.154850 0.199300
N612 N 0.193200 0.204870 0.200600
N613 N 0.433050 0.325340 0.164500
N614 N 0.484070 0.407150 0.162900
N615 N 0.511820 0.403470 0.532600
N616 N 0.461800 0.321660 0.533900
N617 N 0.674660 0.107700 0.164500
N618 N 0.592850 0.076910 0.162900
N619 N 0.596530 0.108340 0.532600
N620 N 0.678340 0.140130 0.533900
N621 N 0.892300 0.566950 0.164500
N622 N 0.923090 0.515930 0.162900
N623 N 0.891660 0.488180 0.532600
N624 N 0.859870 0.538200 0.533900
N625 N 0.099710 0.658680 0.497900
N626 N 0.150730 0.740490 0.496300
N627 N 0.178480 0.736810 0.866000
N628 N 0.128460 0.655000 0.867300
N629 N 0.341320 0.441040 0.497900
N630 N 0.259510 0.410250 0.496300
N631 N 0.263190 0.441680 0.866000
N632 N 0.345000 0.473470 0.867300
N633 N 0.558960 0.900290 0.497900
N634 N 0.589750 0.849270 0.496300
N635 N 0.558320 0.821520 0.866000
N636 N 0.526530 0.871540 0.867300
N637 N 0.233620 1.007990 1.168800
N638 N 0.182600 0.926180 1.170400
N639 N 0.154850 0.929860 0.800700
N640 N 0.204870 1.011670 0.799400
N641 N -0.007990 0.225630 1.168800
N642 N 0.073820 0.256420 1.170400
N643 N 0.070140 0.224990 0.800700
N644 N -0.011670 0.193200 0.799400
N645 N 0.774370 0.766380 1.168800
N646 N 0.743580 0.817400 1.170400
N647 N 0.775010 0.845150 0.800700
N648 N 0.806800 0.795130 0.799400
N649 N 0.566950 0.674660 0.835500
N650 N 0.515930 0.592850 0.837100
N651 N 0.488180 0.596530 0.467400
N652 N 0.538200 0.678340 0.466100
N653 N 0.325340 0.892300 0.835500
N654 N 0.407150 0.923090 0.837100
N655 N 0.403470 0.891660 0.467400
N656 N 0.321660 0.859870 0.466100
N657 N 0.107700 0.433050 0.835500
N658 N 0.076910 0.484070 0.837100
N659 N 0.108340 0.511820 0.467400
N660 N 0.140130 0.461800 0.466100
N661 N 0.900290 0.341320 0.502100
N662 N 0.849270 0.259510 0.503700
N663 N 0.821520 0.263190 0.134000
N664 N 0.871540 0.345000 0.132700
N665 N 0.658680 0.558960 0.502100
N666 N 0.740490 0.589750 0.503700
N667 N 0.736810 0.558320 0.134000
N668 N 0.655000 0.526530 0.132700
N669 N 0.441040 0.099710 0.502100
N670 N 0.410250 0.150730 0.503700
N671 N 0.441680 0.178480 0.134000
N672 N 0.473470 0.128460 0.132700

#END
