
#######################################################################
#
#                 Cambridge Crystallographic Data Centre
#                                CCDC 
#
#######################################################################
#
# If this CIF has been generated from an entry in the Cambridge 
# Structural Database, then it will include bibliographic, chemical, 
# crystal, experimental, refinement or atomic coordinate data resulting 
# from the CCDC's data processing and validation procedures.
#
#######################################################################

data_LAFVIA
_symmetry_cell_setting           monoclinic
_symmetry_space_group_name_H-M   'P c'
_symmetry_Int_Tables_number      7
_space_group_name_Hall           'P -2yc'
loop_
_symmetry_equiv_pos_site_id
_symmetry_equiv_pos_as_xyz
1 x,y,z
2 x,-y,1/2+z
_cell_length_a                   23.874(4)
_cell_length_b                   4.0071(7)
_cell_length_c                   17.265(3)
_cell_angle_alpha                90
_cell_angle_beta                 108.838(3)
_cell_angle_gamma                90
_cell_volume                     1563.19
loop_
_atom_site_label
_atom_site_type_symbol
_atom_site_fract_x
_atom_site_fract_y
_atom_site_fract_z
C1 C 0.4378(3) 0.6755(18) 0.1879(4)
C2 C 0.4271(3) 0.508(2) 0.2494(4)
H1 H 0.4575 0.4392 0.2956
C3 C 0.3680(3) 0.445(2) 0.2394(4)
C4 C 0.3201(3) 0.5492(18) 0.1734(4)
C5 C 0.3327(3) 0.7183(18) 0.1114(4)
H2 H 0.3025 0.7888 0.0652
C6 C 0.2685(3) 0.4374(19) 0.1917(4)
C7 C 0.2062(3) 0.4595(18) 0.1524(4)
C8 C 0.1817(4) 0.6162(19) 0.0759(4)
H3 H 0.2070 0.7040 0.0499
C9 C 0.1214(3) 0.6434(18) 0.0383(5)
H4 H 0.1059 0.7539 -0.0114
C10 C 0.0840(3) 0.498(2) 0.0777(5)
C11 C 0.1059(3) 0.3458(18) 0.1509(5)
H5 H 0.0798 0.2583 0.1756
C12 C 0.1674(3) 0.3160(16) 0.1908(4)
C13 C 0.1920(3) 0.1535(18) 0.2692(4)
C14 C 0.1557(4) 0.0152(19) 0.3112(4)
H6 H 0.1148 0.0282 0.2880
C15 C 0.1799(4) -0.1389(19) 0.3860(5)
H7 H 0.1550 -0.2295 0.4124
C16 C 0.2402(4) -0.160(2) 0.4221(5)
H8 H 0.2560 -0.2647 0.4726
C17 C 0.2766(3) -0.029(2) 0.3839(4)
H9 H 0.3174 -0.0450 0.4084
C18 C 0.2539(3) 0.1298(18) 0.3087(4)
C19 C 0.2882(3) 0.2761(17) 0.2659(5)
C20 C 0.5422(4) 0.671(2) 0.2550(5)
H10 H 0.5371 0.7584 0.3040
H11 H 0.5778 0.7593 0.2487
H12 H 0.5448 0.4319 0.2584
C21 C -0.0152(4) 0.375(2) 0.0672(6)
H13 H -0.0032 0.1475 0.0799
H14 H -0.0543 0.3808 0.0281
H15 H -0.0151 0.4884 0.1163
C22 C 0.3916(3) 0.7804(19) 0.1198(5)
H16 H 0.4005 0.8961 0.0786
O1 O 0.4932(2) 0.7636(14) 0.1866(4)
O2 O 0.3503(2) 0.2777(12) 0.2977(3)
O3 O 0.0250(3) 0.5371(16) 0.0337(3)
C1 C 0.4378(3) 0.3245(18) 0.6879(4)
C2 C 0.4271(3) 0.492(2) 0.7494(4)
H1 H 0.4575 0.5608 0.7956
C3 C 0.3680(3) 0.555(2) 0.7394(4)
C4 C 0.3201(3) 0.4508(18) 0.6734(4)
C5 C 0.3327(3) 0.2817(18) 0.6114(4)
H2 H 0.3025 0.2112 0.5652
C6 C 0.2685(3) 0.5626(19) 0.6917(4)
C7 C 0.2062(3) 0.5405(18) 0.6524(4)
C8 C 0.1817(4) 0.3838(19) 0.5759(4)
H3 H 0.2070 0.2960 0.5499
C9 C 0.1214(3) 0.3566(18) 0.5383(5)
H4 H 0.1059 0.2461 0.4886
C10 C 0.0840(3) 0.502(2) 0.5777(5)
C11 C 0.1059(3) 0.6542(18) 0.6509(5)
H5 H 0.0798 0.7417 0.6756
C12 C 0.1674(3) 0.6840(16) 0.6908(4)
C13 C 0.1920(3) 0.8465(18) 0.7692(4)
C14 C 0.1557(4) 0.9848(19) 0.8112(4)
H6 H 0.1148 0.9718 0.7880
C15 C 0.1799(4) 1.1389(19) 0.8860(5)
H7 H 0.1550 1.2295 0.9124
C16 C 0.2402(4) 1.160(2) 0.9221(5)
H8 H 0.2560 1.2647 0.9726
C17 C 0.2766(3) 1.029(2) 0.8839(4)
H9 H 0.3174 1.0450 0.9084
C18 C 0.2539(3) 0.8702(18) 0.8087(4)
C19 C 0.2882(3) 0.7239(17) 0.7659(5)
C20 C 0.5422(4) 0.329(2) 0.7550(5)
H10 H 0.5371 0.2416 0.8040
H11 H 0.5778 0.2407 0.7487
H12 H 0.5448 0.5681 0.7584
C21 C -0.0152(4) 0.625(2) 0.5672(6)
H13 H -0.0032 0.8525 0.5799
H14 H -0.0543 0.6192 0.5281
H15 H -0.0151 0.5116 0.6163
C22 C 0.3916(3) 0.2196(19) 0.6198(5)
H16 H 0.4005 0.1039 0.5786
O1 O 0.4932(2) 0.2364(14) 0.6866(4)
O2 O 0.3503(2) 0.7223(12) 0.7977(3)
O3 O 0.0250(3) 0.4629(16) 0.5337(3)
C23 C 0.9141(3) 0.4161(18) 0.7442(4)
C24 C 0.8763(3) 0.2949(19) 0.6713(5)
H17 H 0.8910 0.1724 0.6364
C25 C 0.8175(3) 0.3559(17) 0.6511(4)
H18 H 0.7925 0.2808 0.6008
C26 C 0.7930(3) 0.5291(16) 0.7033(4)
C27 C 0.7315(3) 0.5985(16) 0.6835(4)
C28 C 0.6790(3) 0.5320(16) 0.6146(4)
C29 C 0.6650(3) 0.3825(18) 0.5385(4)
H19 H 0.6943 0.2783 0.5226
C30 C 0.6073(3) 0.3881(19) 0.4862(5)
H20 H 0.5983 0.2883 0.4350
C31 C 0.5626(3) 0.5399(19) 0.5087(4)
C32 C 0.5741(3) 0.6867(18) 0.5838(5)
H21 H 0.5444 0.7835 0.6004
C33 C 0.6328(3) 0.6821(17) 0.6338(4)
C34 C 0.7116(3) 0.7716(17) 0.7382(4)
C35 C 0.7483(3) 0.8824(16) 0.8165(4)
C36 C 0.7250(4) 1.0517(17) 0.8710(4)
H22 H 0.6846 1.0935 0.8569
C37 C 0.7629(4) 1.1525(18) 0.9448(4)
H23 H 0.7480 1.2596 0.9817
C38 C 0.8229(3) 1.0992(19) 0.9657(4)
H24 H 0.8480 1.1717 1.0162
C39 C 0.8460(3) 0.9395(17) 0.9125(4)
H25 H 0.8867 0.9081 0.9273
C40 C 0.8096(3) 0.8225(15) 0.8363(4)
C41 C 0.8321(3) 0.6424(17) 0.7792(4)
C42 C 0.8933(3) 0.5798(17) 0.7979(4)
H26 H 0.9195 0.6520 0.8475
C43 C 1.0147(4) 0.473(3) 0.8297(5)
H27 H 1.0100 0.7112 0.8300
H28 H 1.0539 0.4202 0.8298
H29 H 1.0085 0.3797 0.8775
C44 C 0.4594(3) 0.689(3) 0.4689(5)
H30 H 0.4557 0.5996 0.5186
H31 H 0.4232 0.6527 0.4249
H32 H 0.4674 0.9237 0.4753
O4 O 0.9725(2) 0.3378(14) 0.7584(3)
O5 O 0.6516(2) 0.8252(12) 0.7111(3)
O6 O 0.5072(2) 0.5241(15) 0.4507(3)
C23 C 0.9141(3) 0.5839(18) 0.2442(4)
C24 C 0.8763(3) 0.7051(19) 0.1713(5)
H17 H 0.8910 0.8276 0.1364
C25 C 0.8175(3) 0.6441(17) 0.1511(4)
H18 H 0.7925 0.7192 0.1008
C26 C 0.7930(3) 0.4709(16) 0.2033(4)
C27 C 0.7315(3) 0.4015(16) 0.1835(4)
C28 C 0.6790(3) 0.4680(16) 0.1146(4)
C29 C 0.6650(3) 0.6175(18) 0.0385(4)
H19 H 0.6943 0.7217 0.0226
C30 C 0.6073(3) 0.6119(19) -0.0138(5)
H20 H 0.5983 0.7117 -0.0650
C31 C 0.5626(3) 0.4601(19) 0.0087(4)
C32 C 0.5741(3) 0.3133(18) 0.0838(5)
H21 H 0.5444 0.2165 0.1004
C33 C 0.6328(3) 0.3179(17) 0.1338(4)
C34 C 0.7116(3) 0.2284(17) 0.2382(4)
C35 C 0.7483(3) 0.1176(16) 0.3165(4)
C36 C 0.7250(4) -0.0517(17) 0.3710(4)
H22 H 0.6846 -0.0935 0.3569
C37 C 0.7629(4) -0.1525(18) 0.4448(4)
H23 H 0.7480 -0.2596 0.4817
C38 C 0.8229(3) -0.0992(19) 0.4657(4)
H24 H 0.8480 -0.1717 0.5162
C39 C 0.8460(3) 0.0605(17) 0.4125(4)
H25 H 0.8867 0.0919 0.4273
C40 C 0.8096(3) 0.1775(15) 0.3363(4)
C41 C 0.8321(3) 0.3576(17) 0.2792(4)
C42 C 0.8933(3) 0.4202(17) 0.2979(4)
H26 H 0.9195 0.3480 0.3475
C43 C 1.0147(4) 0.527(3) 0.3297(5)
H27 H 1.0100 0.2888 0.3300
H28 H 1.0539 0.5798 0.3298
H29 H 1.0085 0.6203 0.3775
C44 C 0.4594(3) 0.311(3) -0.0311(5)
H30 H 0.4557 0.4004 0.0186
H31 H 0.4232 0.3473 -0.0751
H32 H 0.4674 0.0763 -0.0247
O4 O 0.9725(2) 0.6622(14) 0.2584(3)
O5 O 0.6516(2) 0.1748(12) 0.2111(3)
O6 O 0.5072(2) 0.4759(15) -0.0493(3)

#END
