./LAGFII_from_POSCAR.cif_generated_by_CrystalShift
_symmetry_cell_setting triclinic
_symmetry_space_group_name_H-M 'P 1'
loop_
_symmetry_equiv_pos_site_id
_symmetry_equiv_pos_as_xyz
1 x,y,z
_cell_length_a 15.307000
_cell_length_b 15.307000
_cell_length_c 18.937000
_cell_angle_alpha 90.000000
_cell_angle_beta 90.000000
_cell_angle_gamma 90.000000
_cell_volume 4437.019563
loop_
_atom_site_label
_atom_site_type_symbol
_atom_site_fract_x
_atom_site_fract_y
_atom_site_fract_z
H1 H 0.540000 0.663000 0.211000
H2 H 0.753000 0.388000 0.486000
H3 H 0.795000 0.488000 0.473000
H4 H 0.783000 0.462000 0.546000
H5 H 0.857000 0.321000 0.403000
H6 H 0.040000 0.163000 0.711000
H7 H 0.163000 0.460000 0.961000
H8 H 0.663000 0.960000 0.461000
H9 H 0.875000 0.411000 0.386000
H10 H 0.963000 0.356000 0.406000
H11 H 0.935000 0.456000 0.502000
H12 H 0.860000 0.279000 0.531000
H13 H 0.787000 0.099000 0.764000
H14 H 0.460000 0.337000 0.211000
H15 H 0.960000 0.837000 0.711000
H16 H 0.751000 0.162000 0.717000
H17 H 0.784000 0.222000 0.772000
H18 H 0.841000 0.070000 0.623000
H19 H 0.837000 0.540000 0.961000
H20 H 0.957000 0.061000 0.633000
H21 H 0.337000 0.040000 0.461000
H22 H 0.616000 0.883000 -0.160000
H23 H 0.888000 0.025000 0.693000
H24 H 0.088000 0.896000 0.373000
H25 H 0.312000 0.958000 0.242000
H26 H 0.408000 1.068000 0.113000
H27 H 0.382000 0.964000 0.530000
H28 H 0.283000 0.965000 0.533000
H29 H 0.475000 0.888000 0.443000
H30 H 0.439000 0.957000 0.383000
H31 H 0.430000 0.841000 0.373000
H32 H 0.278000 0.784000 0.522000
H33 H 0.338000 0.751000 0.467000
H34 H 0.401000 0.787000 0.514000
H35 H 0.221000 0.860000 0.281000
H36 H 0.044000 0.935000 0.252000
H37 H 0.144000 0.963000 0.156000
H38 H 0.089000 0.875000 0.136000
H39 H 0.179000 0.857000 0.153000
H40 H 0.038000 0.783000 0.296000
H41 H 0.012000 0.795000 0.223000
H42 H 0.112000 0.753000 0.236000
H43 H 0.378000 1.098000 0.345000
H44 H 0.275000 1.141000 0.348000
H45 H 0.364000 1.198000 0.307000
H46 H 0.433000 1.146000 0.198000
H47 H 0.454000 1.040000 0.242000
H48 H 0.125000 1.192000 0.127000
H49 H 0.213000 1.189000 0.063000
H50 H 0.117000 1.116000 0.090000
H51 H 0.965000 0.217000 0.783000
H52 H 0.964000 0.118000 0.780000
H53 H 1.068000 0.092000 0.363000
H54 H 0.958000 0.188000 0.492000
H55 H 0.896000 0.412000 0.623000
H56 H 0.689000 0.787000 -0.187000
H57 H 0.692000 0.875000 -0.123000
H58 H 0.540000 0.546000 -0.008000
H59 H 1.141000 0.225000 0.598000
H60 H 1.198000 0.136000 0.557000
H61 H 1.146000 0.067000 0.448000
H62 H 1.040000 0.046000 0.492000
H63 H 1.192000 0.375000 0.377000
H64 H 0.646000 0.567000 -0.052000
H65 H 0.698000 0.636000 0.057000
H66 H 1.189000 0.287000 0.313000
H67 H 1.116000 0.383000 0.340000
H68 H 0.383000 0.384000 0.590000
H69 H 0.641000 0.725000 0.098000
H70 H 0.287000 0.311000 0.563000
H71 H 0.598000 0.622000 0.095000
H72 H 0.253000 0.888000 -0.014000
H73 H 0.375000 0.308000 0.627000
H74 H 0.588000 0.396000 0.873000
H75 H 0.812000 0.458000 0.742000
H76 H 0.908000 0.568000 0.613000
H77 H 0.882000 0.464000 1.030000
H78 H 0.783000 0.465000 1.033000
H79 H 0.975000 0.388000 0.943000
H80 H 0.939000 0.457000 0.883000
H81 H 0.930000 0.341000 0.873000
H82 H 0.778000 0.284000 1.022000
H83 H 0.838000 0.251000 0.967000
H84 H 0.901000 0.287000 1.014000
H85 H 0.721000 0.360000 0.781000
H86 H 0.544000 0.435000 0.752000
H87 H 0.644000 0.463000 0.656000
H88 H 0.589000 0.375000 0.636000
H89 H 0.679000 0.357000 0.653000
H90 H 0.538000 0.283000 0.796000
H91 H 0.512000 0.295000 0.723000
H92 H 0.612000 0.253000 0.736000
H93 H 0.878000 0.598000 0.845000
H94 H 0.775000 0.641000 0.848000
H95 H 0.864000 0.698000 0.807000
H96 H 0.933000 0.646000 0.698000
H97 H 0.954000 0.540000 0.742000
H98 H 0.625000 0.692000 0.627000
H99 H 0.713000 0.689000 0.563000
H100 H 0.617000 0.616000 0.590000
H101 H 0.046000 0.460000 0.742000
H102 H 0.067000 0.354000 0.698000
H103 H 0.136000 0.302000 0.807000
H104 H 0.225000 0.359000 0.848000
H105 H 0.122000 0.402000 0.845000
H106 H 0.295000 0.988000 -0.027000
H107 H 0.283000 0.962000 0.046000
H108 H 0.357000 0.821000 -0.097000
H109 H 0.388000 0.747000 0.736000
H110 H 0.488000 0.705000 0.723000
H111 H 0.462000 0.717000 0.796000
H112 H 0.321000 0.643000 0.653000
H113 H 0.411000 0.625000 0.636000
H114 H 0.375000 0.911000 -0.114000
H115 H 0.463000 0.856000 -0.094000
H116 H 0.356000 0.537000 0.656000
H117 H 0.456000 0.565000 0.752000
H118 H 0.279000 0.640000 0.781000
H119 H 0.435000 0.956000 0.002000
H120 H 0.099000 0.713000 1.014000
H121 H 0.360000 0.779000 0.031000
H122 H 0.287000 0.599000 0.264000
H123 H 0.162000 0.749000 0.967000
H124 H 0.104000 0.588000 0.623000
H125 H 0.042000 0.812000 0.492000
H126 H -0.068000 0.908000 0.363000
H127 H 0.036000 0.882000 0.780000
H128 H 0.035000 0.783000 0.783000
H129 H 0.112000 0.975000 0.693000
H130 H 0.043000 0.939000 0.633000
H131 H 0.159000 0.930000 0.623000
H132 H 0.216000 0.778000 0.772000
H133 H 0.249000 0.838000 0.717000
H134 H 0.213000 0.901000 0.764000
H135 H 0.140000 0.721000 0.531000
H136 H 0.065000 0.544000 0.502000
H137 H 0.037000 0.644000 0.406000
H138 H 0.125000 0.589000 0.386000
H139 H 0.143000 0.679000 0.403000
H140 H 0.217000 0.538000 0.546000
H141 H 0.205000 0.512000 0.473000
H142 H 0.247000 0.612000 0.486000
H143 H -0.098000 0.878000 0.595000
H144 H -0.141000 0.775000 0.598000
H145 H -0.198000 0.864000 0.557000
H146 H -0.146000 0.933000 0.448000
H147 H -0.040000 0.954000 0.492000
H148 H -0.192000 0.625000 0.377000
H149 H -0.189000 0.713000 0.313000
H150 H -0.116000 0.617000 0.340000
H151 H 0.222000 0.716000 1.022000
H152 H 0.070000 0.659000 0.873000
H153 H 0.061000 0.543000 0.883000
H154 H 0.025000 0.612000 0.943000
H155 H 0.217000 0.535000 1.033000
H156 H 0.251000 0.662000 0.217000
H157 H 0.284000 0.722000 0.272000
H158 H 0.341000 0.570000 0.123000
H159 H 0.118000 0.536000 1.030000
H160 H 0.092000 0.432000 0.613000
H161 H 0.188000 0.542000 0.742000
H162 H 0.412000 0.604000 0.873000
H163 H 0.883000 -0.116000 0.090000
H164 H 0.457000 0.561000 0.133000
H165 H 0.388000 0.525000 0.193000
H166 H 0.787000 -0.189000 0.063000
H167 H 0.875000 -0.192000 0.127000
H168 H 0.546000 -0.040000 0.242000
H169 H 0.465000 0.717000 0.283000
H170 H 0.567000 -0.146000 0.198000
H171 H 0.464000 0.618000 0.280000
H172 H 0.568000 0.592000 -0.137000
H173 H 0.636000 -0.198000 0.307000
H174 H 0.604000 0.088000 0.123000
H175 H 0.542000 0.312000 -0.008000
H176 H 0.432000 0.408000 -0.137000
H177 H 0.536000 0.382000 0.280000
H178 H 0.535000 0.283000 0.283000
H179 H 0.612000 0.475000 0.193000
H180 H 0.543000 0.439000 0.133000
H181 H 0.659000 0.430000 0.123000
H182 H 0.716000 0.278000 0.272000
H183 H 0.749000 0.338000 0.217000
H184 H 0.713000 0.401000 0.264000
H185 H 0.640000 0.221000 0.031000
H186 H 0.565000 0.044000 0.002000
H187 H 0.537000 0.144000 -0.094000
H188 H 0.625000 0.089000 -0.114000
H189 H 0.643000 0.179000 -0.097000
H190 H 0.717000 0.038000 0.046000
H191 H 0.705000 0.012000 -0.027000
H192 H 0.747000 0.112000 -0.014000
H193 H 0.402000 0.378000 0.095000
H194 H 0.359000 0.275000 0.098000
H195 H 0.302000 0.364000 0.057000
H196 H 0.354000 0.433000 -0.052000
H197 H 0.460000 0.454000 -0.008000
H198 H 0.308000 0.125000 -0.123000
H199 H 0.311000 0.213000 -0.187000
H200 H 0.384000 0.117000 -0.160000
H201 H 0.725000 -0.141000 0.348000
H202 H 0.622000 -0.098000 0.345000
H203 H 0.888000 0.247000 0.236000
H204 H 0.988000 0.205000 0.223000
H205 H 0.962000 0.217000 0.296000
H206 H 0.458000 0.688000 -0.008000
H207 H 0.396000 0.912000 0.123000
H208 H 0.821000 0.143000 0.153000
H209 H 0.911000 0.125000 0.136000
H210 H 0.856000 0.037000 0.156000
H211 H 0.956000 0.065000 0.252000
H212 H 0.779000 0.140000 0.281000
H213 H 0.599000 0.213000 0.514000
H214 H 0.662000 0.249000 0.467000
H215 H 0.722000 0.216000 0.522000
H216 H 0.570000 0.159000 0.373000
H217 H 0.561000 0.043000 0.383000
H218 H 0.525000 0.112000 0.443000
H219 H 0.717000 0.035000 0.533000
H220 H 0.618000 0.036000 0.530000
H221 H 0.592000 -0.068000 0.113000
H222 H 0.688000 0.042000 0.242000
H223 H 0.912000 0.104000 0.373000
H224 H 1.098000 0.122000 0.595000
C225 C 0.495200 0.798700 0.030200
C226 C 0.593400 0.680500 -0.005100
C227 C 0.739600 -0.151900 0.199100
C228 C 0.637000 0.662900 0.067000
C229 C 0.592600 -0.084100 0.207200
C230 C 0.662900 -0.137000 0.317000
C231 C 0.680500 -0.093400 0.244900
C232 C 0.584100 0.592600 -0.042800
C233 C 0.651900 0.739600 -0.050900
C234 C 0.798700 0.004800 0.280200
C235 C 0.872200 0.104700 0.161200
C236 C 0.938800 0.212100 0.247700
C237 C 0.904800 0.118200 0.237600
C238 C 0.829600 0.098600 0.288900
C239 C 0.658000 0.834900 -0.148500
C240 C 0.810300 0.117300 0.418600
C241 C 0.657100 0.115700 0.455900
C242 C 0.661000 0.199700 0.498000
C243 C 0.574100 0.110200 0.410100
C244 C 0.665800 0.034900 0.501000
C245 C 0.342000 0.165100 -0.148500
C246 C 0.348100 0.260400 -0.050900
C247 C 0.415900 0.407400 -0.042800
C248 C 0.363000 0.337100 0.067000
C249 C 0.406600 0.319500 -0.005100
C250 C 0.504800 0.201300 0.030200
C251 C 0.165800 0.534900 1.001000
C252 C 0.074100 0.610200 0.910100
C253 C 0.161000 0.699700 0.998000
C254 C 0.157100 0.615700 0.955900
C255 C 0.310300 0.617300 0.918600
C256 C 0.395300 0.872200 -0.088800
C257 C 0.287900 0.938800 -0.002300
C258 C 0.381800 0.904800 -0.012400
C259 C 0.329600 0.598600 0.788900
C260 C 0.404800 0.618200 0.737600
C261 C 0.438800 0.712100 0.747700
C262 C 0.372200 0.604700 0.661200
C263 C 0.298700 0.504800 0.780200
C264 C 0.401400 0.829600 0.038900
C265 C 0.382700 0.810300 0.168600
C266 C 0.180500 0.406600 0.744900
C267 C 0.162900 0.363000 0.817000
C268 C 0.092600 0.415900 0.707200
C269 C 0.384300 0.657100 0.205900
C270 C 0.239600 0.348100 0.699100
C271 C 0.300300 0.661000 0.248000
C272 C 0.389800 0.574100 0.160100
C273 C 0.334900 0.342000 0.601500
C274 C 0.604700 0.127800 -0.088800
C275 C 0.712100 0.061200 -0.002300
C276 C 0.618200 0.095200 -0.012400
C277 C 0.598600 0.170400 0.038900
C278 C 0.617300 0.189700 0.168600
C279 C 0.615700 0.342900 0.205900
C280 C 0.699700 0.339000 0.248000
C281 C 0.610200 0.425900 0.160100
C282 C 0.534900 0.334200 0.251000
C283 C -0.158000 0.665100 0.351500
C284 C -0.151900 0.760400 0.449100
C285 C -0.084100 0.907400 0.457200
C286 C -0.137000 0.837100 0.567000
C287 C -0.093400 0.819500 0.494900
C288 C 0.004800 0.701300 0.530200
C289 C 0.104700 0.627800 0.411200
C290 C 0.212100 0.561200 0.497700
C291 C 0.118200 0.595200 0.487600
C292 C 0.098600 0.670400 0.538900
C293 C 0.117300 0.689700 0.668600
C294 C 0.115700 0.842900 0.705900
C295 C 0.199700 0.839000 0.748000
C296 C 0.110200 0.925900 0.660100
C297 C 0.034900 0.834200 0.751000
C298 C 0.665100 0.658000 0.601500
C299 C 0.760400 0.651900 0.699100
C300 C 0.907400 0.584100 0.707200
C301 C 0.965100 0.165800 0.751000
C302 C 0.889800 0.074100 0.660100
C303 C 0.800300 0.161000 0.748000
C304 C 0.884300 0.157100 0.705900
C305 C 0.882700 0.310300 0.668600
C306 C 0.465100 0.665800 0.251000
C307 C 0.837100 0.637000 0.817000
C308 C 0.819500 0.593400 0.744900
C309 C 0.901400 0.329600 0.538900
C310 C 0.881800 0.404800 0.487600
C311 C 0.787900 0.438800 0.497700
C312 C 0.895300 0.372200 0.411200
C313 C 0.995200 0.298700 0.530200
C314 C 0.701300 0.495200 0.780200
C315 C 0.627800 0.395300 0.661200
C316 C 1.093400 0.180500 0.494900
C317 C 1.137000 0.162900 0.567000
C318 C 1.084100 0.092600 0.457200
C319 C 0.561200 0.287900 0.747700
C320 C 1.151900 0.239600 0.449100
C321 C 0.595200 0.381800 0.737600
C322 C 0.670400 0.401400 0.788900
C323 C 1.158000 0.334900 0.351500
C324 C 0.689700 0.382700 0.918600
C325 C 0.842900 0.384300 0.955900
C326 C 0.839000 0.300300 0.998000
C327 C 0.925900 0.389800 0.910100
C328 C 0.834200 0.465100 1.001000
C329 C 0.165100 1.158000 0.101500
C330 C 0.260400 1.151900 0.199100
C331 C 0.407400 1.084100 0.207200
C332 C 0.337100 1.137000 0.317000
C333 C 0.319500 1.093400 0.244900
C334 C 0.201300 0.995200 0.280200
C335 C 0.127800 0.895300 0.161200
C336 C 0.061200 0.787900 0.247700
C337 C 0.095200 0.881800 0.237600
C338 C 0.170400 0.901400 0.288900
C339 C 0.189700 0.882700 0.418600
C340 C 0.342900 0.884300 0.455900
C341 C 0.339000 0.800300 0.498000
C342 C 0.425900 0.889800 0.410100
C343 C 0.834900 -0.158000 0.101500
C344 C 0.334200 0.965100 0.501000
N345 N 0.281800 1.006600 0.254300
N346 N 0.639500 0.388500 0.861100
N347 N 1.006600 0.218200 0.504300
N348 N 0.781800 0.506600 0.754300
N349 N 0.888500 0.360500 0.611100
N350 N 0.111500 0.639500 0.611100
N351 N -0.006600 0.781800 0.504300
N352 N 0.611500 0.139500 0.111100
N353 N 0.493400 0.281800 0.004300
N354 N 0.139500 0.888500 0.361100
N355 N 0.218200 0.493400 0.754300
N356 N 0.860500 0.111500 0.361100
N357 N 0.718200 -0.006600 0.254300
N358 N 0.388500 0.860500 0.111100
N359 N 0.506600 0.718200 0.004300
N360 N 0.360500 0.611500 0.861100
O361 O 0.339400 0.625800 0.978350
O362 O 0.225000 0.613800 0.901700
O363 O 0.739800 -0.229800 0.204800
O364 O 0.557900 0.845800 0.044300
O365 O 0.345800 0.442100 0.794300
O366 O 0.783100 -0.106500 0.150800
O367 O 0.600500 -0.040400 0.142570
O368 O 0.374200 0.839400 0.228350
O369 O 0.540400 0.600500 -0.107430
O370 O 0.845800 -0.057900 0.294300
O371 O 0.606500 0.783100 -0.099200
O372 O 0.729800 0.739800 -0.045200
O373 O 0.386200 0.725000 0.151700
O374 O 0.839400 0.125800 0.478350
O375 O 0.100500 0.459600 0.642570
O376 O 0.270200 0.260200 -0.045200
O377 O 0.393500 0.216900 -0.099200
O378 O 0.459600 0.399500 -0.107430
O379 O 0.283100 0.393500 0.650800
O380 O 0.442100 0.154200 0.044300
O381 O 0.239800 0.270200 0.704800
O382 O 0.625800 0.160600 0.228350
O383 O 0.613800 0.275000 0.151700
O384 O -0.229800 0.760200 0.454800
O385 O -0.106500 0.716900 0.400800
O386 O -0.040400 0.899500 0.392570
O387 O 0.886200 0.225000 0.651700
O388 O -0.057900 0.654200 0.544300
O389 O 0.874200 0.339400 0.728350
O390 O 0.125800 0.660600 0.728350
O391 O 0.113800 0.775000 0.651700
O392 O 0.760200 0.729800 0.704800
O393 O 0.716900 0.606500 0.650800
O394 O 0.899500 0.540400 0.642570
O395 O 1.057900 0.345800 0.544300
O396 O 0.654200 0.557900 0.794300
O397 O 1.040400 0.100500 0.392570
O398 O 0.660600 0.374200 0.978350
O399 O 0.775000 0.386200 0.901700
O400 O 0.260200 1.229800 0.204800
O401 O 0.216900 1.106500 0.150800
O402 O 0.399500 1.040400 0.142570
O403 O 1.106500 0.283100 0.400800
O404 O 0.154200 1.057900 0.294300
O405 O 0.725000 0.113800 0.401700
O406 O 0.160600 0.874200 0.478350
O407 O 0.275000 0.886200 0.401700
O408 O 1.229800 0.239800 0.454800

#END
