
#######################################################################
#
#                 Cambridge Crystallographic Data Centre
#                                CCDC 
#
#######################################################################
#
# If this CIF has been generated from an entry in the Cambridge 
# Structural Database, then it will include bibliographic, chemical, 
# crystal, experimental, refinement or atomic coordinate data resulting 
# from the CCDC's data processing and validation procedures.
#
#######################################################################

data_ACICAR01
_symmetry_cell_setting           monoclinic
_symmetry_space_group_name_H-M   'P 21/c'
_symmetry_Int_Tables_number      14
_space_group_name_Hall           '-P 2ybc'
loop_
_symmetry_equiv_pos_site_id
_symmetry_equiv_pos_as_xyz
1 x,y,z
2 -x,1/2+y,1/2-z
3 -x,-y,-z
4 x,1/2-y,1/2+z
_cell_length_a                   16.622(6)
_cell_length_b                   6.171(2)
_cell_length_c                   7.159(2)
_cell_angle_alpha                90
_cell_angle_beta                 95.732(8)
_cell_angle_gamma                90
_cell_volume                     730.658
loop_
_atom_site_label
_atom_site_type_symbol
_atom_site_fract_x
_atom_site_fract_y
_atom_site_fract_z
N1 N 0.40327(10) 0.2126(3) 0.3182(2)
N2 N 0.16109(9) 0.0893(2) 0.4230(2)
C1 C 0.32643(12) 0.1772(3) 0.3548(3)
H1 H 0.3091 0.0310 0.3622
C2 C 0.27031(11) 0.3394(3) 0.3825(3)
C3 C 0.29604(12) 0.5530(3) 0.3732(3)
H2 H 0.2602 0.6690 0.3922
C4 C 0.37490(13) 0.5940(3) 0.3356(3)
H3 H 0.3938 0.7387 0.3282
C5 C 0.42572(13) 0.4208(3) 0.3092(3)
H4 H 0.4795 0.4514 0.2831
C6 C 0.18734(11) 0.2849(3) 0.4232(3)
H5 H 0.1520 0.3990 0.4507
C7 C 0.07963(11) 0.0508(3) 0.4617(2)
C8 C 0.06382(11) -0.1381(3) 0.5601(2)
H6 H 0.1070 -0.2333 0.6006
C9 C 0.01465(11) 0.1882(3) 0.4004(2)
H7 H 0.0243 0.3158 0.3318
N1B N -0.40327(10) -0.2126(3) 0.6818(2)
N2B N -0.16109(9) -0.0893(2) 0.5770(2)
C1B C -0.32643(12) -0.1772(3) 0.6452(3)
H1B H -0.3091 -0.0310 0.6378
C2B C -0.27031(11) -0.3394(3) 0.6175(3)
C3B C -0.29604(12) -0.5530(3) 0.6268(3)
H2B H -0.2602 -0.6690 0.6078
C4B C -0.37490(13) -0.5940(3) 0.6644(3)
H3B H -0.3938 -0.7387 0.6718
C5B C -0.42572(13) -0.4208(3) 0.6908(3)
H4B H -0.4795 -0.4514 0.7169
C6B C -0.18734(11) -0.2849(3) 0.5768(3)
H5B H -0.1520 -0.3990 0.5493
C7B C -0.07963(11) -0.0508(3) 0.5383(2)
C8B C -0.06382(11) 0.1381(3) 0.4399(2)
H6B H -0.1070 0.2333 0.3994
C9B C -0.01465(11) -0.1882(3) 0.5996(2)
H7B H -0.0243 -0.3158 0.6682
N1 N 0.40327(10) 1.2126(3) 0.3182(2)
N2 N 0.16109(9) 1.0893(2) 0.4230(2)
C1 C 0.32643(12) 1.1772(3) 0.3548(3)
H1 H 0.3091 1.0310 0.3622
C2 C 0.27031(11) 1.3394(3) 0.3825(3)
C3 C 0.29604(12) 1.5530(3) 0.3732(3)
H2 H 0.2602 1.6690 0.3922
C4 C 0.37490(13) 1.5940(3) 0.3356(3)
H3 H 0.3938 1.7387 0.3282
C5 C 0.42572(13) 1.4208(3) 0.3092(3)
H4 H 0.4795 1.4514 0.2831
C6 C 0.18734(11) 1.2849(3) 0.4232(3)
H5 H 0.1520 1.3990 0.4507
C7 C 0.07963(11) 1.0508(3) 0.4617(2)
C8 C 0.06382(11) 0.8619(3) 0.5601(2)
H6 H 0.1070 0.7667 0.6006
C9 C 0.01465(11) 1.1882(3) 0.4004(2)
H7 H 0.0243 1.3158 0.3318
N1B N -0.40327(10) 0.7874(3) 0.6818(2)
N2B N -0.16109(9) 0.9107(2) 0.5770(2)
C1B C -0.32643(12) 0.8228(3) 0.6452(3)
H1B H -0.3091 0.9690 0.6378
C2B C -0.27031(11) 0.6606(3) 0.6175(3)
C3B C -0.29604(12) 0.4470(3) 0.6268(3)
H2B H -0.2602 0.3310 0.6078
C4B C -0.37490(13) 0.4060(3) 0.6644(3)
H3B H -0.3938 0.2613 0.6718
C5B C -0.42572(13) 0.5792(3) 0.6908(3)
H4B H -0.4795 0.5486 0.7169
C6B C -0.18734(11) 0.7151(3) 0.5768(3)
H5B H -0.1520 0.6010 0.5493
C7B C -0.07963(11) 0.9492(3) 0.5383(2)
C8B C -0.06382(11) 1.1381(3) 0.4399(2)
H6B H -0.1070 1.2333 0.3994
C9B C -0.01465(11) 0.8118(3) 0.5996(2)
H7B H -0.0243 0.6842 0.6682
N1 N 1.40327(10) 0.2126(3) 0.3182(2)
N2 N 1.16109(9) 0.0893(2) 0.4230(2)
C1 C 1.32643(12) 0.1772(3) 0.3548(3)
H1 H 1.3091 0.0310 0.3622
C2 C 1.27031(11) 0.3394(3) 0.3825(3)
C3 C 1.29604(12) 0.5530(3) 0.3732(3)
H2 H 1.2602 0.6690 0.3922
C4 C 1.37490(13) 0.5940(3) 0.3356(3)
H3 H 1.3938 0.7387 0.3282
C5 C 1.42572(13) 0.4208(3) 0.3092(3)
H4 H 1.4795 0.4514 0.2831
C6 C 1.18734(11) 0.2849(3) 0.4232(3)
H5 H 1.1520 0.3990 0.4507
C7 C 1.07963(11) 0.0508(3) 0.4617(2)
C8 C 1.06382(11) -0.1381(3) 0.5601(2)
H6 H 1.1070 -0.2333 0.6006
C9 C 1.01465(11) 0.1882(3) 0.4004(2)
H7 H 1.0243 0.3158 0.3318
N1B N 0.59673(10) -0.2126(3) 0.6818(2)
N2B N 0.83891(9) -0.0893(2) 0.5770(2)
C1B C 0.67357(12) -0.1772(3) 0.6452(3)
H1B H 0.6909 -0.0310 0.6378
C2B C 0.72969(11) -0.3394(3) 0.6175(3)
C3B C 0.70396(12) -0.5530(3) 0.6268(3)
H2B H 0.7398 -0.6690 0.6078
C4B C 0.62510(13) -0.5940(3) 0.6644(3)
H3B H 0.6062 -0.7387 0.6718
C5B C 0.57428(13) -0.4208(3) 0.6908(3)
H4B H 0.5205 -0.4514 0.7169
C6B C 0.81266(11) -0.2849(3) 0.5768(3)
H5B H 0.8480 -0.3990 0.5493
C7B C 0.92037(11) -0.0508(3) 0.5383(2)
C8B C 0.93618(11) 0.1381(3) 0.4399(2)
H6B H 0.8930 0.2333 0.3994
C9B C 0.98535(11) -0.1882(3) 0.5996(2)
H7B H 0.9757 -0.3158 0.6682
N1 N 1.40327(10) 1.2126(3) 0.3182(2)
N2 N 1.16109(9) 1.0893(2) 0.4230(2)
C1 C 1.32643(12) 1.1772(3) 0.3548(3)
H1 H 1.3091 1.0310 0.3622
C2 C 1.27031(11) 1.3394(3) 0.3825(3)
C3 C 1.29604(12) 1.5530(3) 0.3732(3)
H2 H 1.2602 1.6690 0.3922
C4 C 1.37490(13) 1.5940(3) 0.3356(3)
H3 H 1.3938 1.7387 0.3282
C5 C 1.42572(13) 1.4208(3) 0.3092(3)
H4 H 1.4795 1.4514 0.2831
C6 C 1.18734(11) 1.2849(3) 0.4232(3)
H5 H 1.1520 1.3990 0.4507
C7 C 1.07963(11) 1.0508(3) 0.4617(2)
C8 C 1.06382(11) 0.8619(3) 0.5601(2)
H6 H 1.1070 0.7667 0.6006
C9 C 1.01465(11) 1.1882(3) 0.4004(2)
H7 H 1.0243 1.3158 0.3318
N1B N 0.59673(10) 0.7874(3) 0.6818(2)
N2B N 0.83891(9) 0.9107(2) 0.5770(2)
C1B C 0.67357(12) 0.8228(3) 0.6452(3)
H1B H 0.6909 0.9690 0.6378
C2B C 0.72969(11) 0.6606(3) 0.6175(3)
C3B C 0.70396(12) 0.4470(3) 0.6268(3)
H2B H 0.7398 0.3310 0.6078
C4B C 0.62510(13) 0.4060(3) 0.6644(3)
H3B H 0.6062 0.2613 0.6718
C5B C 0.57428(13) 0.5792(3) 0.6908(3)
H4B H 0.5205 0.5486 0.7169
C6B C 0.81266(11) 0.7151(3) 0.5768(3)
H5B H 0.8480 0.6010 0.5493
C7B C 0.92037(11) 0.9492(3) 0.5383(2)
C8B C 0.93618(11) 1.1381(3) 0.4399(2)
H6B H 0.8930 1.2333 0.3994
C9B C 0.98535(11) 0.8118(3) 0.5996(2)
H7B H 0.9757 0.6842 0.6682
N1 N -0.40327(10) 0.7126(3) 0.1818(2)
N2 N -0.16109(9) 0.5893(2) 0.0770(2)
C1 C -0.32643(12) 0.6772(3) 0.1452(3)
H1 H -0.3091 0.5310 0.1378
C2 C -0.27031(11) 0.8394(3) 0.1175(3)
C3 C -0.29604(12) 1.0530(3) 0.1268(3)
H2 H -0.2602 1.1690 0.1078
C4 C -0.37490(13) 1.0940(3) 0.1644(3)
H3 H -0.3938 1.2387 0.1718
C5 C -0.42572(13) 0.9208(3) 0.1908(3)
H4 H -0.4795 0.9514 0.2169
C6 C -0.18734(11) 0.7849(3) 0.0768(3)
H5 H -0.1520 0.8990 0.0493
C7 C -0.07963(11) 0.5508(3) 0.0383(2)
C8 C -0.06382(11) 0.3619(3) -0.0601(2)
H6 H -0.1070 0.2667 -0.1006
C9 C -0.01465(11) 0.6882(3) 0.0996(2)
H7 H -0.0243 0.8158 0.1682
N1B N 0.40327(10) 0.2874(3) -0.1818(2)
N2B N 0.16109(9) 0.4107(2) -0.0770(2)
C1B C 0.32643(12) 0.3228(3) -0.1452(3)
H1B H 0.3091 0.4690 -0.1378
C2B C 0.27031(11) 0.1606(3) -0.1175(3)
C3B C 0.29604(12) -0.0530(3) -0.1268(3)
H2B H 0.2602 -0.1690 -0.1078
C4B C 0.37490(13) -0.0940(3) -0.1644(3)
H3B H 0.3938 -0.2387 -0.1718
C5B C 0.42572(13) 0.0792(3) -0.1908(3)
H4B H 0.4795 0.0486 -0.2169
C6B C 0.18734(11) 0.2151(3) -0.0768(3)
H5B H 0.1520 0.1010 -0.0493
C7B C 0.07963(11) 0.4492(3) -0.0383(2)
C8B C 0.06382(11) 0.6381(3) 0.0601(2)
H6B H 0.1070 0.7333 0.1006
C9B C 0.01465(11) 0.3118(3) -0.0996(2)
H7B H 0.0243 0.1842 -0.1682
N1 N -0.40327(10) 0.7126(3) 1.1818(2)
N2 N -0.16109(9) 0.5893(2) 1.0770(2)
C1 C -0.32643(12) 0.6772(3) 1.1452(3)
H1 H -0.3091 0.5310 1.1378
C2 C -0.27031(11) 0.8394(3) 1.1175(3)
C3 C -0.29604(12) 1.0530(3) 1.1268(3)
H2 H -0.2602 1.1690 1.1078
C4 C -0.37490(13) 1.0940(3) 1.1644(3)
H3 H -0.3938 1.2387 1.1718
C5 C -0.42572(13) 0.9208(3) 1.1908(3)
H4 H -0.4795 0.9514 1.2169
C6 C -0.18734(11) 0.7849(3) 1.0768(3)
H5 H -0.1520 0.8990 1.0493
C7 C -0.07963(11) 0.5508(3) 1.0383(2)
C8 C -0.06382(11) 0.3619(3) 0.9399(2)
H6 H -0.1070 0.2667 0.8994
C9 C -0.01465(11) 0.6882(3) 1.0996(2)
H7 H -0.0243 0.8158 1.1682
N1B N 0.40327(10) 0.2874(3) 0.8182(2)
N2B N 0.16109(9) 0.4107(2) 0.9230(2)
C1B C 0.32643(12) 0.3228(3) 0.8548(3)
H1B H 0.3091 0.4690 0.8622
C2B C 0.27031(11) 0.1606(3) 0.8825(3)
C3B C 0.29604(12) -0.0530(3) 0.8732(3)
H2B H 0.2602 -0.1690 0.8922
C4B C 0.37490(13) -0.0940(3) 0.8356(3)
H3B H 0.3938 -0.2387 0.8282
C5B C 0.42572(13) 0.0792(3) 0.8092(3)
H4B H 0.4795 0.0486 0.7831
C6B C 0.18734(11) 0.2151(3) 0.9232(3)
H5B H 0.1520 0.1010 0.9507
C7B C 0.07963(11) 0.4492(3) 0.9617(2)
C8B C 0.06382(11) 0.6381(3) 1.0601(2)
H6B H 0.1070 0.7333 1.1006
C9B C 0.01465(11) 0.3118(3) 0.9004(2)
H7B H 0.0243 0.1842 0.8318
N1 N 0.59673(10) 0.7126(3) 0.1818(2)
N2 N 0.83891(9) 0.5893(2) 0.0770(2)
C1 C 0.67357(12) 0.6772(3) 0.1452(3)
H1 H 0.6909 0.5310 0.1378
C2 C 0.72969(11) 0.8394(3) 0.1175(3)
C3 C 0.70396(12) 1.0530(3) 0.1268(3)
H2 H 0.7398 1.1690 0.1078
C4 C 0.62510(13) 1.0940(3) 0.1644(3)
H3 H 0.6062 1.2387 0.1718
C5 C 0.57428(13) 0.9208(3) 0.1908(3)
H4 H 0.5205 0.9514 0.2169
C6 C 0.81266(11) 0.7849(3) 0.0768(3)
H5 H 0.8480 0.8990 0.0493
C7 C 0.92037(11) 0.5508(3) 0.0383(2)
C8 C 0.93618(11) 0.3619(3) -0.0601(2)
H6 H 0.8930 0.2667 -0.1006
C9 C 0.98535(11) 0.6882(3) 0.0996(2)
H7 H 0.9757 0.8158 0.1682
N1B N 1.40327(10) 0.2874(3) -0.1818(2)
N2B N 1.16109(9) 0.4107(2) -0.0770(2)
C1B C 1.32643(12) 0.3228(3) -0.1452(3)
H1B H 1.3091 0.4690 -0.1378
C2B C 1.27031(11) 0.1606(3) -0.1175(3)
C3B C 1.29604(12) -0.0530(3) -0.1268(3)
H2B H 1.2602 -0.1690 -0.1078
C4B C 1.37490(13) -0.0940(3) -0.1644(3)
H3B H 1.3938 -0.2387 -0.1718
C5B C 1.42572(13) 0.0792(3) -0.1908(3)
H4B H 1.4795 0.0486 -0.2169
C6B C 1.18734(11) 0.2151(3) -0.0768(3)
H5B H 1.1520 0.1010 -0.0493
C7B C 1.07963(11) 0.4492(3) -0.0383(2)
C8B C 1.06382(11) 0.6381(3) 0.0601(2)
H6B H 1.1070 0.7333 0.1006
C9B C 1.01465(11) 0.3118(3) -0.0996(2)
H7B H 1.0243 0.1842 -0.1682
N1 N 0.59673(10) 0.7126(3) 1.1818(2)
N2 N 0.83891(9) 0.5893(2) 1.0770(2)
C1 C 0.67357(12) 0.6772(3) 1.1452(3)
H1 H 0.6909 0.5310 1.1378
C2 C 0.72969(11) 0.8394(3) 1.1175(3)
C3 C 0.70396(12) 1.0530(3) 1.1268(3)
H2 H 0.7398 1.1690 1.1078
C4 C 0.62510(13) 1.0940(3) 1.1644(3)
H3 H 0.6062 1.2387 1.1718
C5 C 0.57428(13) 0.9208(3) 1.1908(3)
H4 H 0.5205 0.9514 1.2169
C6 C 0.81266(11) 0.7849(3) 1.0768(3)
H5 H 0.8480 0.8990 1.0493
C7 C 0.92037(11) 0.5508(3) 1.0383(2)
C8 C 0.93618(11) 0.3619(3) 0.9399(2)
H6 H 0.8930 0.2667 0.8994
C9 C 0.98535(11) 0.6882(3) 1.0996(2)
H7 H 0.9757 0.8158 1.1682
N1B N 1.40327(10) 0.2874(3) 0.8182(2)
N2B N 1.16109(9) 0.4107(2) 0.9230(2)
C1B C 1.32643(12) 0.3228(3) 0.8548(3)
H1B H 1.3091 0.4690 0.8622
C2B C 1.27031(11) 0.1606(3) 0.8825(3)
C3B C 1.29604(12) -0.0530(3) 0.8732(3)
H2B H 1.2602 -0.1690 0.8922
C4B C 1.37490(13) -0.0940(3) 0.8356(3)
H3B H 1.3938 -0.2387 0.8282
C5B C 1.42572(13) 0.0792(3) 0.8092(3)
H4B H 1.4795 0.0486 0.7831
C6B C 1.18734(11) 0.2151(3) 0.9232(3)
H5B H 1.1520 0.1010 0.9507
C7B C 1.07963(11) 0.4492(3) 0.9617(2)
C8B C 1.06382(11) 0.6381(3) 1.0601(2)
H6B H 1.1070 0.7333 1.1006
C9B C 1.01465(11) 0.3118(3) 0.9004(2)
H7B H 1.0243 0.1842 0.8318

#END
