./ACICAR01_from_POSCAR.cif_generated_by_CrystalShift
_symmetry_cell_setting triclinic
_symmetry_space_group_name_H-M 'P 1'
loop_
_symmetry_equiv_pos_site_id
_symmetry_equiv_pos_as_xyz
1 x,y,z
_cell_length_a 16.622000
_cell_length_b 6.171000
_cell_length_c 7.159000
_cell_angle_alpha 90.000000
_cell_angle_beta 95.732000
_cell_angle_gamma 90.000000
_cell_volume 730.658167
loop_
_atom_site_label
_atom_site_type_symbol
_atom_site_fract_x
_atom_site_fract_y
_atom_site_fract_z
H1 H 1.024300 0.184200 0.831800
H2 H 1.107000 0.733300 1.100600
H3 H 1.152000 0.101000 0.950700
H4 H 0.309100 0.031000 0.362200
H5 H 1.479500 0.048600 0.783100
H6 H 1.393800 -0.238700 0.828200
H7 H 0.260200 0.669000 0.392200
H8 H 1.260200 -0.169000 0.892200
H9 H 0.393800 0.738700 0.328200
H10 H 1.309100 0.469000 0.862200
H11 H 0.479500 0.451400 0.283100
H12 H 0.975700 0.815800 1.168200
H13 H 0.152000 0.399000 0.450700
H14 H 0.893000 0.266700 0.899400
H15 H 0.848000 0.899000 1.049300
H16 H 0.107000 -0.233300 0.600600
H17 H 0.520500 0.951400 1.216900
H18 H 0.024300 0.315800 0.331800
H19 H 0.606200 1.238700 1.171800
H20 H 0.739800 1.169000 1.107800
H21 H 0.690900 0.531000 1.137800
H22 H -0.309100 -0.031000 0.637800
H23 H 1.024300 0.184200 -0.168200
H24 H 1.107000 0.733300 0.100600
H25 H -0.260200 -0.669000 0.607800
H26 H 1.152000 0.101000 -0.049300
H27 H -0.393800 -0.738700 0.671800
H28 H 1.479500 0.048600 -0.216900
H29 H -0.479500 -0.451400 0.716900
H30 H 1.393800 -0.238700 -0.171800
H31 H -0.152000 -0.399000 0.549300
H32 H 1.260200 -0.169000 -0.107800
H33 H 1.309100 0.469000 -0.137800
H34 H -0.107000 0.233300 0.399400
H35 H 0.975700 0.815800 0.168200
H36 H -0.024300 -0.315800 0.668200
H37 H 0.893000 0.266700 -0.100600
H38 H 0.848000 0.899000 0.049300
H39 H 0.520500 0.951400 0.216900
H40 H 0.309100 1.031000 0.362200
H41 H 0.606200 1.238700 0.171800
H42 H 0.739800 1.169000 0.107800
H43 H 0.260200 1.669000 0.392200
H44 H 0.690900 0.531000 0.137800
H45 H 0.393800 1.738700 0.328200
H46 H 0.024300 0.184200 0.831800
H47 H 0.479500 1.451400 0.283100
H48 H 0.107000 0.733300 1.100600
H49 H 0.152000 1.399000 0.450700
H50 H 0.152000 0.101000 0.950700
H51 H 0.479500 0.048600 0.783100
H52 H 0.107000 0.766700 0.600600
H53 H 0.393800 -0.238700 0.828200
H54 H 0.024300 1.315800 0.331800
H55 H 0.260200 -0.169000 0.892200
H56 H 0.309100 0.469000 0.862200
H57 H -0.024300 0.815800 1.168200
H58 H -0.309100 0.969000 0.637800
H59 H -0.107000 0.266700 0.899400
H60 H -0.152000 0.899000 1.049300
H61 H -0.260200 0.331000 0.607800
H62 H -0.479500 0.951400 1.216900
H63 H -0.393800 0.261300 0.671800
H64 H -0.393800 1.238700 1.171800
H65 H -0.479500 0.548600 0.716900
H66 H -0.260200 1.169000 1.107800
H67 H -0.152000 0.601000 0.549300
H68 H -0.309100 0.531000 1.137800
H69 H 0.024300 0.184200 -0.168200
H70 H -0.107000 1.233300 0.399400
H71 H 0.107000 0.733300 0.100600
H72 H -0.024300 0.684200 0.668200
H73 H 0.152000 0.101000 -0.049300
H74 H 0.479500 0.048600 -0.216900
H75 H 0.393800 -0.238700 -0.171800
H76 H 1.309100 0.031000 0.362200
H77 H 0.260200 -0.169000 -0.107800
H78 H 0.309100 0.469000 -0.137800
H79 H 1.260200 0.669000 0.392200
H80 H -0.024300 0.815800 0.168200
H81 H 1.393800 0.738700 0.328200
H82 H -0.107000 0.266700 -0.100600
H83 H 1.479500 0.451400 0.283100
H84 H -0.152000 0.899000 0.049300
H85 H 1.152000 0.399000 0.450700
H86 H -0.479500 0.951400 0.216900
H87 H -0.393800 1.238700 0.171800
H88 H 1.107000 -0.233300 0.600600
H89 H -0.260200 1.169000 0.107800
H90 H 1.024300 0.315800 0.331800
H91 H -0.309100 0.531000 0.137800
H92 H 0.975700 0.684200 0.668200
H93 H 0.893000 1.233300 0.399400
H94 H 0.690900 -0.031000 0.637800
H95 H 0.848000 0.601000 0.549300
H96 H 0.520500 0.548600 0.716900
H97 H 0.739800 -0.669000 0.607800
H98 H 0.606200 0.261300 0.671800
H99 H 0.606200 -0.738700 0.671800
H100 H 0.739800 0.331000 0.607800
H101 H 0.520500 -0.451400 0.716900
H102 H 0.690900 0.969000 0.637800
H103 H 0.848000 -0.399000 0.549300
H104 H 1.024300 1.315800 0.331800
H105 H 1.107000 0.766700 0.600600
H106 H 0.893000 0.233300 0.399400
H107 H 1.152000 1.399000 0.450700
H108 H 0.975700 -0.315800 0.668200
H109 H 1.479500 1.451400 0.283100
H110 H 1.393800 1.738700 0.328200
H111 H 1.260200 1.669000 0.392200
H112 H 1.309100 1.031000 0.362200
C113 C 1.270310 1.339400 0.382500
C114 C 1.296040 1.553000 0.373200
C115 C 1.326430 1.177200 0.354800
C116 C 1.374900 1.594000 0.335600
C117 C 1.063820 0.638100 1.060100
C118 C 1.425720 1.420800 0.309200
C119 C 1.079630 0.449200 0.961700
C120 C 1.187340 1.284900 0.423200
C121 C 0.985350 -0.188200 0.599600
C122 C 1.079630 1.050800 0.461700
C123 C 1.063820 0.861900 0.560100
C124 C 0.936180 0.138100 0.439900
C125 C 1.014650 1.188200 0.400400
C126 C 0.920370 -0.050800 0.538300
C127 C 0.326430 0.177200 0.354800
C128 C 1.187340 0.215100 0.923200
C129 C 0.673570 0.822800 0.645200
C130 C 0.812660 -0.284900 0.576800
C131 C 0.729690 0.660600 0.617500
C132 C 0.703960 0.447000 0.626800
C133 C 0.574280 -0.420800 0.690800
C134 C 0.625100 0.406000 0.664400
C135 C 0.625100 -0.594000 0.664400
C136 C 0.574280 0.579200 0.690800
C137 C 0.703960 -0.553000 0.626800
C138 C 0.812660 0.715100 0.576800
C139 C 0.729690 -0.339400 0.617500
C140 C 0.920370 0.949200 0.538300
C141 C 0.936180 1.138100 0.439900
C142 C 0.673570 -0.177200 0.645200
C143 C 0.985350 0.811800 0.599600
C144 C 0.270310 0.339400 0.382500
C145 C 1.425720 0.079200 0.809200
C146 C 0.296040 0.553000 0.373200
C147 C -0.326430 0.677200 0.145200
C148 C 1.374900 -0.094000 0.835600
C149 C -0.270310 0.839400 0.117500
C150 C -0.296040 1.053000 0.126800
C151 C 1.014650 0.188200 0.400400
C152 C -0.374900 1.094000 0.164400
C153 C 1.063820 -0.138100 0.560100
C154 C -0.425720 0.920800 0.190800
C155 C 1.079630 0.050800 0.461700
C156 C -0.187340 0.784900 0.076800
C157 C 1.187340 0.284900 0.423200
C158 C -0.079630 0.550800 0.038300
C159 C -0.063820 0.361900 -0.060100
C160 C 1.425720 0.420800 0.309200
C161 C -0.014650 0.688200 0.099600
C162 C 1.374900 0.594000 0.335600
C163 C 0.374900 0.594000 0.335600
C164 C 1.296040 -0.053000 0.873200
C165 C 0.326430 0.322800 -0.145200
C166 C 1.296040 0.553000 0.373200
C167 C 0.270310 0.160600 -0.117500
C168 C 0.296040 -0.053000 -0.126800
C169 C 1.270310 0.339400 0.382500
C170 C 0.374900 -0.094000 -0.164400
C171 C 1.326430 0.177200 0.354800
C172 C 0.425720 0.079200 -0.190800
C173 C 1.270310 0.160600 0.882500
C174 C 0.187340 0.215100 -0.076800
C175 C 0.425720 0.420800 0.309200
C176 C 0.079630 0.449200 -0.038300
C177 C 0.063820 0.638100 0.060100
C178 C -0.014650 0.811800 0.599600
C179 C 0.014650 0.311800 -0.099600
C180 C -0.063820 1.138100 0.439900
C181 C 1.326430 0.322800 0.854800
C182 C 0.187340 0.284900 0.423200
C183 C -0.326430 0.677200 1.145200
C184 C -0.079630 0.949200 0.538300
C185 C -0.270310 0.839400 1.117500
C186 C -0.296040 1.053000 1.126800
C187 C -0.187340 0.715100 0.576800
C188 C -0.374900 1.094000 1.164400
C189 C -0.425720 0.579200 0.690800
C190 C -0.425720 0.920800 1.190800
C191 C -0.374900 0.406000 0.664400
C192 C -0.187340 0.784900 1.076800
C193 C -0.296040 0.447000 0.626800
C194 C -0.079630 0.550800 1.038300
C195 C -0.063820 0.361900 0.939900
C196 C -0.270310 0.660600 0.617500
C197 C -0.014650 0.688200 1.099600
C198 C -0.326430 0.822800 0.645200
C199 C 0.985350 0.688200 1.099600
C200 C 1.014650 0.311800 0.900400
C201 C 0.326430 0.322800 0.854800
C202 C 0.079630 0.050800 0.461700
C203 C 0.270310 0.160600 0.882500
C204 C 0.296040 -0.053000 0.873200
C205 C 0.936180 0.361900 0.939900
C206 C 0.374900 -0.094000 0.835600
C207 C 0.014650 1.188200 0.400400
C208 C 0.425720 0.079200 0.809200
C209 C 0.063820 0.861900 0.560100
C210 C 0.187340 0.215100 0.923200
C211 C 0.079630 1.050800 0.461700
C212 C 0.079630 0.449200 0.961700
C213 C 0.063820 0.638100 1.060100
C214 C 0.187340 1.284900 0.423200
C215 C 0.014650 0.311800 0.900400
C216 C 0.425720 1.420800 0.309200
C217 C 0.920370 0.550800 1.038300
C218 C 0.063820 -0.138100 0.560100
C219 C 0.673570 0.677200 0.145200
C220 C 0.374900 1.594000 0.335600
C221 C 0.729690 0.839400 0.117500
C222 C 0.703960 1.053000 0.126800
C223 C 0.296040 1.553000 0.373200
C224 C 0.625100 1.094000 0.164400
C225 C 0.270310 1.339400 0.382500
C226 C 0.574280 0.920800 0.190800
C227 C 0.326430 1.177200 0.354800
C228 C 0.812660 0.784900 0.076800
C229 C 0.812660 0.784900 1.076800
C230 C 0.920370 0.550800 0.038300
C231 C 0.936180 0.361900 -0.060100
C232 C 0.014650 0.188200 0.400400
C233 C 0.985350 0.688200 0.099600
C234 C -0.014650 -0.188200 0.599600
C235 C 0.574280 0.920800 1.190800
C236 C 0.625100 1.094000 1.164400
C237 C 1.326430 0.322800 -0.145200
C238 C -0.063820 0.138100 0.439900
C239 C 1.270310 0.160600 -0.117500
C240 C 1.296040 -0.053000 -0.126800
C241 C -0.079630 -0.050800 0.538300
C242 C 1.374900 -0.094000 -0.164400
C243 C -0.187340 -0.284900 0.576800
C244 C 1.425720 0.079200 -0.190800
C245 C -0.425720 -0.420800 0.690800
C246 C 1.187340 0.215100 -0.076800
C247 C -0.374900 -0.594000 0.664400
C248 C 1.079630 0.449200 -0.038300
C249 C 1.063820 0.638100 0.060100
C250 C -0.296040 -0.553000 0.626800
C251 C 1.014650 0.311800 -0.099600
C252 C -0.270310 -0.339400 0.617500
C253 C 0.703960 1.053000 1.126800
C254 C 0.729690 0.839400 1.117500
C255 C 0.673570 0.677200 1.145200
C256 C -0.326430 -0.177200 0.645200
N257 N 0.838910 0.589300 1.077000
N258 N 0.596730 0.712600 1.181800
N259 N -0.161090 -0.089300 0.577000
N260 N 1.161090 0.410700 -0.077000
N261 N -0.403270 -0.212600 0.681800
N262 N 1.403270 0.287400 -0.181800
N263 N 0.403270 1.212600 0.318200
N264 N 0.161090 1.089300 0.423000
N265 N 0.838910 0.589300 0.077000
N266 N 0.596730 0.712600 0.181800
N267 N -0.403270 0.787400 0.681800
N268 N -0.161090 0.910700 0.577000
N269 N 0.403270 0.287400 0.818200
N270 N -0.161090 0.589300 1.077000
N271 N 1.403270 0.287400 0.818200
N272 N 1.161090 0.410700 0.923000
N273 N -0.403270 0.712600 1.181800
N274 N 1.403270 0.212600 0.318200
N275 N 1.161090 0.089300 0.423000
N276 N 0.161090 0.410700 -0.077000
N277 N 0.403270 0.287400 -0.181800
N278 N 0.596730 -0.212600 0.681800
N279 N -0.161090 0.589300 0.077000
N280 N -0.403270 0.712600 0.181800
N281 N 0.838910 -0.089300 0.577000
N282 N 0.838910 0.910700 0.577000
N283 N 0.596730 0.787400 0.681800
N284 N 1.403270 1.212600 0.318200
N285 N 1.161090 1.089300 0.423000
N286 N 0.161090 0.089300 0.423000
N287 N 0.161090 0.410700 0.923000
N288 N 0.403270 0.212600 0.318200

#END
