
#######################################################################
#
#                 Cambridge Crystallographic Data Centre
#                                CCDC 
#
#######################################################################
#
# If this CIF has been generated from an entry in the Cambridge 
# Structural Database, then it will include bibliographic, chemical, 
# crystal, experimental, refinement or atomic coordinate data resulting 
# from the CCDC's data processing and validation procedures.
#
#######################################################################

data_ACIDAR
_symmetry_cell_setting           monoclinic
_symmetry_space_group_name_H-M   'P 21/n'
_symmetry_Int_Tables_number      14
_space_group_name_Hall           '-P 2yn'
loop_
_symmetry_equiv_pos_site_id
_symmetry_equiv_pos_as_xyz
1 x,y,z
2 1/2+x,1/2-y,1/2+z
3 -x,-y,-z
4 1/2-x,1/2+y,1/2-z
_cell_length_a                   7.328(2)
_cell_length_b                   16.366(4)
_cell_length_c                   11.131(3)
_cell_angle_alpha                90
_cell_angle_beta                 99.33(2)
_cell_angle_gamma                90
_cell_volume                     1317.28
loop_
_atom_site_label
_atom_site_type_symbol
_atom_site_fract_x
_atom_site_fract_y
_atom_site_fract_z
O1 O 0.60667(17) 0.57864(7) 0.93712(9)
O2 O 0.23492(18) 0.27875(7) 0.44880(11)
O3 O 0.1408(2) 0.20724(7) 0.28875(13)
N1 N 0.21431(17) 0.43700(7) 0.44329(10)
N2 N 0.23925(16) 0.51405(7) 0.48507(10)
N3 N 0.15886(19) 0.27320(8) 0.34107(13)
C1 C 0.5250(2) 0.56377(9) 0.83466(13)
C2 C 0.5072(2) 0.48104(9) 0.78856(14)
C3 C 0.4199(2) 0.46339(9) 0.67641(14)
C4 C 0.33440(19) 0.52586(8) 0.59335(12)
C5 C 0.2814(2) 0.67590(9) 0.55850(14)
C6 C 0.2949(2) 0.75520(10) 0.59902(16)
C7 C 0.3810(2) 0.77243(9) 0.71679(16)
C8 C 0.4546(2) 0.71045(10) 0.79169(15)
C9 C 0.4430(2) 0.62964(9) 0.75147(13)
C10 C 0.35333(19) 0.61141(8) 0.63376(12)
C11 C 0.11540(19) 0.42454(8) 0.32735(12)
C12 C 0.0890(2) 0.34606(9) 0.27546(13)
C13 C -0.0090(2) 0.33540(11) 0.15852(15)
C14 C -0.0833(2) 0.40066(11) 0.09289(15)
C15 C -0.0601(2) 0.47837(11) 0.14233(15)
C16 C 0.0393(2) 0.49030(9) 0.25649(14)
H1 H 0.555(2) 0.4411(10) 0.8370(14)
H2 H 0.419(2) 0.4083(11) 0.6500(16)
H3 H 0.226(2) 0.6630(10) 0.4827(15)
H4 H 0.241(2) 0.7953(11) 0.5459(14)
H5 H 0.383(2) 0.8270(10) 0.7417(13)
H6 H 0.508(2) 0.7184(11) 0.8724(16)
H7 H -0.022(3) 0.2800(12) 0.1302(16)
H8 H -0.153(2) 0.3925(10) 0.0167(15)
H9 H -0.114(2) 0.5221(10) 0.0985(14)
H10 H 0.054(2) 0.5419(10) 0.2910(13)
H11 H 0.257(2) 0.3828(10) 0.4895(13)
O1 O 1.10667(17) 0.92136(7) 1.43712(9)
O2 O 0.73492(18) 1.22125(7) 0.94880(11)
O3 O 0.6408(2) 1.29276(7) 0.78875(13)
N1 N 0.71431(17) 1.06300(7) 0.94329(10)
N2 N 0.73925(16) 0.98595(7) 0.98507(10)
N3 N 0.65886(19) 1.22680(8) 0.84107(13)
C1 C 1.0250(2) 0.93623(9) 1.33466(13)
C2 C 1.0072(2) 1.01896(9) 1.28856(14)
C3 C 0.9199(2) 1.03661(9) 1.17641(14)
C4 C 0.83440(19) 0.97414(8) 1.09335(12)
C5 C 0.7814(2) 0.82410(9) 1.05850(14)
C6 C 0.7949(2) 0.74480(10) 1.09902(16)
C7 C 0.8810(2) 0.72757(9) 1.21679(16)
C8 C 0.9546(2) 0.78955(10) 1.29169(15)
C9 C 0.9430(2) 0.87036(9) 1.25147(13)
C10 C 0.85333(19) 0.88859(8) 1.13376(12)
C11 C 0.61540(19) 1.07546(8) 0.82735(12)
C12 C 0.5890(2) 1.15394(9) 0.77546(13)
C13 C 0.4910(2) 1.16460(11) 0.65852(15)
C14 C 0.4167(2) 1.09934(11) 0.59289(15)
C15 C 0.4399(2) 1.02163(11) 0.64233(15)
C16 C 0.5393(2) 1.00970(9) 0.75649(14)
H1 H 1.055(2) 1.0589(10) 1.3370(14)
H2 H 0.919(2) 1.0917(11) 1.1500(16)
H3 H 0.726(2) 0.8370(10) 0.9827(15)
H4 H 0.741(2) 0.7047(11) 1.0459(14)
H5 H 0.883(2) 0.6730(10) 1.2417(13)
H6 H 1.008(2) 0.7816(11) 1.3724(16)
H7 H 0.478(3) 1.2200(12) 0.6302(16)
H8 H 0.347(2) 1.1075(10) 0.5167(15)
H9 H 0.386(2) 0.9779(10) 0.5985(14)
H10 H 0.554(2) 0.9581(10) 0.7910(13)
H11 H 0.757(2) 1.1172(10) 0.9895(13)
O1 O 0.39333(17) 0.42136(7) 0.06288(9)
O2 O 0.76508(18) 0.72125(7) 0.55120(11)
O3 O 0.8592(2) 0.79276(7) 0.71125(13)
N1 N 0.78569(17) 0.56300(7) 0.55671(10)
N2 N 0.76075(16) 0.48595(7) 0.51493(10)
N3 N 0.84114(19) 0.72680(8) 0.65893(13)
C1 C 0.4750(2) 0.43623(9) 0.16534(13)
C2 C 0.4928(2) 0.51896(9) 0.21144(14)
C3 C 0.5801(2) 0.53661(9) 0.32359(14)
C4 C 0.66560(19) 0.47414(8) 0.40665(12)
C5 C 0.7186(2) 0.32410(9) 0.44150(14)
C6 C 0.7051(2) 0.24480(10) 0.40098(16)
C7 C 0.6190(2) 0.22757(9) 0.28321(16)
C8 C 0.5454(2) 0.28955(10) 0.20831(15)
C9 C 0.5570(2) 0.37036(9) 0.24853(13)
C10 C 0.64667(19) 0.38859(8) 0.36624(12)
C11 C 0.88460(19) 0.57546(8) 0.67265(12)
C12 C 0.9110(2) 0.65394(9) 0.72454(13)
C13 C 1.0090(2) 0.66460(11) 0.84148(15)
C14 C 1.0833(2) 0.59934(11) 0.90711(15)
C15 C 1.0601(2) 0.52163(11) 0.85767(15)
C16 C 0.9607(2) 0.50970(9) 0.74351(14)
H1 H 0.445(2) 0.5589(10) 0.1630(14)
H2 H 0.581(2) 0.5917(11) 0.3500(16)
H3 H 0.774(2) 0.3370(10) 0.5173(15)
H4 H 0.759(2) 0.2047(11) 0.4541(14)
H5 H 0.617(2) 0.1730(10) 0.2583(13)
H6 H 0.492(2) 0.2816(11) 0.1276(16)
H7 H 1.022(3) 0.7200(12) 0.8698(16)
H8 H 1.153(2) 0.6075(10) 0.9833(15)
H9 H 1.114(2) 0.4779(10) 0.9015(14)
H10 H 0.946(2) 0.4581(10) 0.7090(13)
H11 H 0.743(2) 0.6172(10) 0.5105(13)
O1 O -0.10667(17) 0.07864(7) -0.43712(9)
O2 O 0.26508(18) -0.22125(7) 0.05120(11)
O3 O 0.3592(2) -0.29276(7) 0.21125(13)
N1 N 0.28569(17) -0.06300(7) 0.05671(10)
N2 N 0.26075(16) 0.01405(7) 0.01493(10)
N3 N 0.34114(19) -0.22680(8) 0.15893(13)
C1 C -0.0250(2) 0.06377(9) -0.33466(13)
C2 C -0.0072(2) -0.01896(9) -0.28856(14)
C3 C 0.0801(2) -0.03661(9) -0.17641(14)
C4 C 0.16560(19) 0.02586(8) -0.09335(12)
C5 C 0.2186(2) 0.17590(9) -0.05850(14)
C6 C 0.2051(2) 0.25520(10) -0.09902(16)
C7 C 0.1190(2) 0.27243(9) -0.21679(16)
C8 C 0.0454(2) 0.21045(10) -0.29169(15)
C9 C 0.0570(2) 0.12964(9) -0.25147(13)
C10 C 0.14667(19) 0.11141(8) -0.13376(12)
C11 C 0.38460(19) -0.07546(8) 0.17265(12)
C12 C 0.4110(2) -0.15394(9) 0.22454(13)
C13 C 0.5090(2) -0.16460(11) 0.34148(15)
C14 C 0.5833(2) -0.09934(11) 0.40711(15)
C15 C 0.5601(2) -0.02163(11) 0.35767(15)
C16 C 0.4607(2) -0.00970(9) 0.24351(14)
H1 H -0.055(2) -0.0589(10) -0.3370(14)
H2 H 0.081(2) -0.0917(11) -0.1500(16)
H3 H 0.274(2) 0.1630(10) 0.0173(15)
H4 H 0.259(2) 0.2953(11) -0.0459(14)
H5 H 0.117(2) 0.3270(10) -0.2417(13)
H6 H -0.008(2) 0.2184(11) -0.3724(16)
H7 H 0.522(3) -0.2200(12) 0.3698(16)
H8 H 0.653(2) -0.1075(10) 0.4833(15)
H9 H 0.614(2) 0.0221(10) 0.4015(14)
H10 H 0.446(2) 0.0419(10) 0.2090(13)
H11 H 0.243(2) -0.1172(10) 0.0105(13)

#END
