./ACIDEV01_from_POSCAR.cif_generated_by_CrystalShift
_symmetry_cell_setting triclinic
_symmetry_space_group_name_H-M 'P 1'
loop_
_symmetry_equiv_pos_site_id
_symmetry_equiv_pos_as_xyz
1 x,y,z
_cell_length_a 15.347700
_cell_length_b 5.873300
_cell_length_c 8.962000
_cell_angle_alpha 90.000000
_cell_angle_beta 90.119000
_cell_angle_gamma 90.000000
_cell_volume 807.847693
loop_
_atom_site_label
_atom_site_type_symbol
_atom_site_fract_x
_atom_site_fract_y
_atom_site_fract_z
H1 H 1.043900 1.017000 0.641700
H2 H 0.987700 1.218000 0.568100
H3 H 0.149300 -0.082000 0.124000
H4 H 0.576200 0.208000 0.061600
H5 H 0.283100 -0.413000 0.359000
H6 H 0.716900 0.087000 0.141000
H7 H 0.423800 -0.292000 0.438400
H8 H 0.850700 0.418000 0.376000
H9 H 0.478700 0.068000 0.349300
H10 H 1.043900 0.017000 0.641700
H11 H 0.388500 0.297000 0.192600
H12 H 0.987700 0.218000 0.568100
H13 H 1.143100 0.026000 0.433400
H14 H 0.258000 0.378000 0.060200
H15 H 1.087900 0.248000 0.370600
H16 H 0.611500 0.797000 0.307400
H17 H 0.087900 0.252000 -0.129400
H18 H 0.143100 0.474000 -0.066600
H19 H 1.258000 0.122000 0.560200
H20 H -0.012300 0.282000 0.068100
H21 H 0.043900 0.483000 0.141700
H22 H 1.388500 0.203000 0.692600
H23 H 1.143100 1.026000 0.433400
H24 H -0.149300 1.082000 -0.124000
H25 H 1.478700 0.432000 0.849300
H26 H -0.283100 1.413000 -0.359000
H27 H 1.423800 0.792000 0.938400
H28 H -0.423800 1.292000 -0.438400
H29 H 1.283100 0.913000 0.859000
H30 H -0.478700 0.932000 -0.349300
H31 H 1.149300 0.582000 0.624000
H32 H -0.388500 0.703000 -0.192600
H33 H 0.956100 -0.017000 0.358300
H34 H 1.012300 -0.218000 0.431900
H35 H -0.258000 0.622000 -0.060200
H36 H 1.087900 1.248000 0.370600
H37 H 0.856900 -0.026000 0.566600
H38 H -0.087900 0.748000 0.129400
H39 H -0.143100 0.526000 0.066600
H40 H 0.912100 -0.248000 0.629400
H41 H 0.012300 0.718000 -0.068100
H42 H -0.043900 0.517000 -0.141700
H43 H 0.742000 -0.122000 0.439800
H44 H 0.611500 -0.203000 0.307400
H45 H 0.149300 -0.082000 1.124000
H46 H 0.521300 -0.432000 0.150700
H47 H 0.283100 -0.413000 1.359000
H48 H 0.576200 -0.792000 0.061600
H49 H 0.423800 -0.292000 1.438400
H50 H 0.716900 -0.913000 0.141000
H51 H 0.478700 0.068000 1.349300
H52 H 0.850700 -0.582000 0.376000
H53 H 0.388500 0.297000 1.192600
H54 H 0.742000 0.878000 0.439800
H55 H 0.043900 1.017000 0.641700
H56 H 0.258000 0.378000 1.060200
H57 H 1.258000 1.122000 0.560200
H58 H -0.012300 1.218000 0.568100
H59 H 0.087900 0.252000 0.870600
H60 H 0.143100 0.474000 0.933400
H61 H 0.143100 1.026000 0.433400
H62 H -0.012300 0.282000 1.068100
H63 H 0.043900 0.483000 1.141700
H64 H 0.087900 1.248000 0.370600
H65 H 0.258000 1.122000 0.560200
H66 H -0.149300 1.082000 0.876000
H67 H 0.388500 1.203000 0.692600
H68 H -0.283100 1.413000 0.641000
H69 H 0.478700 1.432000 0.849300
H70 H -0.423800 1.292000 0.561600
H71 H 0.423800 1.792000 0.938400
H72 H -0.478700 0.932000 0.650700
H73 H 0.283100 1.913000 0.859000
H74 H -0.388500 0.703000 0.807400
H75 H 0.149300 1.582000 0.624000
H76 H 0.912100 0.752000 0.629400
H77 H -0.258000 0.622000 0.939800
H78 H -0.043900 0.983000 0.358300
H79 H 0.012300 0.782000 0.431900
H80 H -0.087900 0.748000 1.129400
H81 H -0.143100 0.526000 1.066600
H82 H -0.143100 0.974000 0.566600
H83 H 0.012300 0.718000 0.931900
H84 H -0.043900 0.517000 0.858300
H85 H -0.087900 0.752000 0.629400
H86 H 1.388500 1.203000 0.692600
H87 H 1.149300 -0.082000 0.124000
H88 H 0.856900 0.974000 0.566600
H89 H 1.283100 -0.413000 0.359000
H90 H -0.258000 0.878000 0.439800
H91 H 1.423800 -0.292000 0.438400
H92 H -0.388500 0.797000 0.307400
H93 H 1.478700 0.068000 0.349300
H94 H -0.478700 0.568000 0.150700
H95 H 1.388500 0.297000 0.192600
H96 H -0.423800 0.208000 0.061600
H97 H -0.283100 0.087000 0.141000
H98 H 1.258000 0.378000 0.060200
H99 H -0.149300 0.418000 0.376000
H100 H 0.043900 0.017000 0.641700
H101 H 1.087900 0.252000 -0.129400
H102 H 1.143100 0.474000 -0.066600
H103 H -0.012300 0.218000 0.568100
H104 H 0.987700 0.282000 0.068100
H105 H 1.043900 0.483000 0.141700
H106 H 0.143100 0.026000 0.433400
H107 H 1.478700 1.432000 0.849300
H108 H 0.850700 1.082000 -0.124000
H109 H 0.087900 0.248000 0.370600
H110 H 0.716900 1.413000 -0.359000
H111 H 1.012300 0.782000 0.431900
H112 H 0.576200 1.292000 -0.438400
H113 H 0.258000 0.122000 0.560200
H114 H 0.521300 0.932000 -0.349300
H115 H 0.388500 0.203000 0.692600
H116 H 0.611500 0.703000 -0.192600
H117 H 0.478700 0.432000 0.849300
H118 H 0.423800 0.792000 0.938400
H119 H 0.742000 0.622000 -0.060200
H120 H 0.283100 0.913000 0.859000
H121 H 0.149300 0.582000 0.624000
H122 H 0.912100 0.748000 0.129400
H123 H 0.856900 0.526000 0.066600
H124 H 0.956100 0.983000 0.358300
H125 H 1.012300 0.718000 -0.068100
H126 H 0.956100 0.517000 -0.141700
H127 H -0.043900 -0.017000 0.358300
H128 H 1.423800 1.792000 0.938400
H129 H 1.149300 -0.082000 1.124000
H130 H 0.012300 -0.218000 0.431900
H131 H 1.283100 -0.413000 1.359000
H132 H -0.143100 -0.026000 0.566600
H133 H 1.423800 -0.292000 1.438400
H134 H -0.087900 -0.248000 0.629400
H135 H 1.478700 0.068000 1.349300
H136 H -0.258000 -0.122000 0.439800
H137 H 1.388500 0.297000 1.192600
H138 H -0.388500 -0.203000 0.307400
H139 H -0.478700 -0.432000 0.150700
H140 H 1.258000 0.378000 1.060200
H141 H -0.423800 -0.792000 0.061600
H142 H -0.283100 -0.913000 0.141000
H143 H 1.087900 0.252000 0.870600
H144 H 1.143100 0.474000 0.933400
H145 H -0.149300 -0.582000 0.376000
H146 H 0.987700 0.282000 1.068100
H147 H 1.043900 0.483000 1.141700
H148 H 1.149300 1.582000 0.624000
H149 H 1.283100 1.913000 0.859000
H150 H 0.850700 1.082000 0.876000
H151 H 0.956100 0.517000 0.858300
H152 H 0.716900 1.413000 0.641000
H153 H 1.012300 0.718000 0.931900
H154 H 0.576200 1.292000 0.561600
H155 H 0.856900 0.526000 1.066600
H156 H 0.521300 0.932000 0.650700
H157 H 0.912100 0.748000 1.129400
H158 H 0.611500 0.703000 0.807400
H159 H 0.742000 0.622000 0.939800
H160 H 0.521300 0.568000 0.150700
C161 C 0.713750 0.922030 0.816650
C162 C 1.307450 1.767200 0.825210
C163 C 0.894710 0.668500 1.037440
C164 C 0.630850 0.851700 0.771330
C165 C 0.580140 0.985000 0.679300
C166 C 0.974520 0.586800 0.954750
C167 C 0.611700 1.191900 0.631080
C168 C 0.692550 1.267200 0.674790
C169 C -0.255920 -0.634630 0.268880
C170 C 0.744080 1.134630 0.768880
C171 C 1.025480 0.413200 1.045250
C172 C -0.307450 -0.767200 0.174790
C173 C 1.105290 0.331500 0.962560
C174 C -0.388300 -0.691900 0.131080
C175 C 1.388300 1.691900 0.868920
C176 C -0.419860 -0.485000 0.179300
C177 C 1.232600 0.226120 1.090790
C178 C -0.369150 -0.351700 0.271330
C179 C 1.286250 0.077970 1.183350
C180 C -0.286250 -0.422030 0.316650
C181 C -0.232600 -0.273880 0.409210
C182 C 1.369150 0.148300 1.228670
C183 C 1.255920 1.634630 0.731120
C184 C -0.105290 -0.168500 0.537440
C185 C 1.419860 0.015000 1.320700
C186 C 1.388300 -0.191900 1.368920
C187 C -0.025480 -0.086800 0.454750
C188 C 1.307450 -0.267200 1.325210
C189 C 1.255920 -0.134630 1.231120
C190 C 0.255920 0.634630 0.731120
C191 C 0.974520 0.586800 -0.045250
C192 C 0.894710 0.668500 0.037440
C193 C 0.307450 0.767200 0.825210
C194 C 1.419860 1.485000 0.820700
C195 C 0.388300 0.691900 0.868920
C196 C 0.767400 0.773880 -0.090790
C197 C 0.419860 0.485000 0.820700
C198 C 0.713750 0.922030 -0.183350
C199 C 0.369150 0.351700 0.728670
C200 C 0.630850 0.851700 -0.228670
C201 C 0.286250 0.422030 0.683350
C202 C 0.232600 0.273880 0.590790
C203 C 0.580140 0.985000 -0.320700
C204 C 0.611700 1.191900 -0.368920
C205 C 0.105290 0.168500 0.462560
C206 C 0.692550 1.267200 -0.325210
C207 C 0.744080 1.134630 -0.231120
C208 C 0.025480 0.086800 0.545250
C209 C 1.025480 0.413200 0.045250
C210 C 1.105290 0.331500 -0.037440
C211 C -0.255920 0.365370 0.268880
C212 C 0.974520 0.913200 0.454750
C213 C 1.369150 1.351700 0.728670
C214 C -0.307450 0.232800 0.174790
C215 C 1.232600 0.226120 0.090790
C216 C -0.388300 0.308100 0.131080
C217 C 1.286250 0.077970 0.183350
C218 C -0.419860 0.515000 0.179300
C219 C 1.369150 0.148300 0.228670
C220 C -0.369150 0.648300 0.271330
C221 C 1.419860 0.015000 0.320700
C222 C -0.286250 0.577970 0.316650
C223 C -0.232600 0.726120 0.409210
C224 C 1.388300 -0.191900 0.368920
C225 C 1.307450 -0.267200 0.325210
C226 C -0.105290 0.831500 0.537440
C227 C 1.255920 -0.134630 0.231120
C228 C -0.025480 0.586800 0.954750
C229 C -0.025480 0.913200 0.454750
C230 C -0.105290 0.668500 1.037440
C231 C 1.286250 1.422030 0.683350
C232 C 0.255920 1.634630 0.731120
C233 C -0.232600 0.773880 0.909210
C234 C -0.286250 0.922030 0.816650
C235 C 0.307450 1.767200 0.825210
C236 C -0.369150 0.851700 0.771330
C237 C 0.388300 1.691900 0.868920
C238 C -0.419860 0.985000 0.679300
C239 C 0.419860 1.485000 0.820700
C240 C -0.388300 1.191900 0.631080
C241 C 0.369150 1.351700 0.728670
C242 C -0.307450 1.267200 0.674790
C243 C 0.286250 1.422030 0.683350
C244 C 0.232600 1.273880 0.590790
C245 C 1.232600 1.273880 0.590790
C246 C 0.894710 0.831500 0.537440
C247 C 0.105290 1.168500 0.462560
C248 C -0.255920 1.134630 0.768880
C249 C 0.025480 0.413200 1.045250
C250 C 0.025480 1.086800 0.545250
C251 C 0.105290 0.331500 0.962560
C252 C 0.232600 0.226120 1.090790
C253 C 0.744080 -0.634630 0.268880
C254 C 0.286250 0.077970 1.183350
C255 C 0.369150 0.148300 1.228670
C256 C 0.692550 -0.767200 0.174790
C257 C 0.419860 0.015000 1.320700
C258 C 0.611700 -0.691900 0.131080
C259 C 0.388300 -0.191900 1.368920
C260 C 0.580140 -0.485000 0.179300
C261 C 0.307450 -0.267200 1.325210
C262 C 0.630850 -0.351700 0.271330
C263 C 1.105290 1.168500 0.462560
C264 C 0.713750 -0.422030 0.316650
C265 C 0.767400 -0.273880 0.409210
C266 C 0.255920 -0.134630 1.231120
C267 C 0.767400 0.726120 0.409210
C268 C 0.894710 -0.168500 0.537440
C269 C -0.025480 0.586800 -0.045250
C270 C -0.105290 0.668500 0.037440
C271 C 0.974520 -0.086800 0.454750
C272 C -0.232600 0.773880 -0.090790
C273 C -0.286250 0.922030 -0.183350
C274 C 1.255920 0.634630 0.731120
C275 C 0.713750 0.577970 0.316650
C276 C -0.369150 0.851700 -0.228670
C277 C 1.307450 0.767200 0.825210
C278 C -0.419860 0.985000 -0.320700
C279 C 1.388300 0.691900 0.868920
C280 C -0.388300 1.191900 -0.368920
C281 C 1.419860 0.485000 0.820700
C282 C -0.307450 1.267200 -0.325210
C283 C 1.369150 0.351700 0.728670
C284 C -0.255920 1.134630 -0.231120
C285 C 1.286250 0.422030 0.683350
C286 C 1.232600 0.273880 0.590790
C287 C 0.025480 0.413200 0.045250
C288 C 0.105290 0.331500 -0.037440
C289 C 1.105290 0.168500 0.462560
C290 C 1.025480 1.086800 0.545250
C291 C 0.232600 0.226120 0.090790
C292 C 1.025480 0.086800 0.545250
C293 C 0.286250 0.077970 0.183350
C294 C 0.369150 0.148300 0.228670
C295 C 0.744080 0.365370 0.268880
C296 C 0.630850 0.648300 0.271330
C297 C 0.419860 0.015000 0.320700
C298 C 0.692550 0.232800 0.174790
C299 C 0.388300 -0.191900 0.368920
C300 C 0.611700 0.308100 0.131080
C301 C 0.307450 -0.267200 0.325210
C302 C 0.580140 0.515000 0.179300
C303 C 0.767400 0.773880 0.909210
C304 C 0.255920 -0.134630 0.231120
N305 N 1.155850 0.331070 0.551620
N306 N -0.155850 0.831070 -0.051620
N307 N 0.844150 -0.331070 0.448380
N308 N 1.155850 1.331070 0.551620
N309 N 0.844150 0.668930 0.448380
N310 N 0.155850 1.331070 0.551620
N311 N 0.155850 0.168930 1.051620
N312 N -0.155850 0.668930 0.448380
N313 N -0.155850 0.831070 0.948380
N314 N 0.155850 0.331070 0.551620
N315 N 1.155850 0.168930 0.051620
N316 N -0.155850 -0.331070 0.448380
N317 N 0.844150 0.831070 -0.051620
N318 N 1.155850 0.168930 1.051620
N319 N 0.844150 0.831070 0.948380
N320 N 0.155850 0.168930 0.051620
O321 O -0.176950 -0.713130 0.310270
O322 O 1.176950 -0.213130 1.189730
O323 O 1.176950 1.713130 0.689730
O324 O 0.823050 1.213130 -0.189730
O325 O 0.176950 0.713130 0.689730
O326 O 1.176950 -0.213130 0.189730
O327 O -0.176950 0.286870 0.310270
O328 O -0.176950 1.213130 0.810270
O329 O 0.176950 1.713130 0.689730
O330 O 0.823050 -0.713130 0.310270
O331 O 0.176950 -0.213130 1.189730
O332 O 1.176950 0.713130 0.689730
O333 O -0.176950 1.213130 -0.189730
O334 O 0.823050 1.213130 0.810270
O335 O 0.176950 -0.213130 0.189730
O336 O 0.823050 0.286870 0.310270

#END
