./ACIXAL_from_POSCAR.cif_generated_by_CrystalShift
_symmetry_cell_setting triclinic
_symmetry_space_group_name_H-M 'P 1'
loop_
_symmetry_equiv_pos_site_id
_symmetry_equiv_pos_as_xyz
1 x,y,z
_cell_length_a 5.635500
_cell_length_b 11.143500
_cell_length_c 13.205700
_cell_angle_alpha 95.596000
_cell_angle_beta 100.257000
_cell_angle_gamma 100.286000
_cell_volume 795.745830
loop_
_atom_site_label
_atom_site_type_symbol
_atom_site_fract_x
_atom_site_fract_y
_atom_site_fract_z
H1 H -0.139500 0.176000 1.003000
H2 H 0.049800 0.259000 1.170200
H3 H 0.433500 0.383100 1.202500
H4 H 1.445300 1.093300 0.516000
H5 H 0.641300 0.413000 1.068900
H6 H 0.453900 0.329200 0.901000
H7 H 0.639300 0.923100 0.103700
H8 H -0.151300 0.411200 0.764100
H9 H 0.459100 1.086000 0.144900
H10 H -0.030000 0.564900 0.669600
H11 H 0.607900 1.212800 0.300800
H12 H 0.263600 0.546500 0.571600
H13 H 0.948000 1.180900 0.411600
H14 H 0.444800 0.377200 0.573100
H15 H 0.330400 0.224400 0.671500
H16 H 0.052000 -0.180900 0.588400
H17 H 0.392100 -0.212800 0.699200
H18 H 0.669600 0.775600 0.328500
H19 H 0.540900 -0.086000 0.855100
H20 H 0.555200 0.622800 0.426900
H21 H 0.360700 0.076900 0.896300
H22 H 0.736400 0.453500 0.428400
H23 H -0.445300 -0.093300 0.484000
H24 H 1.030000 0.435100 0.330400
H25 H 1.139500 0.824000 -0.003000
H26 H 1.151300 0.588800 0.235900
H27 H 0.950200 0.741000 -0.170200
H28 H 0.566500 0.616900 -0.202500
H29 H 0.546100 0.670800 0.099000
H30 H 0.358700 0.587000 -0.068900
C31 C 0.517500 0.634000 -0.055300
C32 C 0.640100 0.653200 -0.135200
C33 C 0.629900 0.684400 0.045200
C34 C 0.869600 0.725500 -0.115800
C35 C 0.867000 0.755300 0.066950
C36 C 0.982200 0.775500 -0.015500
C37 C 1.030400 0.596500 0.274300
C38 C 0.130400 0.274500 1.115800
C39 C 0.359900 0.346800 1.135200
C40 C 0.901300 0.947300 0.233350
C41 C 0.959000 0.504300 0.331200
C42 C 0.098700 0.052700 0.766650
C43 C 0.298200 0.026600 0.833300
C44 C 0.783100 0.514800 0.388700
C45 C 0.407000 -0.071600 0.808900
C46 C 0.675600 0.615900 0.388000
C47 C 0.316800 -0.148000 0.716500
C48 C 0.745600 0.708000 0.329500
C49 C 0.115100 -0.128000 0.650000
C50 C 0.927700 0.700300 0.272520
C51 C 0.003200 -0.029400 0.673530
C52 C -0.213100 -0.013100 0.598900
C53 C 0.072300 0.299700 0.727480
C54 C 0.254400 0.292000 0.670500
C55 C 1.213100 1.013100 0.401100
C56 C 0.324400 0.384100 0.612000
C57 C 0.996800 1.029400 0.326470
C58 C 0.216900 0.485200 0.611300
C59 C 0.884900 1.128000 0.350000
C60 C 0.041000 0.495700 0.668800
C61 C 0.683200 1.148000 0.283500
C62 C -0.030400 0.403500 0.725700
C63 C 0.593000 1.071600 0.191100
C64 C 0.133000 0.244700 0.933050
C65 C 0.370100 0.315600 0.954800
C66 C 0.701800 0.973400 0.166700
C67 C 0.482500 0.366000 1.055300
C68 C 0.017800 0.224500 1.015500
O69 O 1.316200 1.110490 0.469310
O70 O -0.295300 0.081220 0.600570
O71 O 1.295300 0.918780 0.399430
O72 O -0.316200 -0.110490 0.530690
P73 P -0.048270 0.181840 0.802960
P74 P 1.048270 0.818160 0.197040

#END
