
#######################################################################
#
#                 Cambridge Crystallographic Data Centre
#                                CCDC 
#
#######################################################################
#
# If this CIF has been generated from an entry in the Cambridge 
# Structural Database, then it will include bibliographic, chemical, 
# crystal, experimental, refinement or atomic coordinate data resulting 
# from the CCDC's data processing and validation procedures.
#
#######################################################################

data_ACIXAL
_symmetry_cell_setting           triclinic
_symmetry_space_group_name_H-M   'P -1'
_symmetry_Int_Tables_number      2
_space_group_name_Hall           '-P 1'
loop_
_symmetry_equiv_pos_site_id
_symmetry_equiv_pos_as_xyz
1 x,y,z
2 -x,-y,-z
_cell_length_a                   5.6355(3)
_cell_length_b                   11.1435(6)
_cell_length_c                   13.2057(7)
_cell_angle_alpha                95.596(3)
_cell_angle_beta                 100.257(3)
_cell_angle_gamma                100.286(3)
_cell_volume                     795.746
loop_
_atom_site_label
_atom_site_type_symbol
_atom_site_fract_x
_atom_site_fract_y
_atom_site_fract_z
P1 P 1.04827(8) 0.81816(5) 0.19704(4)
O1 O 1.2953(3) 0.91878(13) 0.39943(11)
O2 O 1.3162(3) 1.11049(15) 0.46931(12)
H1 H 1.4453(55) 1.0933(27) 0.5160(24)
C1 C 0.9013(3) 0.9473(2) 0.23335(14)
C2 C 0.7018(4) 0.9734(2) 0.1667(2)
H2 H 0.6393(4) 0.9231(2) 0.1037(2)
C3 C 0.5930(4) 1.0716(2) 0.1911(2)
H3 H 0.4591(4) 1.0860(2) 0.1449(2)
C4 C 0.6832(4) 1.1480(2) 0.2835(2)
H4 H 0.6079(4) 1.2128(2) 0.3008(2)
C5 C 0.8849(4) 1.1280(2) 0.3500(2)
H5 H 0.9480(4) 1.1809(2) 0.4116(2)
C6 C 0.9968(4) 1.0294(2) 0.32647(14)
C7 C 1.2131(4) 1.0131(2) 0.40110(14)
C8 C 0.9277(3) 0.7003(2) 0.27252(13)
C9 C 0.7456(4) 0.7080(2) 0.3295(2)
H6 H 0.6696(4) 0.7756(2) 0.3285(2)
C10 C 0.6756(5) 0.6159(2) 0.3880(2)
H7 H 0.5552(5) 0.6228(2) 0.4269(2)
C11 C 0.7831(5) 0.5148(2) 0.3887(2)
H8 H 0.7364(5) 0.4535(2) 0.4284(2)
C12 C 0.9590(5) 0.5043(2) 0.3312(2)
H9 H 1.0300(5) 0.4351(2) 0.3304(2)
C13 C 1.0304(4) 0.5965(2) 0.2743(2)
H10 H 1.1513(4) 0.5888(2) 0.2359(2)
C14 C 0.8670(3) 0.7553(2) 0.06695(14)
C15 C 0.6299(4) 0.6844(2) 0.0452(2)
H11 H 0.5461(4) 0.6708(2) 0.0990(2)
C16 C 0.5175(5) 0.6340(2) -0.0553(2)
H12 H 0.3587(5) 0.5870(2) -0.0689(2)
C17 C 0.6401(5) 0.6532(2) -0.1352(2)
H13 H 0.5665(5) 0.6169(2) -0.2025(2)
C18 C 0.8696(5) 0.7255(3) -0.1158(2)
H14 H 0.9502(5) 0.7410(3) -0.1702(2)
C19 C 0.9822(4) 0.7755(2) -0.0155(2)
H15 H 1.1395(4) 0.8240(2) -0.0030(2)
P1 P -0.04827(8) 0.18184(5) 0.80296(4)
O1 O -0.2953(3) 0.08122(13) 0.60057(11)
O2 O -0.3162(3) -0.11049(15) 0.53069(12)
H1 H -0.4453(55) -0.0933(27) 0.4840(24)
C1 C 0.0987(3) 0.0527(2) 0.76665(14)
C2 C 0.2982(4) 0.0266(2) 0.8333(2)
H2 H 0.3607(4) 0.0769(2) 0.8963(2)
C3 C 0.4070(4) -0.0716(2) 0.8089(2)
H3 H 0.5409(4) -0.0860(2) 0.8551(2)
C4 C 0.3168(4) -0.1480(2) 0.7165(2)
H4 H 0.3921(4) -0.2128(2) 0.6992(2)
C5 C 0.1151(4) -0.1280(2) 0.6500(2)
H5 H 0.0520(4) -0.1809(2) 0.5884(2)
C6 C 0.0032(4) -0.0294(2) 0.67353(14)
C7 C -0.2131(4) -0.0131(2) 0.59890(14)
C8 C 0.0723(3) 0.2997(2) 0.72748(13)
C9 C 0.2544(4) 0.2920(2) 0.6705(2)
H6 H 0.3304(4) 0.2244(2) 0.6715(2)
C10 C 0.3244(5) 0.3841(2) 0.6120(2)
H7 H 0.4448(5) 0.3772(2) 0.5731(2)
C11 C 0.2169(5) 0.4852(2) 0.6113(2)
H8 H 0.2636(5) 0.5465(2) 0.5716(2)
C12 C 0.0410(5) 0.4957(2) 0.6688(2)
H9 H -0.0300(5) 0.5649(2) 0.6696(2)
C13 C -0.0304(4) 0.4035(2) 0.7257(2)
H10 H -0.1513(4) 0.4112(2) 0.7641(2)
C14 C 0.1330(3) 0.2447(2) 0.93305(14)
C15 C 0.3701(4) 0.3156(2) 0.9548(2)
H11 H 0.4539(4) 0.3292(2) 0.9010(2)
C16 C 0.4825(5) 0.3660(2) 1.0553(2)
H12 H 0.6413(5) 0.4130(2) 1.0689(2)
C17 C 0.3599(5) 0.3468(2) 1.1352(2)
H13 H 0.4335(5) 0.3831(2) 1.2025(2)
C18 C 0.1304(5) 0.2745(3) 1.1158(2)
H14 H 0.0498(5) 0.2590(3) 1.1702(2)
C19 C 0.0178(4) 0.2245(2) 1.0155(2)
H15 H -0.1395(4) 0.1760(2) 1.0030(2)

#END
