./ACOBOK01_from_POSCAR.cif_generated_by_CrystalShift
_symmetry_cell_setting triclinic
_symmetry_space_group_name_H-M 'P 1'
loop_
_symmetry_equiv_pos_site_id
_symmetry_equiv_pos_as_xyz
1 x,y,z
_cell_length_a 11.980300
_cell_length_b 15.660300
_cell_length_c 15.376700
_cell_angle_alpha 90.000000
_cell_angle_beta 99.467000
_cell_angle_gamma 90.000000
_cell_volume 2845.610073
loop_
_atom_site_label
_atom_site_type_symbol
_atom_site_fract_x
_atom_site_fract_y
_atom_site_fract_z
H1 H 0.531000 0.648000 0.473000
H2 H 0.135000 0.019000 0.136000
H3 H 0.376100 0.432600 0.864000
H4 H 0.336900 0.448400 0.760600
H5 H 0.341700 0.526500 0.828200
H6 H 0.686900 0.542500 0.904000
H7 H 0.603900 0.490000 0.955900
H8 H 0.574400 0.586500 0.926200
H9 H 0.953400 0.357900 0.719500
H10 H 0.259000 0.040400 -0.000800
H11 H 0.905700 0.366200 0.616300
H12 H 0.182000 -0.070900 -0.103400
H13 H 0.820400 0.368400 0.686200
H14 H 0.823400 0.520700 0.809900
H15 H 0.319800 -0.188500 0.126300
H16 H 0.893800 0.604600 0.794500
H17 H 0.958100 0.521600 0.838100
H18 H 0.104600 -0.258800 0.147400
H19 H 1.111600 0.506900 0.709500
H20 H 0.182000 -0.148600 0.256200
H21 H 1.062800 0.594200 0.664300
H22 H 1.066100 0.510200 0.605700
H23 H -0.134000 -0.078600 0.142200
H24 H 0.930400 0.785600 0.494400
H25 H 0.214300 -0.359600 0.056700
H26 H 0.185200 -0.410300 -0.034600
H27 H 0.094300 -0.346200 -0.005000
H28 H 0.893600 0.849500 0.413600
H29 H 0.076200 -0.241400 -0.172800
H30 H 0.153600 -0.314400 -0.205000
H31 H 0.189600 -0.216200 -0.209000
H32 H 0.915800 0.750900 0.395300
H33 H 0.415800 -0.250900 -0.104700
H34 H 0.393600 -0.349500 -0.086400
H35 H 0.430400 -0.285600 -0.005600
H36 H 0.689600 0.716200 0.291000
H37 H 0.566100 -0.010200 0.105700
H38 H 0.562800 -0.094200 0.164300
H39 H 0.611600 -0.006900 0.209500
H40 H 0.653600 0.814400 0.295000
H41 H 0.458100 -0.021600 0.338100
H42 H 0.393800 -0.104600 0.294500
H43 H 0.323400 -0.020700 0.309900
H44 H 0.576200 0.741400 0.327200
H45 H 0.320400 0.131600 0.186200
H46 H 0.405700 0.133800 0.116300
H47 H 0.453400 0.142100 0.219500
H48 H 0.594300 0.846200 0.495000
H49 H 0.074400 -0.086500 0.426200
H50 H 0.103900 0.010000 0.455900
H51 H 0.186900 -0.042500 0.404000
H52 H 0.685200 0.910300 0.465400
H53 H -0.158300 -0.026500 0.328200
H54 H -0.163100 0.051600 0.260600
H55 H -0.123900 0.067400 0.364000
H56 H 0.714300 0.859600 0.556700
H57 H 0.078100 0.153200 0.315700
H58 H 0.056500 0.126000 0.214000
H59 H 0.173000 0.101300 0.275700
H60 H 0.366000 0.578600 0.642200
H61 H -0.310300 -0.170700 0.053900
H62 H -0.296400 -0.237100 0.134100
H63 H -0.349300 -0.267800 0.036800
H64 H 0.682000 0.648600 0.756200
H65 H -0.077300 -0.273200 -0.084200
H66 H -0.150400 -0.187400 -0.086500
H67 H -0.212600 -0.277800 -0.103200
H68 H 0.604600 0.758800 0.647400
H69 H -0.173500 -0.408700 0.050800
H70 H -0.124900 -0.376100 0.148300
H71 H -0.042000 -0.386000 0.077200
H72 H 0.969000 0.148000 0.027000
H73 H -0.135000 -0.019000 -0.136000
H74 H 0.819800 0.688500 0.626300
H75 H 0.682000 0.570900 0.396600
H76 H 0.759000 0.459600 0.499200
H77 H 0.635000 0.481000 0.636000
H78 H 0.556500 0.374000 0.714000
H79 H 0.542000 0.114000 0.422800
H80 H 0.624900 0.123900 0.351700
H81 H -0.259000 -0.040400 0.000800
H82 H 0.673500 0.091300 0.449200
H83 H -0.182000 0.070900 0.103400
H84 H 0.712600 0.222200 0.603200
H85 H 0.650400 0.312600 0.586500
H86 H -0.319800 0.188500 -0.126300
H87 H 0.577300 0.226800 0.584200
H88 H 0.849300 0.232200 0.463200
H89 H -0.104600 0.258800 -0.147400
H90 H 0.796400 0.262900 0.365900
H91 H -0.182000 0.148600 -0.256200
H92 H 0.810300 0.329300 0.446100
H93 H 0.327000 0.601300 0.224300
H94 H 0.134000 0.078600 -0.142200
H95 H 0.443500 0.626000 0.286000
H96 H -0.214300 0.359600 -0.056700
H97 H -0.185200 0.410300 0.034600
H98 H -0.094300 0.346200 0.005000
H99 H 0.421900 0.653200 0.184300
H100 H -0.076200 0.241400 0.172800
H101 H -0.153600 0.314400 0.205000
H102 H -0.189600 0.216200 0.209000
H103 H 0.623900 0.567400 0.136000
H104 H -0.415800 0.250900 0.104700
H105 H -0.393600 0.349500 0.086400
H106 H -0.430400 0.285600 0.005600
H107 H 0.663100 0.551600 0.239400
H108 H -0.566100 0.010200 -0.105700
H109 H -0.562800 0.094200 -0.164300
H110 H -0.611600 0.006900 -0.209500
H111 H 0.658300 0.473500 0.171800
H112 H -0.458100 0.021600 -0.338100
H113 H -0.393800 0.104600 -0.294500
H114 H -0.323400 0.020700 -0.309900
H115 H 0.313100 0.457500 0.096000
H116 H -0.320400 -0.131600 -0.186200
H117 H -0.405700 -0.133800 -0.116300
H118 H -0.453400 -0.142100 -0.219500
H119 H 0.396100 0.510000 0.044100
H120 H -0.074400 0.086500 -0.426200
H121 H -0.103900 -0.010000 -0.455900
H122 H -0.186900 0.042500 -0.404000
H123 H 0.425600 0.413500 0.073800
H124 H 0.158300 0.026500 -0.328200
H125 H 0.163100 -0.051600 -0.260600
H126 H 0.123900 -0.067400 -0.364000
H127 H 0.046600 0.642100 0.280500
H128 H -0.078100 -0.153200 -0.315700
H129 H -0.056500 -0.126000 -0.214000
H130 H -0.173000 -0.101300 -0.275700
H131 H 0.094300 0.633800 0.383700
H132 H 0.310300 0.170700 -0.053900
H133 H 0.296400 0.237100 -0.134100
H134 H 0.349300 0.267800 -0.036800
H135 H 0.179600 0.631600 0.313800
H136 H 0.077300 0.273200 0.084200
H137 H 0.150400 0.187400 0.086500
H138 H 0.212600 0.277800 0.103200
H139 H 0.176600 0.479300 0.190100
H140 H 0.173500 0.408700 -0.050800
H141 H 0.124900 0.376100 -0.148300
H142 H 0.042000 0.386000 -0.077200
H143 H 0.469000 0.352000 0.527000
H144 H 0.135000 0.019000 1.136000
H145 H 0.106200 0.395400 0.205500
H146 H 0.041900 0.478400 0.161900
H147 H -0.111600 0.493100 0.290500
H148 H -0.062800 0.405800 0.335700
H149 H -0.066100 0.489800 0.394300
H150 H 0.069600 0.214400 0.505600
H151 H 0.106400 0.150500 0.586400
H152 H 0.259000 0.040400 0.999200
H153 H 0.084200 0.249100 0.604700
H154 H 0.182000 -0.070900 0.896600
H155 H 0.310400 0.283800 0.709000
H156 H 0.346400 0.185600 0.705000
H157 H 0.319800 -0.188500 1.126300
H158 H 0.423800 0.258600 0.672800
H159 H 0.405700 0.153800 0.505000
H160 H 0.104600 -0.258800 1.147400
H161 H 0.314800 0.089700 0.534600
H162 H 0.182000 -0.148600 1.256200
H163 H 0.285700 0.140400 0.443300
H164 H 0.634000 0.421400 0.357800
H165 H -0.134000 -0.078600 1.142200
H166 H 0.318000 0.351400 0.243800
H167 H 0.214300 -0.359600 1.056700
H168 H 0.185200 -0.410300 0.965400
H169 H 0.094300 -0.346200 0.995000
H170 H 0.395400 0.241200 0.352600
H171 H 0.076200 -0.241400 0.827200
H172 H 0.153600 -0.314400 0.795000
H173 H 0.189600 -0.216200 0.791000
H174 H 0.180200 0.311500 0.373700
H175 H 0.415800 -0.250900 0.895300
H176 H 0.393600 -0.349500 0.913600
H177 H 0.430400 -0.285600 0.994400
H178 H 0.318000 0.429100 0.603400
H179 H 0.566100 -0.010200 1.105700
H180 H 0.562800 -0.094200 1.164300
H181 H 0.611600 -0.006900 1.209500
H182 H 0.241000 0.540400 0.500800
H183 H 0.458100 -0.021600 1.338100
H184 H 0.393800 -0.104600 1.294500
H185 H 0.323400 -0.020700 1.309900
H186 H 0.365000 0.519000 0.364000
H187 H 0.320400 0.131600 1.186200
H188 H 0.405700 0.133800 1.116300
H189 H 0.453400 0.142100 1.219500
H190 H 0.673000 0.398700 0.775700
H191 H 0.074400 -0.086500 1.426200
H192 H 0.103900 0.010000 1.455900
H193 H 0.186900 -0.042500 1.404000
H194 H 1.042000 1.386000 0.922800
H195 H -0.158300 -0.026500 1.328200
H196 H -0.163100 0.051600 1.260600
H197 H -0.123900 0.067400 1.364000
H198 H 1.124900 1.376100 0.851700
H199 H 0.078100 0.153200 1.315700
H200 H 0.056500 0.126000 1.214000
H201 H 0.173000 0.101300 1.275700
H202 H 1.173500 1.408700 0.949200
H203 H -0.310300 -0.170700 1.053900
H204 H -0.296400 -0.237100 1.134100
H205 H -0.349300 -0.267800 1.036800
H206 H 1.212600 1.277800 1.103200
H207 H -0.077300 -0.273200 0.915800
H208 H -0.150400 -0.187400 0.913500
H209 H -0.212600 -0.277800 0.896800
H210 H 1.150400 1.187400 1.086500
H211 H -0.173500 -0.408700 1.050800
H212 H -0.124900 -0.376100 1.148300
H213 H -0.042000 -0.386000 1.077200
H214 H 0.031000 0.852000 0.973000
H215 H -0.135000 -0.019000 0.864000
H216 H 1.077300 1.273200 1.084200
H217 H 1.349300 1.267800 0.963200
H218 H 1.296400 1.237100 0.865900
H219 H 1.310300 1.170700 0.946100
H220 H 0.827000 0.898700 0.724300
H221 H 0.943500 0.874000 0.786000
H222 H 0.921900 0.846800 0.684300
H223 H -0.259000 -0.040400 1.000800
H224 H 1.123900 0.932600 0.636000
H225 H -0.182000 0.070900 1.103400
H226 H 1.163100 0.948400 0.739400
H227 H 1.158300 1.026500 0.671800
H228 H -0.319800 0.188500 0.873700
H229 H 0.813100 1.042500 0.596000
H230 H 0.896100 0.990000 0.544100
H231 H -0.104600 0.258800 0.852600
H232 H 0.925600 1.086500 0.573800
H233 H -0.182000 0.148600 0.743800
H234 H 0.546600 0.857900 0.780500
H235 H 0.594300 0.866200 0.883700
H236 H 0.134000 0.078600 0.857800
H237 H 0.679600 0.868400 0.813800
H238 H -0.214300 0.359600 0.943300
H239 H -0.185200 0.410300 1.034600
H240 H -0.094300 0.346200 1.005000
H241 H 0.676600 1.020700 0.690100
H242 H -0.076200 0.241400 1.172800
H243 H -0.153600 0.314400 1.205000
H244 H -0.189600 0.216200 1.209000
H245 H 0.606200 1.104600 0.705500
H246 H -0.415800 0.250900 1.104700
H247 H -0.393600 0.349500 1.086400
H248 H -0.430400 0.285600 1.005600
H249 H 0.541900 1.021600 0.661900
H250 H -0.566100 0.010200 0.894300
H251 H -0.562800 0.094200 0.835700
H252 H -0.611600 0.006900 0.790500
H253 H 0.388400 1.006900 0.790500
H254 H -0.458100 0.021600 0.661900
H255 H -0.393800 0.104600 0.705500
H256 H -0.323400 0.020700 0.690100
H257 H 0.437200 1.094200 0.835700
H258 H -0.320400 -0.131600 0.813800
H259 H -0.405700 -0.133800 0.883700
H260 H -0.453400 -0.142100 0.780500
H261 H 0.433900 1.010200 0.894300
H262 H -0.074400 0.086500 0.573800
H263 H -0.103900 -0.010000 0.544100
H264 H -0.186900 0.042500 0.596000
H265 H 0.569600 1.285600 1.005600
H266 H 0.158300 0.026500 0.671800
H267 H 0.163100 -0.051600 0.739400
H268 H 0.123900 -0.067400 0.636000
H269 H 0.606400 1.349500 1.086400
H270 H -0.078100 -0.153200 0.684300
H271 H -0.056500 -0.126000 0.786000
H272 H -0.173000 -0.101300 0.724300
H273 H 0.584200 1.250900 1.104700
H274 H 0.310300 0.170700 0.946100
H275 H 0.296400 0.237100 0.865900
H276 H 0.349300 0.267800 0.963200
H277 H 0.810400 1.216200 1.209000
H278 H 0.077300 0.273200 1.084200
H279 H 0.150400 0.187400 1.086500
H280 H 0.212600 0.277800 1.103200
H281 H 0.846400 1.314400 1.205000
H282 H 0.173500 0.408700 0.949200
H283 H 0.124900 0.376100 0.851700
H284 H 0.042000 0.386000 0.922800
H285 H 0.458000 0.886000 0.577200
H286 H 0.135000 1.019000 0.136000
H287 H 0.923800 1.241400 1.172800
H288 H 0.905700 1.346200 1.005000
H289 H 0.814800 1.410300 1.034600
H290 H 0.785700 1.359600 0.943300
H291 H 1.134000 1.078600 0.857800
H292 H 0.818000 1.148600 0.743800
H293 H 0.895400 1.258800 0.852600
H294 H 0.259000 1.040400 -0.000800
H295 H 0.680200 1.188500 0.873700
H296 H 0.182000 0.929100 -0.103400
H297 H 0.818000 1.070900 1.103400
H298 H 0.741000 0.959600 1.000800
H299 H 0.319800 0.811500 0.126300
H300 H 0.865000 0.981000 0.864000
H301 H 0.958000 0.614000 1.077200
H302 H 0.104600 0.741200 0.147400
H303 H 0.875100 0.623900 1.148300
H304 H 0.182000 0.851400 0.256200
H305 H 0.826500 0.591300 1.050800
H306 H 0.787400 0.722200 0.896800
H307 H -0.134000 0.921400 0.142200
H308 H 0.849600 0.812600 0.913500
H309 H 0.214300 0.640400 0.056700
H310 H 0.185200 0.589700 -0.034600
H311 H 0.094300 0.653800 -0.005000
H312 H 0.922700 0.726800 0.915800
H313 H 0.076200 0.758600 -0.172800
H314 H 0.153600 0.685600 -0.205000
H315 H 0.189600 0.783800 -0.209000
H316 H 0.650700 0.732200 1.036800
H317 H 0.415800 0.749100 -0.104700
H318 H 0.393600 0.650500 -0.086400
H319 H 0.430400 0.714400 -0.005600
H320 H 0.703600 0.762900 1.134100
H321 H 0.566100 0.989800 0.105700
H322 H 0.562800 0.905800 0.164300
H323 H 0.611600 0.993100 0.209500
H324 H 0.689700 0.829300 1.053900
H325 H 0.458100 0.978400 0.338100
H326 H 0.393800 0.895400 0.294500
H327 H 0.323400 0.979300 0.309900
H328 H 1.173000 1.101300 1.275700
H329 H 0.320400 1.131600 0.186200
H330 H 0.405700 1.133800 0.116300
H331 H 0.453400 1.142100 0.219500
H332 H 1.056500 1.126000 1.214000
H333 H 0.074400 0.913500 0.426200
H334 H 0.103900 1.010000 0.455900
H335 H 0.186900 0.957500 0.404000
H336 H 1.078100 1.153200 1.315700
H337 H -0.158300 0.973500 0.328200
H338 H -0.163100 1.051600 0.260600
H339 H -0.123900 1.067400 0.364000
H340 H 0.876100 1.067400 1.364000
H341 H 0.078100 1.153200 0.315700
H342 H 0.056500 1.126000 0.214000
H343 H 0.173000 1.101300 0.275700
H344 H 0.836900 1.051600 1.260600
H345 H -0.310300 0.829300 0.053900
H346 H -0.296400 0.762900 0.134100
H347 H -0.349300 0.732200 0.036800
H348 H 0.841700 0.973500 1.328200
H349 H -0.077300 0.726800 -0.084200
H350 H -0.150400 0.812600 -0.086500
H351 H -0.212600 0.722200 -0.103200
H352 H 1.186900 0.957500 1.404000
H353 H -0.173500 0.591300 0.050800
H354 H -0.124900 0.623900 0.148300
H355 H -0.042000 0.614000 0.077200
H356 H 0.375100 0.876100 0.648300
H357 H -0.135000 0.981000 -0.136000
H358 H 1.103900 1.010000 1.455900
H359 H 1.074400 0.913500 1.426200
H360 H 1.453400 1.142100 1.219500
H361 H 1.405700 1.133800 1.116300
H362 H 1.320400 1.131600 1.186200
H363 H 1.323400 0.979300 1.309900
H364 H 1.393800 0.895400 1.294500
H365 H -0.259000 0.959600 0.000800
H366 H 1.458100 0.978400 1.338100
H367 H -0.182000 1.070900 0.103400
H368 H 1.611600 0.993100 1.209500
H369 H 1.562800 0.905800 1.164300
H370 H -0.319800 1.188500 -0.126300
H371 H 1.566100 0.989800 1.105700
H372 H 1.430400 0.714400 0.994400
H373 H -0.104600 1.258800 -0.147400
H374 H 1.393600 0.650500 0.913600
H375 H -0.182000 1.148600 -0.256200
H376 H 1.415800 0.749100 0.895300
H377 H 1.189600 0.783800 0.791000
H378 H 0.134000 1.078600 -0.142200
H379 H 1.153600 0.685600 0.795000
H380 H -0.214300 1.359600 -0.056700
H381 H -0.185200 1.410300 0.034600
H382 H -0.094300 1.346200 0.005000
H383 H 1.076200 0.758600 0.827200
H384 H -0.076200 1.241400 0.172800
H385 H -0.153600 1.314400 0.205000
H386 H -0.189600 1.216200 0.209000
H387 H 1.094300 0.653800 0.995000
H388 H -0.415800 1.250900 0.104700
H389 H -0.393600 1.349500 0.086400
H390 H -0.430400 1.285600 0.005600
H391 H 1.185200 0.589700 0.965400
H392 H -0.566100 1.010200 -0.105700
H393 H -0.562800 1.094200 -0.164300
H394 H -0.611600 1.006900 -0.209500
H395 H 1.214300 0.640400 1.056700
H396 H -0.458100 1.021600 -0.338100
H397 H -0.393800 1.104600 -0.294500
H398 H -0.323400 1.020700 -0.309900
H399 H 0.866000 0.921400 1.142200
H400 H -0.320400 0.868400 -0.186200
H401 H -0.405700 0.866200 -0.116300
H402 H -0.453400 0.857900 -0.219500
H403 H 1.182000 0.851400 1.256200
H404 H -0.074400 1.086500 -0.426200
H405 H -0.103900 0.990000 -0.455900
H406 H -0.186900 1.042500 -0.404000
H407 H 1.104600 0.741200 1.147400
H408 H 0.158300 1.026500 -0.328200
H409 H 0.163100 0.948400 -0.260600
H410 H 0.123900 0.932600 -0.364000
H411 H 1.319800 0.811500 1.126300
H412 H -0.078100 0.846800 -0.315700
H413 H -0.056500 0.874000 -0.214000
H414 H -0.173000 0.898700 -0.275700
H415 H 1.182000 0.929100 0.896600
H416 H 0.310300 1.170700 -0.053900
H417 H 0.296400 1.237100 -0.134100
H418 H 0.349300 1.267800 -0.036800
H419 H 1.259000 1.040400 0.999200
H420 H 0.077300 1.273200 0.084200
H421 H 0.150400 1.187400 0.086500
H422 H 0.212600 1.277800 0.103200
H423 H 1.135000 1.019000 1.136000
H424 H 0.173500 1.408700 -0.050800
H425 H 0.124900 1.376100 -0.148300
H426 H 0.042000 1.386000 -0.077200
H427 H 0.326500 0.908700 0.550800
H428 H 0.135000 1.019000 1.136000
H429 H 0.189700 0.670700 0.553900
H430 H 1.042000 1.386000 -0.077200
H431 H 1.124900 1.376100 -0.148300
H432 H 1.173500 1.408700 -0.050800
H433 H 1.212600 1.277800 0.103200
H434 H 1.150400 1.187400 0.086500
H435 H 1.077300 1.273200 0.084200
H436 H 0.259000 1.040400 0.999200
H437 H 1.349300 1.267800 -0.036800
H438 H 0.182000 0.929100 0.896600
H439 H 1.296400 1.237100 -0.134100
H440 H 1.310300 1.170700 -0.053900
H441 H 0.319800 0.811500 1.126300
H442 H 0.827000 0.898700 -0.275700
H443 H 0.943500 0.874000 -0.214000
H444 H 0.104600 0.741200 1.147400
H445 H 0.921900 0.846800 -0.315700
H446 H 0.182000 0.851400 1.256200
H447 H 1.123900 0.932600 -0.364000
H448 H 1.163100 0.948400 -0.260600
H449 H -0.134000 0.921400 1.142200
H450 H 1.158300 1.026500 -0.328200
H451 H 0.214300 0.640400 1.056700
H452 H 0.185200 0.589700 0.965400
H453 H 0.094300 0.653800 0.995000
H454 H 0.813100 1.042500 -0.404000
H455 H 0.076200 0.758600 0.827200
H456 H 0.153600 0.685600 0.795000
H457 H 0.189600 0.783800 0.791000
H458 H 0.896100 0.990000 -0.455900
H459 H 0.415800 0.749100 0.895300
H460 H 0.393600 0.650500 0.913600
H461 H 0.430400 0.714400 0.994400
H462 H 0.925600 1.086500 -0.426200
H463 H 0.566100 0.989800 1.105700
H464 H 0.562800 0.905800 1.164300
H465 H 0.611600 0.993100 1.209500
H466 H 0.546600 0.857900 -0.219500
H467 H 0.458100 0.978400 1.338100
H468 H 0.393800 0.895400 1.294500
H469 H 0.323400 0.979300 1.309900
H470 H 0.594300 0.866200 -0.116300
H471 H 0.320400 1.131600 1.186200
H472 H 0.405700 1.133800 1.116300
H473 H 0.453400 1.142100 1.219500
H474 H 0.679600 0.868400 -0.186200
H475 H 0.074400 0.913500 1.426200
H476 H 0.103900 1.010000 1.455900
H477 H 0.186900 0.957500 1.404000
H478 H 0.676600 1.020700 -0.309900
H479 H -0.158300 0.973500 1.328200
H480 H -0.163100 1.051600 1.260600
H481 H -0.123900 1.067400 1.364000
H482 H 0.606200 1.104600 -0.294500
H483 H 0.078100 1.153200 1.315700
H484 H 0.056500 1.126000 1.214000
H485 H 0.173000 1.101300 1.275700
H486 H 0.541900 1.021600 -0.338100
H487 H -0.310300 0.829300 1.053900
H488 H -0.296400 0.762900 1.134100
H489 H -0.349300 0.732200 1.036800
H490 H 0.388400 1.006900 -0.209500
H491 H -0.077300 0.726800 0.915800
H492 H -0.150400 0.812600 0.913500
H493 H -0.212600 0.722200 0.896800
H494 H 0.437200 1.094200 -0.164300
H495 H -0.173500 0.591300 1.050800
H496 H -0.124900 0.623900 1.148300
H497 H -0.042000 0.614000 1.077200
H498 H 0.433900 1.010200 -0.105700
H499 H -0.135000 0.981000 0.864000
H500 H 0.569600 1.285600 0.005600
H501 H 0.606400 1.349500 0.086400
H502 H 0.584200 1.250900 0.104700
H503 H 0.810400 1.216200 0.209000
H504 H 0.846400 1.314400 0.205000
H505 H 0.923800 1.241400 0.172800
H506 H 0.905700 1.346200 0.005000
H507 H -0.259000 0.959600 1.000800
H508 H 0.814800 1.410300 0.034600
H509 H -0.182000 1.070900 1.103400
H510 H 0.785700 1.359600 -0.056700
H511 H 1.134000 1.078600 -0.142200
H512 H -0.319800 1.188500 0.873700
H513 H 0.818000 1.148600 -0.256200
H514 H 0.895400 1.258800 -0.147400
H515 H -0.104600 1.258800 0.852600
H516 H 0.680200 1.188500 -0.126300
H517 H -0.182000 1.148600 0.743800
H518 H 0.818000 1.070900 0.103400
H519 H 0.741000 0.959600 0.000800
H520 H 0.134000 1.078600 0.857800
H521 H 0.865000 0.981000 -0.136000
H522 H -0.214300 1.359600 0.943300
H523 H -0.185200 1.410300 1.034600
H524 H -0.094300 1.346200 1.005000
H525 H 0.203600 0.737100 0.634100
H526 H -0.076200 1.241400 1.172800
H527 H -0.153600 1.314400 1.205000
H528 H -0.189600 1.216200 1.209000
H529 H 0.958000 0.614000 0.077200
H530 H -0.415800 1.250900 1.104700
H531 H -0.393600 1.349500 1.086400
H532 H -0.430400 1.285600 1.005600
H533 H 0.875100 0.623900 0.148300
H534 H -0.566100 1.010200 0.894300
H535 H -0.562800 1.094200 0.835700
H536 H -0.611600 1.006900 0.790500
H537 H 0.826500 0.591300 0.050800
H538 H -0.458100 1.021600 0.661900
H539 H -0.393800 1.104600 0.705500
H540 H -0.323400 1.020700 0.690100
H541 H 0.787400 0.722200 -0.103200
H542 H -0.320400 0.868400 0.813800
H543 H -0.405700 0.866200 0.883700
H544 H -0.453400 0.857900 0.780500
H545 H 0.849600 0.812600 -0.086500
H546 H -0.074400 1.086500 0.573800
H547 H -0.103900 0.990000 0.544100
H548 H -0.186900 1.042500 0.596000
H549 H 0.922700 0.726800 -0.084200
H550 H 0.158300 1.026500 0.671800
H551 H 0.163100 0.948400 0.739400
H552 H 0.123900 0.932600 0.636000
H553 H 0.650700 0.732200 0.036800
H554 H -0.078100 0.846800 0.684300
H555 H -0.056500 0.874000 0.786000
H556 H -0.173000 0.898700 0.724300
H557 H 0.703600 0.762900 0.134100
H558 H 0.310300 1.170700 0.946100
H559 H 0.296400 1.237100 0.865900
H560 H 0.349300 1.267800 0.963200
H561 H 0.689700 0.829300 0.053900
H562 H 0.077300 1.273200 1.084200
H563 H 0.150400 1.187400 1.086500
H564 H 0.212600 1.277800 1.103200
H565 H 1.173000 1.101300 0.275700
H566 H 0.173500 1.408700 0.949200
H567 H 0.124900 1.376100 0.851700
H568 H 0.042000 1.386000 0.922800
H569 H 0.287400 0.777800 0.396800
H570 H 1.135000 0.019000 0.136000
H571 H 1.056500 1.126000 0.214000
H572 H 1.078100 1.153200 0.315700
H573 H 0.876100 1.067400 0.364000
H574 H 0.836900 1.051600 0.260600
H575 H 0.841700 0.973500 0.328200
H576 H 1.186900 0.957500 0.404000
H577 H 1.103900 1.010000 0.455900
H578 H 1.259000 0.040400 -0.000800
H579 H 1.074400 0.913500 0.426200
H580 H 1.182000 -0.070900 -0.103400
H581 H 1.453400 1.142100 0.219500
H582 H 1.405700 1.133800 0.116300
H583 H 1.319800 -0.188500 0.126300
H584 H 1.320400 1.131600 0.186200
H585 H 1.323400 0.979300 0.309900
H586 H 1.104600 -0.258800 0.147400
H587 H 1.393800 0.895400 0.294500
H588 H 1.182000 -0.148600 0.256200
H589 H 1.458100 0.978400 0.338100
H590 H 1.611600 0.993100 0.209500
H591 H 0.866000 -0.078600 0.142200
H592 H 1.562800 0.905800 0.164300
H593 H 1.214300 -0.359600 0.056700
H594 H 1.185200 -0.410300 -0.034600
H595 H 1.094300 -0.346200 -0.005000
H596 H 1.566100 0.989800 0.105700
H597 H 1.076200 -0.241400 -0.172800
H598 H 1.153600 -0.314400 -0.205000
H599 H 1.189600 -0.216200 -0.209000
H600 H 1.430400 0.714400 -0.005600
H601 H 1.415800 -0.250900 -0.104700
H602 H 1.393600 -0.349500 -0.086400
H603 H 1.430400 -0.285600 -0.005600
H604 H 1.393600 0.650500 -0.086400
H605 H 1.566100 -0.010200 0.105700
H606 H 1.562800 -0.094200 0.164300
H607 H 1.611600 -0.006900 0.209500
H608 H 1.415800 0.749100 -0.104700
H609 H 1.458100 -0.021600 0.338100
H610 H 1.393800 -0.104600 0.294500
H611 H 1.323400 -0.020700 0.309900
H612 H 1.189600 0.783800 -0.209000
H613 H 1.320400 0.131600 0.186200
H614 H 1.405700 0.133800 0.116300
H615 H 1.453400 0.142100 0.219500
H616 H 1.153600 0.685600 -0.205000
H617 H 1.074400 -0.086500 0.426200
H618 H 1.103900 0.010000 0.455900
H619 H 1.186900 -0.042500 0.404000
H620 H 1.076200 0.758600 -0.172800
H621 H 0.841700 -0.026500 0.328200
H622 H 0.836900 0.051600 0.260600
H623 H 0.876100 0.067400 0.364000
H624 H 1.094300 0.653800 -0.005000
H625 H 1.078100 0.153200 0.315700
H626 H 1.056500 0.126000 0.214000
H627 H 1.173000 0.101300 0.275700
H628 H 1.185200 0.589700 -0.034600
H629 H 0.689700 -0.170700 0.053900
H630 H 0.703600 -0.237100 0.134100
H631 H 0.650700 -0.267800 0.036800
H632 H 1.214300 0.640400 0.056700
H633 H 0.922700 -0.273200 -0.084200
H634 H 0.849600 -0.187400 -0.086500
H635 H 0.787400 -0.277800 -0.103200
H636 H 0.866000 0.921400 0.142200
H637 H 0.826500 -0.408700 0.050800
H638 H 0.875100 -0.376100 0.148300
H639 H 0.958000 -0.386000 0.077200
H640 H 0.349600 0.687400 0.413500
H641 H 0.865000 -0.019000 -0.136000
H642 H 1.182000 0.851400 0.256200
H643 H 1.104600 0.741200 0.147400
H644 H 1.319800 0.811500 0.126300
H645 H 1.182000 0.929100 -0.103400
H646 H 1.259000 1.040400 -0.000800
H647 H 1.135000 1.019000 0.136000
H648 H 0.150700 0.767800 0.536800
H649 H 0.741000 -0.040400 0.000800
H650 H 1.042000 0.386000 0.922800
H651 H 0.818000 0.070900 0.103400
H652 H 1.124900 0.376100 0.851700
H653 H 1.173500 0.408700 0.949200
H654 H 0.680200 0.188500 -0.126300
H655 H 1.212600 0.277800 1.103200
H656 H 1.150400 0.187400 1.086500
H657 H 0.895400 0.258800 -0.147400
H658 H 1.077300 0.273200 1.084200
H659 H 0.818000 0.148600 -0.256200
H660 H 1.349300 0.267800 0.963200
H661 H 1.296400 0.237100 0.865900
H662 H 1.134000 0.078600 -0.142200
H663 H 1.310300 0.170700 0.946100
H664 H 0.785700 0.359600 -0.056700
H665 H 0.814800 0.410300 0.034600
H666 H 0.905700 0.346200 0.005000
H667 H 0.827000 -0.101300 0.724300
H668 H 0.923800 0.241400 0.172800
H669 H 0.846400 0.314400 0.205000
H670 H 0.810400 0.216200 0.209000
H671 H 0.943500 -0.126000 0.786000
H672 H 0.584200 0.250900 0.104700
H673 H 0.606400 0.349500 0.086400
H674 H 0.569600 0.285600 0.005600
H675 H 0.921900 -0.153200 0.684300
H676 H 0.433900 0.010200 -0.105700
H677 H 0.437200 0.094200 -0.164300
H678 H 0.388400 0.006900 -0.209500
H679 H 1.123900 -0.067400 0.636000
H680 H 0.541900 0.021600 -0.338100
H681 H 0.606200 0.104600 -0.294500
H682 H 0.676600 0.020700 -0.309900
H683 H 1.163100 -0.051600 0.739400
H684 H 0.679600 -0.131600 -0.186200
H685 H 0.594300 -0.133800 -0.116300
H686 H 0.546600 -0.142100 -0.219500
H687 H 1.158300 0.026500 0.671800
H688 H 0.925600 0.086500 -0.426200
H689 H 0.896100 -0.010000 -0.455900
H690 H 0.813100 0.042500 -0.404000
H691 H 0.813100 0.042500 0.596000
H692 H 1.158300 0.026500 -0.328200
H693 H 1.163100 -0.051600 -0.260600
H694 H 1.123900 -0.067400 -0.364000
H695 H 0.896100 -0.010000 0.544100
H696 H 0.921900 -0.153200 -0.315700
H697 H 0.943500 -0.126000 -0.214000
H698 H 0.827000 -0.101300 -0.275700
H699 H 0.925600 0.086500 0.573800
H700 H 1.310300 0.170700 -0.053900
H701 H 1.296400 0.237100 -0.134100
H702 H 1.349300 0.267800 -0.036800
H703 H 0.546600 -0.142100 0.780500
H704 H 1.077300 0.273200 0.084200
H705 H 1.150400 0.187400 0.086500
H706 H 1.212600 0.277800 0.103200
H707 H 0.594300 -0.133800 0.883700
H708 H 1.173500 0.408700 -0.050800
H709 H 1.124900 0.376100 -0.148300
H710 H 1.042000 0.386000 -0.077200
H711 H 0.422700 0.773200 0.415800
H712 H 1.135000 0.019000 1.136000
H713 H 0.679600 -0.131600 0.813800
H714 H 0.676600 0.020700 0.690100
H715 H 0.606200 0.104600 0.705500
H716 H 0.541900 0.021600 0.661900
H717 H 0.388400 0.006900 0.790500
H718 H 0.437200 0.094200 0.835700
H719 H 0.433900 0.010200 0.894300
H720 H 1.259000 0.040400 0.999200
H721 H 0.569600 0.285600 1.005600
H722 H 1.182000 -0.070900 0.896600
H723 H 0.606400 0.349500 1.086400
H724 H 0.584200 0.250900 1.104700
H725 H 1.319800 -0.188500 1.126300
H726 H 0.810400 0.216200 1.209000
H727 H 0.846400 0.314400 1.205000
H728 H 1.104600 -0.258800 1.147400
H729 H 0.923800 0.241400 1.172800
H730 H 1.182000 -0.148600 1.256200
H731 H 0.905700 0.346200 1.005000
H732 H 0.814800 0.410300 1.034600
H733 H 0.866000 -0.078600 1.142200
H734 H 0.785700 0.359600 0.943300
H735 H 1.214300 -0.359600 1.056700
H736 H 1.185200 -0.410300 0.965400
H737 H 1.094300 -0.346200 0.995000
H738 H 1.134000 0.078600 0.857800
H739 H 1.076200 -0.241400 0.827200
H740 H 1.153600 -0.314400 0.795000
H741 H 1.189600 -0.216200 0.791000
H742 H 0.818000 0.148600 0.743800
H743 H 1.415800 -0.250900 0.895300
H744 H 1.393600 -0.349500 0.913600
H745 H 1.430400 -0.285600 0.994400
H746 H 0.895400 0.258800 0.852600
H747 H 1.566100 -0.010200 1.105700
H748 H 1.562800 -0.094200 1.164300
H749 H 1.611600 -0.006900 1.209500
H750 H 0.680200 0.188500 0.873700
H751 H 1.458100 -0.021600 1.338100
H752 H 1.393800 -0.104600 1.294500
H753 H 1.323400 -0.020700 1.309900
H754 H 0.818000 0.070900 1.103400
H755 H 1.320400 0.131600 1.186200
H756 H 1.405700 0.133800 1.116300
H757 H 1.453400 0.142100 1.219500
H758 H 0.741000 -0.040400 1.000800
H759 H 1.074400 -0.086500 1.426200
H760 H 1.103900 0.010000 1.455900
H761 H 1.186900 -0.042500 1.404000
H762 H 0.865000 -0.019000 0.864000
H763 H 0.841700 -0.026500 1.328200
H764 H 0.836900 0.051600 1.260600
H765 H 0.876100 0.067400 1.364000
H766 H 0.958000 -0.386000 1.077200
H767 H 1.078100 0.153200 1.315700
H768 H 1.056500 0.126000 1.214000
H769 H 1.173000 0.101300 1.275700
H770 H 0.875100 -0.376100 1.148300
H771 H 0.689700 -0.170700 1.053900
H772 H 0.703600 -0.237100 1.134100
H773 H 0.650700 -0.267800 1.036800
H774 H 0.826500 -0.408700 1.050800
H775 H 0.922700 -0.273200 0.915800
H776 H 0.849600 -0.187400 0.913500
H777 H 0.787400 -0.277800 0.896800
H778 H 0.578100 0.346800 0.815700
C779 C 0.852900 -0.248000 0.929830
C780 C 0.706590 -0.230150 1.071220
C781 C 1.091400 0.108870 1.273600
C782 C 0.352900 0.748000 0.429830
C783 C 0.877800 0.027160 1.315410
C784 C 0.591400 0.391130 0.773600
C785 C 0.377800 0.472840 0.815410
C786 C 0.309360 -0.055420 0.094270
C787 C 0.607700 0.532820 0.909960
C788 C 0.262640 -0.017420 0.011730
C789 C 0.690640 0.055420 0.905730
C790 C 0.737360 0.017420 0.988270
C791 C 1.107700 -0.032820 1.409960
C792 C 0.780210 0.081190 1.047160
C793 C 1.395800 0.115100 1.175390
C794 C 0.763440 0.162540 1.004490
C795 C 0.706450 0.144340 0.917810
C796 C 1.394600 -0.042050 1.294610
C797 C 1.043310 0.188000 0.880910
C798 C 0.931770 0.210790 0.839000
C799 C 1.554800 -0.032000 1.163400
C800 C 0.889380 0.147260 0.778760
C801 C 1.386600 -0.291100 0.934900
C802 C 0.971950 0.081440 0.779950
C803 C 1.065870 0.108740 0.843130
C804 C 1.154100 -0.258790 0.824360
C805 C 0.824900 0.356380 1.004440
C806 C 1.175100 -0.356380 0.995560
C807 C 0.934130 -0.108740 1.156870
C808 C 1.028050 -0.081440 1.220050
C809 C 0.845900 0.258790 1.175640
C810 C 1.110620 -0.147260 1.221240
C811 C 1.068230 -0.210790 1.161000
C812 C 0.956690 -0.188000 1.119090
C813 C 0.613400 0.291100 1.065100
C814 C 1.293550 -0.144340 1.082190
C815 C 1.236560 -0.162540 0.995510
C816 C 1.219790 -0.081190 0.952840
C817 C 0.445200 0.032000 0.836600
C818 C 1.262640 -0.017420 1.011730
C819 C 1.309360 -0.055420 1.094270
C820 C 0.219790 -0.081190 -0.047160
C821 C 0.605400 0.042050 0.705390
C822 C 0.236560 -0.162540 -0.004490
C823 C 0.895800 0.384900 0.675390
C824 C 0.293550 -0.144340 0.082190
C825 C 0.604200 -0.115100 0.824610
C826 C -0.043310 -0.188000 0.119090
C827 C 1.118800 0.370590 -0.085770
C828 C 1.147100 0.248000 0.070170
C829 C 0.892300 0.032820 0.590040
C830 C 1.293410 0.230150 -0.071220
C831 C 0.908600 -0.108870 -0.273600
C832 C 1.122200 -0.027160 -0.315410
C833 C 1.122200 -0.027160 0.684590
C834 C 0.892300 0.032820 -0.409960
C835 C 0.604200 -0.115100 -0.175390
C836 C 0.605400 0.042050 -0.294610
C837 C 0.908600 -0.108870 0.726400
C838 C 0.445200 0.032000 -0.163400
C839 C 0.613400 0.291100 0.065100
C840 C 0.845900 0.258790 0.175640
C841 C 1.293410 0.230150 0.928780
C842 C 0.824900 0.356380 0.004440
C843 C 1.065870 0.108740 -0.156870
C844 C 0.971950 0.081440 -0.220050
C845 C 1.147100 0.248000 1.070170
C846 C 0.889380 0.147260 -0.221240
C847 C 0.931770 0.210790 -0.161000
C848 C 1.043310 0.188000 -0.119090
C849 C 1.118800 0.370590 0.914230
C850 C 0.706450 0.144340 -0.082190
C851 C 0.763440 0.162540 0.004490
C852 C 0.780210 0.081190 0.047160
C853 C 0.737360 0.017420 -0.011730
C854 C 0.690640 0.055420 -0.094270
C855 C 0.068230 -0.210790 0.161000
C856 C 0.894600 0.542050 0.794610
C857 C 0.110620 -0.147260 0.221240
C858 C 0.028050 -0.081440 0.220050
C859 C -0.065870 -0.108740 0.156870
C860 C 1.309360 0.944580 0.094270
C861 C 1.262640 0.982580 0.011730
C862 C 1.054800 0.532000 0.663400
C863 C 1.219790 0.918810 -0.047160
C864 C 0.175100 -0.356380 -0.004440
C865 C 1.236560 0.837460 -0.004490
C866 C 1.293550 0.855660 0.082190
C867 C 0.154100 -0.258790 -0.175640
C868 C 0.956690 0.812000 0.119090
C869 C 1.068230 0.789210 0.161000
C870 C 0.386600 -0.291100 -0.065100
C871 C 1.110620 0.852740 0.221240
C872 C 0.886600 0.791100 0.434900
C873 C 1.028050 0.918560 0.220050
C874 C 0.934130 0.891260 0.156870
C875 C 0.881200 -0.370590 0.085770
C876 C 1.175100 0.643620 -0.004440
C877 C 0.852900 -0.248000 -0.070170
C878 C 0.706590 -0.230150 0.071220
C879 C 1.091400 0.108870 0.273600
C880 C 1.154100 0.741210 -0.175640
C881 C 0.877800 0.027160 0.315410
C882 C 1.107700 -0.032820 0.409960
C883 C 1.395800 0.115100 0.175390
C884 C 1.386600 0.708900 -0.065100
C885 C 1.394600 -0.042050 0.294610
C886 C 1.554800 -0.032000 0.163400
C887 C 1.386600 -0.291100 -0.065100
C888 C 1.554800 0.968000 0.163400
C889 C 1.154100 -0.258790 -0.175640
C890 C 1.175100 -0.356380 -0.004440
C891 C 0.934130 -0.108740 0.156870
C892 C 1.394600 0.957950 0.294610
C893 C 1.028050 -0.081440 0.220050
C894 C 1.110620 -0.147260 0.221240
C895 C 1.068230 -0.210790 0.161000
C896 C 1.395800 1.115100 0.175390
C897 C 0.956690 -0.188000 0.119090
C898 C 1.293550 -0.144340 0.082190
C899 C 1.236560 -0.162540 -0.004490
C900 C 1.107700 0.967180 0.409960
C901 C 1.219790 -0.081190 -0.047160
C902 C 1.262640 -0.017420 0.011730
C903 C 1.309360 -0.055420 0.094270
C904 C 0.877800 1.027160 0.315410
C905 C 0.554800 -0.032000 0.163400
C906 C 0.394600 -0.042050 0.294610
C907 C 0.395800 0.115100 0.175390
C908 C 1.091400 1.108870 0.273600
C909 C 0.654100 0.758790 0.324360
C910 C 0.107700 -0.032820 0.409960
C911 C 0.118800 1.370590 0.914230
C912 C 0.706590 0.769850 0.071220
C913 C 0.147100 1.248000 1.070170
C914 C 0.293410 1.230150 0.928780
C915 C -0.091400 0.891130 0.726400
C916 C 0.852900 0.752000 -0.070170
C917 C 0.122200 0.972840 0.684590
C918 C -0.107700 1.032820 0.590040
C919 C -0.395800 0.884900 0.824610
C920 C 0.881200 0.629410 0.085770
C921 C -0.394600 1.042050 0.705390
C922 C -0.554800 1.032000 0.836600
C923 C -0.386600 1.291100 1.065100
C924 C -0.154100 1.258790 1.175640
C925 C -0.175100 1.356380 1.004440
C926 C -0.122200 0.027160 0.315410
C927 C 0.091400 0.108870 0.273600
C928 C 0.675100 0.856380 0.495560
C929 C -0.293410 -0.230150 0.071220
C930 C 0.434130 0.608740 0.656870
C931 C 0.690640 1.055420 -0.094270
C932 C 0.737360 1.017420 -0.011730
C933 C 0.065870 1.108740 0.843130
C934 C 0.780210 1.081190 0.047160
C935 C -0.028050 1.081440 0.779950
C936 C 0.763440 1.162540 0.004490
C937 C 0.706450 1.144340 -0.082190
C938 C -0.110620 1.147260 0.778760
C939 C 1.043310 1.188000 -0.119090
C940 C 0.931770 1.210790 -0.161000
C941 C -0.068230 1.210790 0.839000
C942 C 0.889380 1.147260 -0.221240
C943 C 0.043310 1.188000 0.880910
C944 C 0.971950 1.081440 -0.220050
C945 C 1.065870 1.108740 -0.156870
C946 C -0.293550 1.144340 0.917810
C947 C 0.824900 1.356380 0.004440
C948 C -0.236560 1.162540 1.004490
C949 C -0.219790 1.081190 1.047160
C950 C -0.262640 1.017420 0.988270
C951 C 0.845900 1.258790 0.175640
C952 C -0.309360 1.055420 0.905730
C953 C 0.528050 0.581440 0.720050
C954 C -0.147100 -0.248000 -0.070170
C955 C 0.613400 1.291100 0.065100
C956 C 0.610620 0.647260 0.721240
C957 C -0.118800 -0.370590 0.085770
C958 C 0.568230 0.710790 0.661000
C959 C 0.445200 1.032000 -0.163400
C960 C 0.381200 0.870590 0.585770
C961 C -0.118800 0.629410 1.085770
C962 C -0.147100 0.752000 0.929830
C963 C 0.605400 1.042050 -0.294610
C964 C -0.293410 0.769850 1.071220
C965 C 0.091400 1.108870 1.273600
C966 C -0.122200 1.027160 1.315410
C967 C 0.604200 0.884900 -0.175390
C968 C 0.107700 0.967180 1.409960
C969 C 0.395800 1.115100 1.175390
C970 C 0.394600 0.957950 1.294610
C971 C 0.892300 1.032820 -0.409960
C972 C 0.554800 0.968000 1.163400
C973 C 0.386600 0.708900 0.934900
C974 C 0.154100 0.741210 0.824360
C975 C 1.122200 0.972840 -0.315410
C976 C 0.175100 0.643620 0.995560
C977 C -0.065870 0.891260 1.156870
C978 C 0.028050 0.918560 1.220050
C979 C 0.908600 0.891130 -0.273600
C980 C 0.110620 0.852740 1.221240
C981 C 0.068230 0.789210 1.161000
C982 C -0.043310 0.812000 1.119090
C983 C 1.293410 1.230150 -0.071220
C984 C 0.293550 0.855660 1.082190
C985 C 0.236560 0.837460 0.995510
C986 C 0.219790 0.918810 0.952840
C987 C 1.147100 1.248000 0.070170
C988 C 0.262640 0.982580 1.011730
C989 C 0.309360 0.944580 1.094270
C990 C 0.456690 0.688000 0.619090
C991 C 1.118800 1.370590 -0.085770
C992 C 0.793550 0.644340 0.582190
C993 C 0.736560 0.662540 0.495510
C994 C 0.719790 0.581190 0.452840
C995 C 0.762640 0.517420 0.511730
C996 C 0.118800 1.370590 -0.085770
C997 C 0.809360 0.555420 0.594270
C998 C -0.309360 0.055420 -0.094270
C999 C -0.262640 0.017420 -0.011730
C1000 C -0.219790 0.081190 0.047160
C1001 C 0.618800 0.129410 0.414230
C1002 C 1.309360 0.944580 1.094270
C1003 C 1.262640 0.982580 1.011730
C1004 C 0.147100 1.248000 0.070170
C1005 C 1.219790 0.918810 0.952840
C1006 C 0.293410 1.230150 -0.071220
C1007 C 1.236560 0.837460 0.995510
C1008 C 1.293550 0.855660 1.082190
C1009 C -0.091400 0.891130 -0.273600
C1010 C 0.956690 0.812000 1.119090
C1011 C 1.068230 0.789210 1.161000
C1012 C 0.122200 0.972840 -0.315410
C1013 C 1.110620 0.852740 1.221240
C1014 C -0.107700 1.032820 -0.409960
C1015 C 1.028050 0.918560 1.220050
C1016 C 0.934130 0.891260 1.156870
C1017 C -0.395800 0.884900 -0.175390
C1018 C 1.175100 0.643620 0.995560
C1019 C -0.394600 1.042050 -0.294610
C1020 C -0.554800 1.032000 -0.163400
C1021 C -0.386600 1.291100 0.065100
C1022 C 1.154100 0.741210 0.824360
C1023 C -0.154100 1.258790 0.175640
C1024 C -0.175100 1.356380 0.004440
C1025 C 0.065870 1.108740 -0.156870
C1026 C 1.386600 0.708900 0.934900
C1027 C -0.028050 1.081440 -0.220050
C1028 C -0.110620 1.147260 -0.221240
C1029 C -0.068230 1.210790 -0.161000
C1030 C 1.554800 0.968000 1.163400
C1031 C 0.043310 1.188000 -0.119090
C1032 C -0.293550 1.144340 -0.082190
C1033 C -0.236560 1.162540 0.004490
C1034 C 1.394600 0.957950 1.294610
C1035 C -0.219790 1.081190 0.047160
C1036 C -0.262640 1.017420 -0.011730
C1037 C -0.309360 1.055420 -0.094270
C1038 C 1.395800 1.115100 1.175390
C1039 C -0.236560 0.162540 0.004490
C1040 C -0.293550 0.144340 -0.082190
C1041 C 0.043310 0.188000 -0.119090
C1042 C 1.107700 0.967180 1.409960
C1043 C 0.647100 0.252000 0.570170
C1044 C -0.068230 0.210790 -0.161000
C1045 C -0.118800 0.629410 0.085770
C1046 C 0.877800 1.027160 1.315410
C1047 C -0.147100 0.752000 -0.070170
C1048 C -0.293410 0.769850 0.071220
C1049 C 0.091400 1.108870 0.273600
C1050 C 1.091400 1.108870 1.273600
C1051 C -0.122200 1.027160 0.315410
C1052 C 0.107700 0.967180 0.409960
C1053 C 0.395800 1.115100 0.175390
C1054 C 0.706590 0.769850 1.071220
C1055 C 0.394600 0.957950 0.294610
C1056 C 0.554800 0.968000 0.163400
C1057 C 0.386600 0.708900 -0.065100
C1058 C 0.852900 0.752000 0.929830
C1059 C 0.154100 0.741210 -0.175640
C1060 C 0.175100 0.643620 -0.004440
C1061 C -0.065870 0.891260 0.156870
C1062 C 0.881200 0.629410 1.085770
C1063 C 0.028050 0.918560 0.220050
C1064 C 0.110620 0.852740 0.221240
C1065 C 0.068230 0.789210 0.161000
C1066 C 0.206590 0.730150 0.571220
C1067 C -0.043310 0.812000 0.119090
C1068 C -0.110620 0.147260 -0.221240
C1069 C -0.028050 0.081440 -0.220050
C1070 C 0.793410 0.269850 0.428780
C1071 C 0.065870 0.108740 -0.156870
C1072 C -0.175100 0.356380 0.004440
C1073 C 0.690640 1.055420 0.905730
C1074 C 0.737360 1.017420 0.988270
C1075 C 0.293550 0.855660 0.082190
C1076 C 0.780210 1.081190 1.047160
C1077 C 0.236560 0.837460 -0.004490
C1078 C 0.763440 1.162540 1.004490
C1079 C 0.706450 1.144340 0.917810
C1080 C 0.219790 0.918810 -0.047160
C1081 C 1.043310 1.188000 0.880910
C1082 C 0.931770 1.210790 0.839000
C1083 C 0.262640 0.982580 0.011730
C1084 C 0.889380 1.147260 0.778760
C1085 C 0.309360 0.944580 0.094270
C1086 C 0.971950 1.081440 0.779950
C1087 C 1.065870 1.108740 0.843130
C1088 C -0.154100 0.258790 0.175640
C1089 C 0.824900 1.356380 1.004440
C1090 C 0.408600 0.608870 0.226400
C1091 C -0.386600 0.291100 0.065100
C1092 C -0.554800 0.032000 -0.163400
C1093 C 0.845900 1.258790 1.175640
C1094 C -0.394600 0.042050 -0.294610
C1095 C 0.118800 0.370590 0.914230
C1096 C 0.147100 0.248000 1.070170
C1097 C 0.613400 1.291100 1.065100
C1098 C 0.293410 0.230150 0.928780
C1099 C -0.091400 -0.108870 0.726400
C1100 C 0.122200 -0.027160 0.684590
C1101 C 0.445200 1.032000 0.836600
C1102 C -0.107700 0.032820 0.590040
C1103 C -0.395800 -0.115100 0.824610
C1104 C -0.394600 0.042050 0.705390
C1105 C 0.605400 1.042050 0.705390
C1106 C -0.554800 0.032000 0.836600
C1107 C -0.386600 0.291100 1.065100
C1108 C -0.154100 0.258790 1.175640
C1109 C 0.604200 0.884900 0.824610
C1110 C -0.175100 0.356380 1.004440
C1111 C 0.065870 0.108740 0.843130
C1112 C -0.028050 0.081440 0.779950
C1113 C 0.892300 1.032820 0.590040
C1114 C -0.110620 0.147260 0.778760
C1115 C -0.068230 0.210790 0.839000
C1116 C 0.043310 0.188000 0.880910
C1117 C 1.122200 0.972840 0.684590
C1118 C -0.293550 0.144340 0.917810
C1119 C -0.236560 0.162540 1.004490
C1120 C -0.219790 0.081190 1.047160
C1121 C 0.908600 0.891130 0.726400
C1122 C -0.262640 0.017420 0.988270
C1123 C -0.309360 0.055420 0.905730
C1124 C 0.622200 0.527160 0.184590
C1125 C 1.293410 1.230150 0.928780
C1126 C -0.395800 -0.115100 -0.175390
C1127 C -0.107700 0.032820 -0.409960
C1128 C 0.122200 -0.027160 -0.315410
C1129 C 1.147100 1.248000 1.070170
C1130 C 0.392300 0.467180 0.090040
C1131 C -0.118800 -0.370590 1.085770
C1132 C -0.147100 -0.248000 0.929830
C1133 C 1.118800 1.370590 0.914230
C1134 C -0.293410 -0.230150 1.071220
C1135 C 0.091400 0.108870 1.273600
C1136 C -0.122200 0.027160 1.315410
C1137 C 0.107700 -0.032820 1.409960
C1138 C 0.395800 0.115100 1.175390
C1139 C -0.091400 -0.108870 -0.273600
C1140 C 0.293410 0.230150 -0.071220
C1141 C 0.147100 0.248000 0.070170
C1142 C 0.104200 0.615100 0.324610
C1143 C 0.118800 0.370590 -0.085770
C1144 C 0.190640 0.444580 0.405730
C1145 C 0.237360 0.482580 0.488270
C1146 C 0.394600 -0.042050 1.294610
C1147 C 0.280210 0.418810 0.547160
C1148 C 0.554800 -0.032000 1.163400
C1149 C 0.263440 0.337460 0.504490
C1150 C 0.206450 0.355660 0.417810
C1151 C 0.386600 -0.291100 0.934900
C1152 C 0.543310 0.312000 0.380910
C1153 C 0.431770 0.289210 0.339000
C1154 C 0.154100 -0.258790 0.824360
C1155 C 0.389380 0.352740 0.278760
C1156 C 0.175100 -0.356380 0.995560
C1157 C 0.471950 0.418560 0.279950
C1158 C 0.565870 0.391260 0.343130
C1159 C -0.065870 -0.108740 1.156870
C1160 C 0.324900 0.143620 0.504440
C1161 C 0.028050 -0.081440 1.220050
C1162 C 0.110620 -0.147260 1.221240
C1163 C 0.068230 -0.210790 1.161000
C1164 C 0.345900 0.241210 0.675640
C1165 C -0.043310 -0.188000 1.119090
C1166 C 0.293550 -0.144340 1.082190
C1167 C 0.236560 -0.162540 0.995510
C1168 C 0.113400 0.208900 0.565100
C1169 C 0.219790 -0.081190 0.952840
C1170 C 0.262640 -0.017420 1.011730
C1171 C 0.309360 -0.055420 1.094270
C1172 C -0.054800 0.468000 0.336600
C1173 C 0.105400 0.457950 0.205390
C1174 C 0.881200 -0.370590 1.085770
O1175 O 0.985300 -0.020700 0.980900
O1176 O 0.014700 0.020700 1.019100
O1177 O 1.014700 0.020700 1.019100
O1178 O 1.014700 1.020700 0.019100
O1179 O 0.485300 0.520700 0.480900
O1180 O 0.985300 -0.020700 -0.019100
O1181 O 1.014700 0.020700 0.019100
O1182 O 0.985300 0.979300 -0.019100
O1183 O -0.014700 0.979300 0.980900
O1184 O 0.014700 1.020700 1.019100
O1185 O 0.014700 0.020700 0.019100
O1186 O 0.514700 0.479300 0.519100
O1187 O -0.014700 -0.020700 -0.019100
O1188 O -0.014700 -0.020700 0.980900
O1189 O 1.014700 1.020700 1.019100
O1190 O -0.014700 0.979300 -0.019100
O1191 O 0.985300 0.979300 0.980900
O1192 O 0.014700 1.020700 0.019100
Si1193 Si -0.148790 0.741540 0.049780
Si1194 Si 0.027560 1.006170 0.302840
Si1195 Si 1.148790 1.258460 0.950220
Si1196 Si 0.972440 0.993830 0.697160
Si1197 Si 0.589260 1.002650 0.816620
Si1198 Si 0.764620 1.267130 1.062140
Si1199 Si -0.235380 1.267130 0.062140
Si1200 Si -0.410740 1.002650 -0.183380
Si1201 Si -0.027560 0.993830 -0.302840
Si1202 Si 0.148790 1.258460 -0.049780
Si1203 Si 0.410740 0.997350 0.183380
Si1204 Si 0.235380 0.732870 -0.062140
Si1205 Si 0.851210 0.741540 1.049780
Si1206 Si 1.027560 1.006170 1.302840
Si1207 Si 1.410740 0.997350 1.183380
Si1208 Si 0.148790 0.258460 0.950220
Si1209 Si 0.148790 0.258460 -0.049780
Si1210 Si 0.735380 0.767130 0.437860
Si1211 Si 0.910740 0.502650 0.683380
Si1212 Si 0.527560 0.493830 0.802840
Si1213 Si 0.351210 0.758460 0.549780
Si1214 Si -0.027560 -0.006170 0.697160
Si1215 Si 1.235380 0.732870 0.937860
Si1216 Si -0.410740 0.002650 0.816620
Si1217 Si -0.027560 -0.006170 -0.302840
Si1218 Si 0.410740 0.997350 1.183380
Si1219 Si -0.410740 0.002650 -0.183380
Si1220 Si 0.027560 1.006170 1.302840
Si1221 Si -0.148790 0.741540 1.049780
Si1222 Si -0.235380 0.267130 0.062140
Si1223 Si -0.235380 0.267130 1.062140
Si1224 Si -0.235380 1.267130 1.062140
Si1225 Si -0.410740 1.002650 0.816620
Si1226 Si -0.027560 0.993830 0.697160
Si1227 Si 0.148790 1.258460 0.950220
Si1228 Si 0.264620 0.232870 0.562140
Si1229 Si 0.089260 0.497350 0.316620
Si1230 Si 1.148790 1.258460 -0.049780
Si1231 Si 0.972440 0.993830 -0.302840
Si1232 Si 0.589260 1.002650 -0.183380
Si1233 Si 0.764620 1.267130 0.062140
Si1234 Si 1.235380 -0.267130 -0.062140
Si1235 Si 1.410740 -0.002650 0.183380
Si1236 Si 1.027560 0.006170 0.302840
Si1237 Si 0.851210 -0.258460 0.049780
Si1238 Si 0.472440 0.506170 0.197160
Si1239 Si 0.764620 0.267130 0.062140
Si1240 Si 0.589260 0.002650 -0.183380
Si1241 Si 0.972440 -0.006170 -0.302840
Si1242 Si 1.148790 0.258460 -0.049780
Si1243 Si 0.648790 0.241540 0.450220
Si1244 Si 0.235380 -0.267130 0.937860
Si1245 Si 0.851210 0.741540 0.049780
Si1246 Si 1.027560 1.006170 0.302840
Si1247 Si 1.410740 0.997350 0.183380
Si1248 Si 1.235380 0.732870 -0.062140
Si1249 Si 1.235380 -0.267130 0.937860
Si1250 Si 1.410740 -0.002650 1.183380
Si1251 Si 1.027560 0.006170 1.302840
Si1252 Si 0.851210 -0.258460 1.049780
Si1253 Si 0.410740 -0.002650 1.183380
Si1254 Si 0.027560 0.006170 1.302840
Si1255 Si 1.148790 0.258460 0.950220
Si1256 Si 0.972440 -0.006170 0.697160
Si1257 Si 0.235380 0.732870 0.937860
Si1258 Si -0.148790 -0.258460 0.049780
Si1259 Si 0.589260 0.002650 0.816620
Si1260 Si 0.027560 0.006170 0.302840
Si1261 Si 0.410740 -0.002650 0.183380
Si1262 Si 0.235380 -0.267130 -0.062140
Si1263 Si 0.764620 0.267130 1.062140
Si1264 Si -0.148790 -0.258460 1.049780
Zr1265 Zr 0.594731 0.579351 0.569409
Zr1266 Zr 0.405269 0.420649 0.430591
Zr1267 Zr 0.905269 1.079351 0.930591
Zr1268 Zr 1.094731 0.920649 1.069409
Zr1269 Zr 0.905269 1.079351 -0.069409
Zr1270 Zr 1.094731 0.920649 0.069409
Zr1271 Zr 0.905269 0.079351 0.930591
Zr1272 Zr 1.094731 -0.079351 1.069409
Zr1273 Zr 0.905269 0.079351 -0.069409
Zr1274 Zr 1.094731 -0.079351 0.069409
Zr1275 Zr -0.094731 1.079351 0.930591
Zr1276 Zr 0.094731 0.920649 1.069409
Zr1277 Zr -0.094731 1.079351 -0.069409
Zr1278 Zr 0.094731 0.920649 0.069409
Zr1279 Zr -0.094731 0.079351 0.930591
Zr1280 Zr 0.094731 -0.079351 1.069409
Zr1281 Zr -0.094731 0.079351 -0.069409
Zr1282 Zr 0.094731 -0.079351 0.069409

#END
