./ACOGIK_from_POSCAR.cif_generated_by_CrystalShift
_symmetry_cell_setting triclinic
_symmetry_space_group_name_H-M 'P 1'
loop_
_symmetry_equiv_pos_site_id
_symmetry_equiv_pos_as_xyz
1 x,y,z
_cell_length_a 5.287300
_cell_length_b 11.926000
_cell_length_c 16.467000
_cell_angle_alpha 95.422000
_cell_angle_beta 98.427000
_cell_angle_gamma 96.703000
_cell_volume 1013.514562
loop_
_atom_site_label
_atom_site_type_symbol
_atom_site_fract_x
_atom_site_fract_y
_atom_site_fract_z
H1 H 1.262000 2.044700 1.413000
H2 H 2.337000 1.893700 1.322000
H3 H 1.792500 1.825500 1.288300
H4 H -0.497400 0.453000 0.337900
H5 H 1.987900 1.758100 1.341900
H6 H -0.708700 0.610500 0.343000
H7 H 1.974500 1.778300 1.169600
H8 H -0.554400 0.766000 0.444800
H9 H 2.186000 1.717300 1.222400
H10 H -0.198100 0.760300 0.540700
H11 H 1.848000 1.581500 1.249700
H12 H 1.644400 1.640300 1.192200
H13 H -0.348800 0.270900 0.371300
H14 H 2.036100 1.523500 1.133500
H15 H 0.104600 0.325400 0.311700
H16 H 1.835100 1.583700 1.075700
H17 H 1.490300 1.456000 1.106200
H18 H 0.170000 0.230500 0.184100
H19 H 1.693100 1.395100 1.162400
H20 H 0.073200 0.082000 0.078100
H21 H 1.666700 1.392800 0.987300
H22 H 1.862600 1.329000 1.044200
H23 H -0.546000 -0.041000 0.176700
H24 H 1.509900 1.209600 1.077200
H25 H -0.446800 0.108200 0.283000
H26 H 1.313000 1.273900 1.021300
H27 H -0.663800 -0.134100 0.040400
H28 H -0.484900 -0.204800 0.098200
H29 H 1.484900 1.204800 0.901800
H30 H -0.313000 -0.273900 -0.021300
H31 H -0.509900 -0.209600 -0.077200
H32 H 1.663800 1.134100 0.959600
H33 H -0.862600 -0.329000 -0.044200
H34 H -0.666700 -0.392800 0.012700
H35 H 1.446800 0.891800 0.717000
H36 H -0.693100 -0.395100 -0.162400
H37 H -0.490300 -0.456000 -0.106200
H38 H 1.546000 1.041000 0.823300
H39 H -0.835100 -0.583700 -0.075700
H40 H -1.036100 -0.523500 -0.133500
H41 H 0.926800 0.918000 0.921900
H42 H -0.644400 -0.640300 -0.192200
H43 H -0.848000 -0.581500 -0.249700
H44 H 0.830000 0.769500 0.815900
H45 H -1.186000 -0.717300 -0.222400
H46 H -0.974500 -0.778300 -0.169600
H47 H 0.895400 0.674600 0.688300
H48 H -0.987900 -0.758100 -0.341900
H49 H -0.792500 -0.825500 -0.288300
H50 H 1.348800 0.729100 0.628700
H51 H -1.337000 -0.893700 -0.322000
H52 H -1.133100 -0.963000 -0.273800
H53 H 1.198100 0.239700 0.459300
H54 H -1.149800 -0.928500 -0.443900
H55 H -1.262000 -1.044700 -0.413000
H56 H -0.958300 -1.002800 -0.395100
H57 H 1.958300 2.002800 1.395100
H58 H 1.554400 0.234000 0.555200
H59 H 1.708700 0.389500 0.657000
H60 H 1.497400 0.547000 0.662100
H61 H 0.497400 0.547000 0.662100
H62 H 2.149800 1.928500 1.443900
H63 H 0.708700 0.389500 0.657000
H64 H 0.041700 -1.002800 -0.395100
H65 H 0.554400 0.234000 0.555200
H66 H -0.262000 -1.044700 -0.413000
H67 H 0.198100 0.239700 0.459300
H68 H -0.149800 -0.928500 -0.443900
H69 H -0.133100 -0.963000 -0.273800
H70 H 0.348800 0.729100 0.628700
H71 H -0.337000 -0.893700 -0.322000
H72 H -0.104600 0.674600 0.688300
H73 H 0.207500 -0.825500 -0.288300
H74 H 0.012100 -0.758100 -0.341900
H75 H -0.170000 0.769500 0.815900
H76 H 0.025500 -0.778300 -0.169600
H77 H -0.073200 0.918000 0.921900
H78 H -0.186000 -0.717300 -0.222400
H79 H 0.152000 -0.581500 -0.249700
H80 H 0.546000 1.041000 0.823300
H81 H 0.355600 -0.640300 -0.192200
H82 H 0.446800 0.891800 0.717000
H83 H -0.036100 -0.523500 -0.133500
H84 H 0.663800 1.134100 0.959600
H85 H 0.484900 1.204800 0.901800
H86 H 0.164900 -0.583700 -0.075700
H87 H 0.313000 1.273900 1.021300
H88 H 0.509900 1.209600 1.077200
H89 H 0.509700 -0.456000 -0.106200
H90 H 0.862600 1.329000 1.044200
H91 H 0.666700 1.392800 0.987300
H92 H 0.306900 -0.395100 -0.162400
H93 H 0.693100 1.395100 1.162400
H94 H 0.490300 1.456000 1.106200
H95 H 0.333300 -0.392800 0.012700
H96 H 0.835100 1.583700 1.075700
H97 H 1.036100 1.523500 1.133500
H98 H 0.137400 -0.329000 -0.044200
H99 H 0.644400 1.640300 1.192200
H100 H 0.848000 1.581500 1.249700
H101 H 0.490100 -0.209600 -0.077200
H102 H 1.186000 1.717300 1.222400
H103 H 0.974500 1.778300 1.169600
H104 H 0.687000 -0.273900 -0.021300
H105 H 0.987900 1.758100 1.341900
H106 H 0.792500 1.825500 1.288300
H107 H 0.515100 -0.204800 0.098200
H108 H 1.337000 1.893700 1.322000
H109 H 1.133100 1.963000 1.273800
H110 H 0.336200 -0.134100 0.040400
H111 H 1.149800 1.928500 1.443900
H112 H 2.133100 1.963000 1.273800
H113 H 0.958300 2.002800 1.395100
H114 H 2.262000 2.044700 1.413000
H115 H 0.553200 0.108200 0.283000
H116 H 0.454000 -0.041000 0.176700
H117 H 1.073200 0.082000 0.078100
H118 H 0.502600 0.453000 0.337900
H119 H 1.170000 0.230500 0.184100
H120 H 0.291300 0.610500 0.343000
H121 H 1.104600 0.325400 0.311700
H122 H 0.445600 0.766000 0.444800
H123 H 0.651200 0.270900 0.371300
H124 H 0.801900 0.760300 0.540700
C125 C 0.873800 0.598290 0.502820
C126 C 0.815800 0.312160 0.370790
C127 C 0.741100 0.696340 0.500830
C128 C 0.943500 0.280770 0.311540
C129 C 0.531500 0.700380 0.443740
C130 C 0.871300 0.186240 0.245260
C131 C 1.023800 0.175600 0.182930
C132 C 0.439800 0.607500 0.382520
C133 C 0.966900 0.087190 0.119740
C134 C 0.563800 0.514000 0.380230
C135 C 0.754300 0.006090 0.117230
C136 C 0.600000 0.014240 0.178140
C137 C 0.783600 0.504960 0.439730
C138 C 0.659600 0.103490 0.241390
C139 C 0.911300 0.407640 0.436890
C140 C 0.501300 -0.166250 0.047340
C141 C 1.129700 1.978080 1.399830
C142 C 1.159100 1.913210 1.318230
C143 C 0.513600 -0.249070 -0.026910
C144 C 0.970000 1.805080 1.295470
C145 C 1.005600 1.733930 1.217080
C146 C 0.311400 -0.353250 -0.037540
C147 C 0.824000 1.622550 1.200160
C148 C 0.858300 1.543490 1.125620
C149 C 0.332700 -0.435050 -0.112370
C150 C 0.667300 1.435050 1.112370
C151 C 0.688600 1.353250 1.037540
C152 C 0.141700 -0.543490 -0.125620
C153 C 0.486400 1.249070 1.026910
C154 C 0.498700 1.166250 0.952660
C155 C 0.176000 -0.622550 -0.200160
C156 C 0.340400 0.896510 0.758610
C157 C 0.400000 0.985760 0.821860
C158 C -0.005600 -0.733930 -0.217080
C159 C 0.245700 0.993910 0.882770
C160 C 0.033100 0.912810 0.880260
C161 C 0.030000 -0.805080 -0.295470
C162 C -0.023800 0.824400 0.817070
C163 C 0.128700 0.813760 0.754740
C164 C -0.159100 -0.913210 -0.318230
C165 C 0.056500 0.719230 0.688460
C166 C 0.184200 0.687840 0.629210
C167 C -0.129700 -0.978080 -0.399830
C168 C 0.126200 0.401710 0.497180
C169 C 0.258900 0.303660 0.499170
C170 C 0.468500 0.299620 0.556260
C171 C 0.560200 0.392500 0.617480
C172 C 1.088700 0.592360 0.563110
C173 C 1.216400 0.495040 0.560270
C174 C 1.436200 0.486000 0.619770
C175 C 0.436200 0.486000 0.619770
C176 C 1.560200 0.392500 0.617480
C177 C 0.216400 0.495040 0.560270
C178 C 1.468500 0.299620 0.556260
C179 C 0.088700 0.592360 0.563110
C180 C 1.258900 0.303660 0.499170
C181 C -1.129700 -0.978080 -0.399830
C182 C 1.126200 0.401710 0.497180
C183 C 1.184200 0.687840 0.629210
C184 C -1.159100 -0.913210 -0.318230
C185 C 1.056500 0.719230 0.688460
C186 C -0.970000 -0.805080 -0.295470
C187 C 1.128700 0.813760 0.754740
C188 C 0.976200 0.824400 0.817070
C189 C -1.005600 -0.733930 -0.217080
C190 C 1.033100 0.912810 0.880260
C191 C -0.824000 -0.622550 -0.200160
C192 C 1.245700 0.993910 0.882770
C193 C 1.400000 0.985760 0.821860
C194 C -0.858300 -0.543490 -0.125620
C195 C 1.340400 0.896510 0.758610
C196 C -0.667300 -0.435050 -0.112370
C197 C 1.498700 1.166250 0.952660
C198 C -0.688600 -0.353250 -0.037540
C199 C -0.486400 -0.249070 -0.026910
C200 C 1.486400 1.249070 1.026910
C201 C -0.498700 -0.166250 0.047340
C202 C -0.340400 0.103490 0.241390
C203 C 1.688600 1.353250 1.037540
C204 C -0.400000 0.014240 0.178140
C205 C -0.245700 0.006090 0.117230
C206 C 1.667300 1.435050 1.112370
C207 C -0.033100 0.087190 0.119740
C208 C 0.023800 0.175600 0.182930
C209 C 1.858300 1.543490 1.125620
C210 C -0.128700 0.186240 0.245260
C211 C -0.056500 0.280770 0.311540
C212 C 1.824000 1.622550 1.200160
C213 C -0.184200 0.312160 0.370790
C214 C -0.126200 0.598290 0.502820
C215 C 2.005600 1.733930 1.217080
C216 C -0.258900 0.696340 0.500830
C217 C -0.468500 0.700380 0.443740
C218 C 1.970000 1.805080 1.295470
C219 C -0.560200 0.607500 0.382520
C220 C -0.436200 0.514000 0.380230
C221 C 2.159100 1.913210 1.318230
C222 C -0.216400 0.504960 0.439730
C223 C -0.088700 0.407640 0.436890
C224 C 2.129700 1.978080 1.399830
O225 O 0.286260 1.078410 0.947380
O226 O -0.286260 -0.078410 0.052620
O227 O 1.286260 1.078410 0.947380
O228 O 0.713740 -0.078410 0.052620

#END
