./ACOJOT_from_POSCAR.cif_generated_by_CrystalShift
_symmetry_cell_setting triclinic
_symmetry_space_group_name_H-M 'P 1'
loop_
_symmetry_equiv_pos_site_id
_symmetry_equiv_pos_as_xyz
1 x,y,z
_cell_length_a 19.140000
_cell_length_b 6.288000
_cell_length_c 19.810000
_cell_angle_alpha 90.000000
_cell_angle_beta 91.934000
_cell_angle_gamma 90.000000
_cell_volume 2382.821348
loop_
_atom_site_label
_atom_site_type_symbol
_atom_site_fract_x
_atom_site_fract_y
_atom_site_fract_z
H1 H 0.875900 0.399800 0.952500
H2 H 0.847000 0.335400 0.758500
H3 H 0.918500 0.395500 0.798400
H4 H 0.790400 0.294700 0.871500
H5 H 0.919000 0.056000 0.852400
H6 H 0.817900 -0.135800 0.916600
H7 H 0.518200 0.265200 0.893700
H8 H 0.515000 0.155300 0.820800
H9 H 0.570100 0.341500 0.836900
H10 H 0.956100 0.268100 0.710300
H11 H 0.684100 0.201000 0.849100
H12 H 0.947800 0.154100 0.968800
H13 H 0.612300 -0.383200 0.959100
H14 H 0.124100 0.399800 0.547500
H15 H 0.181900 0.264200 0.509900
H16 H 0.153000 0.335400 0.741500
H17 H 0.081500 0.395500 0.701600
H18 H 0.209600 0.294700 0.628500
H19 H 0.081000 0.056000 0.647600
H20 H 0.112300 0.883200 0.459100
H21 H 0.447800 0.345900 0.468800
H22 H 0.184100 0.299000 0.349100
H23 H 0.456100 0.231900 0.210300
H24 H 0.070100 0.158500 0.336900
H25 H 0.015000 0.344700 0.320800
H26 H 0.018200 0.234800 0.393700
H27 H 0.317900 0.635800 0.416600
H28 H 0.419000 0.444000 0.352400
H29 H 0.290400 0.205300 0.371500
H30 H 0.418500 0.104500 0.298400
H31 H 0.347000 0.164600 0.258500
H32 H 0.318100 0.235800 0.490100
H33 H 0.375900 0.100200 0.452500
H34 H 0.182100 -0.135800 0.583400
H35 H 0.481800 0.265200 0.606300
H36 H 0.485000 0.155300 0.679200
H37 H 0.429900 0.341500 0.663100
H38 H 0.043900 0.268100 0.789700
H39 H 0.315900 0.201000 0.650900
H40 H 0.052200 0.154100 0.531200
H41 H 0.387700 -0.383200 0.540900
H42 H 0.375900 0.899800 0.952500
H43 H 0.318100 0.764200 0.990100
H44 H 0.347000 0.835400 0.758500
H45 H 0.418500 0.895500 0.798400
H46 H 0.290400 0.794700 0.871500
H47 H 0.419000 0.556000 0.852400
H48 H 0.317900 0.364200 0.916600
H49 H 0.018200 0.765200 0.893700
H50 H 0.015000 0.655300 0.820800
H51 H 0.070100 0.841500 0.836900
H52 H 0.456100 0.768100 0.710300
H53 H 0.887700 0.883200 0.040900
H54 H 0.552200 0.345900 0.031200
H55 H 0.815900 0.299000 0.150900
H56 H 0.543900 0.231900 0.289700
H57 H 0.929900 0.158500 0.163100
H58 H 0.985000 0.344700 0.179200
H59 H 0.981800 0.234800 0.106300
H60 H 0.682100 0.635800 0.083400
H61 H 0.581000 0.444000 0.147600
H62 H 0.709600 0.205300 0.128500
H63 H 0.581500 0.104500 0.201600
H64 H 0.653000 0.164600 0.241500
H65 H 0.681900 0.235800 0.009900
H66 H 0.624100 0.100200 0.047500
H67 H 0.184100 0.701000 0.849100
H68 H 0.447800 0.654100 0.968800
H69 H 0.112300 0.116800 0.959100
H70 H 0.624100 0.899800 0.547500
H71 H 0.681900 0.764200 0.509900
H72 H 0.653000 0.835400 0.741500
H73 H 0.581500 0.895500 0.701600
H74 H 0.709600 0.794700 0.628500
H75 H 0.581000 0.556000 0.647600
H76 H 0.682100 0.364200 0.583400
H77 H 0.981800 0.765200 0.606300
H78 H 0.985000 0.655300 0.679200
H79 H 0.929900 0.841500 0.663100
H80 H 0.543900 0.768100 0.789700
H81 H 0.815900 0.701000 0.650900
H82 H 0.552200 0.654100 0.531200
H83 H 0.887700 0.116800 0.540900
H84 H 0.124100 0.600200 0.047500
H85 H 0.181900 0.735800 0.009900
H86 H 0.612300 1.383200 0.459100
H87 H 0.947800 0.845900 0.468800
H88 H 0.684100 0.799000 0.349100
H89 H 0.956100 0.731900 0.210300
H90 H 0.570100 0.658500 0.336900
H91 H 0.515000 0.844700 0.320800
H92 H 0.518200 0.734800 0.393700
H93 H 0.817900 1.135800 0.416600
H94 H 0.919000 0.944000 0.352400
H95 H 0.790400 0.705300 0.371500
H96 H 0.918500 0.604500 0.298400
H97 H 0.847000 0.664600 0.258500
H98 H 0.818100 0.735800 0.490100
H99 H 0.875900 0.600200 0.452500
H100 H 0.153000 0.664600 0.241500
H101 H 0.081500 0.604500 0.201600
H102 H 0.209600 0.705300 0.128500
H103 H 0.081000 0.944000 0.147600
H104 H 0.182100 1.135800 0.083400
H105 H 0.481800 0.734800 0.106300
H106 H 0.485000 0.844700 0.179200
H107 H 0.429900 0.658500 0.163100
H108 H 0.043900 0.731900 0.289700
H109 H 0.315900 0.799000 0.150900
H110 H 0.052200 0.845900 0.031200
H111 H 0.387700 1.383200 0.040900
H112 H 0.818100 0.264200 0.990100
C113 C 0.208510 1.039800 0.115450
C114 C 0.177340 1.060500 0.185200
C115 C 0.125200 0.883100 0.167800
C116 C 0.175530 0.814100 0.110770
C117 C 0.108970 0.723300 0.221710
C118 C 0.144280 0.744200 0.042910
C119 C 0.332010 0.922500 0.128660
C120 C 0.401270 0.942800 0.120140
C121 C 0.425440 1.131800 0.085760
C122 C 0.303630 1.259700 0.076150
C123 C 0.196370 0.759700 0.423850
C124 C 0.074560 0.631800 0.414240
C125 C 0.098730 0.442800 0.379860
C126 C 0.167990 0.422500 0.371340
C127 C 0.045950 0.281200 0.355710
C128 C 0.855720 0.255800 0.957090
C129 C 0.891030 0.276700 0.778290
C130 C 0.824470 0.185900 0.889230
C131 C 0.855720 0.744200 0.457090
C132 C 0.891030 0.723300 0.278290
C133 C 0.874800 0.116900 0.832200
C134 C 0.822660 -0.060500 0.814800
C135 C 0.791490 -0.039800 0.884550
C136 C 0.545950 0.218800 0.855710
C137 C 0.667990 0.077500 0.871340
C138 C 0.598730 0.057200 0.879860
C139 C 0.574560 -0.131800 0.914240
C140 C 0.696370 -0.259700 0.923850
C141 C 0.803630 0.240300 0.576150
C142 C 0.925440 0.368200 0.585760
C143 C 0.901270 0.557200 0.620140
C144 C 0.832010 0.577500 0.628660
C145 C 0.954050 0.718800 0.644290
C146 C 0.708510 0.460200 0.615450
C147 C 0.677340 0.439500 0.685200
C148 C 0.625200 0.616900 0.667800
C149 C 0.675530 0.685900 0.610770
C150 C 0.608970 0.776700 0.721710
C151 C 0.644280 0.755800 0.542910
C152 C 0.824470 0.814100 0.389230
C153 C 0.874800 0.883100 0.332200
C154 C 0.822660 1.060500 0.314800
C155 C 0.791490 1.039800 0.384550
C156 C 0.545950 0.781200 0.355710
C157 C 0.667990 0.922500 0.371340
C158 C 0.598730 0.942800 0.379860
C159 C 0.574560 1.131800 0.414240
C160 C 0.696370 1.259700 0.423850
C161 C 0.291490 0.539800 0.384550
C162 C 0.322660 0.560500 0.314800
C163 C 0.374800 0.383100 0.332200
C164 C 0.324470 0.314100 0.389230
C165 C 0.391030 0.223300 0.278290
C166 C 0.355720 0.244200 0.457090
C167 C 0.144280 0.255800 0.542910
C168 C 0.108970 0.276700 0.721710
C169 C 0.175530 0.185900 0.610770
C170 C 0.125200 0.116900 0.667800
C171 C 0.177340 -0.060500 0.685200
C172 C 0.208510 -0.039800 0.615450
C173 C 0.454050 0.218800 0.644290
C174 C 0.196370 0.240300 0.923850
C175 C 0.074560 0.368200 0.914240
C176 C 0.098730 0.557200 0.879860
C177 C 0.167990 0.577500 0.871340
C178 C 0.045950 0.718800 0.855710
C179 C 0.291490 0.460200 0.884550
C180 C 0.322660 0.439500 0.814800
C181 C 0.374800 0.616900 0.832200
C182 C 0.324470 0.685900 0.889230
C183 C 0.391030 0.776700 0.778290
C184 C 0.355720 0.755800 0.957090
C185 C 0.332010 0.077500 0.628660
C186 C 0.401270 0.057200 0.620140
C187 C 0.425440 -0.131800 0.585760
C188 C 0.644280 0.244200 0.042910
C189 C 0.608970 0.223300 0.221710
C190 C 0.675530 0.314100 0.110770
C191 C 0.625200 0.383100 0.167800
C192 C 0.677340 0.560500 0.185200
C193 C 0.708510 0.539800 0.115450
C194 C 0.954050 0.281200 0.144290
C195 C 0.832010 0.422500 0.128660
C196 C 0.901270 0.442800 0.120140
C197 C 0.925440 0.631800 0.085760
C198 C 0.803630 0.759700 0.076150
C199 C 0.303630 -0.259700 0.576150
C200 C 0.454050 0.781200 0.144290
N201 N 0.217030 0.571800 0.393280
N202 N 0.125920 0.773000 0.435570
N203 N 0.374080 1.273000 0.064430
N204 N 0.282970 1.071800 0.106720
N205 N 0.282970 -0.071800 0.606720
N206 N 0.374080 -0.273000 0.564430
N207 N 0.782970 0.428200 0.606720
N208 N 0.874080 0.227000 0.564430
N209 N 0.625920 -0.273000 0.935570
N210 N 0.717030 -0.071800 0.893280
N211 N 0.125920 0.227000 0.935570
N212 N 0.217030 0.428200 0.893280
N213 N 0.625920 1.273000 0.435570
N214 N 0.717030 1.071800 0.393280
N215 N 0.782970 0.571800 0.106720
N216 N 0.874080 0.773000 0.064430
O217 O 0.237110 0.901600 0.440160
O218 O 0.237110 0.098400 0.940160
O219 O 0.012590 0.331200 0.924590
O220 O 0.570650 0.321500 0.272570
O221 O 0.591240 0.386200 0.017930
O222 O 0.987410 0.668800 0.075410
O223 O 0.762890 0.901600 0.059840
O224 O 0.408760 0.386200 0.482070
O225 O 0.429350 0.321500 0.227430
O226 O 0.262890 -0.401600 0.559840
O227 O 0.512590 1.168800 0.424590
O228 O 0.908760 0.886200 0.482070
O229 O 0.929350 0.821500 0.227430
O230 O 0.408760 0.613800 0.982070
O231 O 0.429350 0.678500 0.727430
O232 O 0.487410 -0.168800 0.575410
O233 O 0.091240 0.113800 0.517930
O234 O 0.737110 -0.401600 0.940160
O235 O 0.512590 -0.168800 0.924590
O236 O 0.908760 0.113800 0.982070
O237 O 0.929350 0.178500 0.727430
O238 O 0.737110 1.401600 0.440160
O239 O 0.012590 0.668800 0.424590
O240 O 0.070650 0.178500 0.772570
O241 O 0.070650 0.821500 0.272570
O242 O 0.570650 0.678500 0.772570
O243 O 0.591240 0.613800 0.517930
O244 O 0.987410 0.331200 0.575410
O245 O 0.762890 0.098400 0.559840
O246 O 0.091240 0.886200 0.017930
O247 O 0.487410 1.168800 0.075410
O248 O 0.262890 1.401600 0.059840
F249 F 0.224120 1.005900 0.236210
F250 F 0.151260 1.253800 0.202750
F251 F 0.651260 0.246200 0.702750
F252 F 0.724120 0.494100 0.736210
F253 F 0.151260 -0.253800 0.702750
F254 F 0.848740 1.253800 0.297250
F255 F 0.775880 -0.005900 0.763790
F256 F 0.848740 -0.253800 0.797250
F257 F 0.348740 0.246200 0.797250
F258 F 0.651260 0.753800 0.202750
F259 F 0.724120 0.505900 0.236210
F260 F 0.775880 1.005900 0.263790
F261 F 0.275880 0.494100 0.763790
F262 F 0.275880 0.505900 0.263790
F263 F 0.224120 -0.005900 0.736210
F264 F 0.348740 0.753800 0.297250

#END
