./ACOLUB_from_POSCAR.cif_generated_by_CrystalShift
_symmetry_cell_setting triclinic
_symmetry_space_group_name_H-M 'P 1'
loop_
_symmetry_equiv_pos_site_id
_symmetry_equiv_pos_as_xyz
1 x,y,z
_cell_length_a 29.766000
_cell_length_b 20.293000
_cell_length_c 16.483000
_cell_angle_alpha 90.000000
_cell_angle_beta 111.107000
_cell_angle_gamma 90.000000
_cell_volume 9288.434618
loop_
_atom_site_label
_atom_site_type_symbol
_atom_site_fract_x
_atom_site_fract_y
_atom_site_fract_z
H1 H 0.794500 0.223100 -0.084600
H2 H 0.698700 0.173700 0.020800
H3 H 0.739400 0.017800 -0.207500
H4 H 0.749000 0.137000 -0.192200
H5 H 0.732900 0.065000 0.018100
H6 H 0.705500 0.276900 0.084600
H7 H 0.801300 0.326300 -0.020800
H8 H 0.760600 0.482200 0.207500
H9 H 0.751000 0.363000 0.192200
H10 H 0.767100 0.435000 -0.018100
H11 H 0.205500 0.223100 0.584600
H12 H 0.301300 0.173700 0.479200
H13 H 0.260600 0.017800 0.707500
H14 H 0.251000 0.137000 0.692200
H15 H 0.267100 0.065000 0.481900
H16 H 0.462700 0.831900 0.420500
H17 H 0.497100 0.385000 0.841500
H18 H 0.543300 0.394600 0.817300
H19 H 0.407700 0.889200 0.465800
H20 H 0.604400 0.246500 0.919000
H21 H 0.575300 0.258600 0.819400
H22 H 0.370800 0.721400 0.545200
H23 H 0.594900 0.383400 0.974600
H24 H 0.547400 0.376100 0.994700
H25 H 0.427100 0.667900 0.505400
H26 H 0.499000 0.237700 0.854300
H27 H 0.533600 0.227300 0.951600
H28 H 0.638200 0.758800 0.678300
H29 H 0.681000 0.725100 0.816100
H30 H 0.632700 0.230100 0.780200
H31 H 0.661100 0.537800 0.745500
H32 H 0.678700 0.229500 0.691800
H33 H 0.615600 0.571500 0.606400
H34 H 0.676600 0.587400 0.353000
H35 H 0.719500 0.413600 0.763100
H36 H 0.719500 0.586400 0.263100
H37 H 0.676600 0.412600 0.853000
H38 H 0.678700 0.770500 0.191800
H39 H 0.632700 0.769900 0.280200
H40 H 0.533600 0.772700 0.451600
H41 H 0.615600 0.428500 1.106400
H42 H 0.499000 0.762300 0.354300
H43 H 0.661100 0.462200 1.245500
H44 H 0.547400 0.623900 0.494700
H45 H 0.594900 0.616600 0.474600
H46 H 0.681000 0.274900 1.316100
H47 H 0.575300 0.741400 0.319400
H48 H 0.638200 0.241200 1.178300
H49 H 0.604400 0.753500 0.419000
H50 H 0.543300 0.605400 0.317300
H51 H 0.497100 0.615000 0.341500
H52 H 0.427100 0.332100 1.005400
H53 H 0.294500 0.276900 0.415400
H54 H 0.370800 0.278600 1.045200
H55 H 0.198700 0.326300 0.520800
H56 H 0.239400 0.482200 0.292500
H57 H 0.407700 0.110800 0.965800
H58 H 0.249000 0.363000 0.307800
H59 H 0.462700 0.168100 0.920500
H60 H 0.232900 0.435000 0.518100
H61 H 0.537300 0.831900 0.079500
H62 H 0.767100 0.565000 0.481900
H63 H 0.592300 0.889200 0.034200
H64 H 0.751000 0.637000 0.692200
H65 H 0.629200 0.721400 -0.045200
H66 H 0.760600 0.517800 0.707500
H67 H 0.572900 0.667900 -0.005400
H68 H 0.361800 0.758800 -0.178300
H69 H 0.801300 0.673700 0.479200
H70 H 0.319000 0.725100 -0.316100
H71 H 0.705500 0.723100 0.584600
H72 H 0.338900 0.537800 -0.245500
H73 H 0.384400 0.571500 -0.106400
H74 H 0.323400 0.587400 0.147000
H75 H 0.280500 0.586400 0.236900
H76 H 0.321300 0.770500 0.308200
H77 H 0.367300 0.769900 0.219800
H78 H 0.466400 0.772700 0.048400
H79 H 0.501000 0.762300 0.145700
H80 H 0.452600 0.623900 0.005300
H81 H 0.405100 0.616600 0.025400
H82 H 0.424700 0.741400 0.180600
H83 H 0.395600 0.753500 0.081000
H84 H 0.456700 0.605400 0.182700
H85 H 0.502900 0.615000 0.158500
H86 H 0.705500 1.276900 1.084600
H87 H 0.801300 1.326300 0.979200
H88 H 0.760600 1.482200 1.207500
H89 H 0.751000 1.363000 1.192200
H90 H 0.767100 1.435000 0.981900
H91 H 0.962700 0.668100 0.920500
H92 H 0.907700 0.610800 0.965800
H93 H 0.870800 0.778600 1.045200
H94 H 0.927100 0.832100 1.005400
H95 H 1.138200 0.741200 1.178300
H96 H 1.181000 0.774900 1.316100
H97 H 1.161100 0.962200 1.245500
H98 H 1.115600 0.928500 1.106400
H99 H 1.176600 0.912600 0.853000
H100 H 1.219500 0.913600 0.763100
H101 H 1.178700 0.729500 0.691800
H102 H 1.132700 0.730100 0.780200
H103 H 1.033600 0.727300 0.951600
H104 H 0.999000 0.737700 0.854300
H105 H 0.502900 0.385000 0.658500
H106 H 0.456700 0.394600 0.682700
H107 H 1.047400 0.876100 0.994700
H108 H 0.395600 0.246500 0.581000
H109 H 0.424700 0.258600 0.680600
H110 H 1.094900 0.883400 0.974600
H111 H 0.405100 0.383400 0.525400
H112 H 0.452600 0.376100 0.505300
H113 H 1.075300 0.758600 0.819400
H114 H 0.501000 0.237700 0.645700
H115 H 0.466400 0.227300 0.548400
H116 H 1.104400 0.746500 0.919000
H117 H 1.043300 0.894600 0.817300
H118 H 0.367300 0.230100 0.719800
H119 H 0.997100 0.885000 0.841500
H120 H 0.321300 0.229500 0.808200
H121 H 0.794500 1.223100 0.915400
H122 H 0.698700 1.173700 1.020800
H123 H 0.280500 0.413600 0.736900
H124 H 0.739400 1.017800 0.792500
H125 H 0.323400 0.412600 0.647000
H126 H 0.749000 1.137000 0.807800
H127 H 0.732900 1.065000 1.018100
H128 H 1.037300 0.668100 0.579500
H129 H 0.384400 0.428500 0.393600
H130 H 1.092300 0.610800 0.534200
H131 H 0.338900 0.462200 0.254500
H132 H 1.129200 0.778600 0.454800
H133 H 1.072900 0.832100 0.494600
H134 H 0.319000 0.274900 0.183900
H135 H 0.861800 0.741200 0.321700
H136 H 0.361800 0.241200 0.321700
H137 H 0.819000 0.774900 0.183900
H138 H 0.838900 0.962200 0.254500
H139 H 0.884400 0.928500 0.393600
H140 H 0.572900 0.332100 0.494600
H141 H 0.823400 0.912600 0.647000
H142 H 0.629200 0.278600 0.454800
H143 H 0.780500 0.913600 0.736900
H144 H 0.821300 0.729500 0.808200
H145 H 0.592300 0.110800 0.534200
H146 H 0.867300 0.730100 0.719800
H147 H 0.537300 0.168100 0.579500
H148 H 0.966400 0.727300 0.548400
H149 H 1.001000 0.737700 0.645700
H150 H 0.732900 0.935000 0.518100
H151 H 0.952600 0.876100 0.505300
H152 H 0.749000 0.863000 0.307800
H153 H 0.905100 0.883400 0.525400
H154 H 0.739400 0.982200 0.292500
H155 H 0.924700 0.758600 0.680600
H156 H 0.895600 0.746500 0.581000
H157 H 0.698700 0.826300 0.520800
H158 H 0.956700 0.894600 0.682700
H159 H 0.794500 0.776900 0.415400
H160 H 1.002900 0.885000 0.658500
H161 H 0.294500 1.276900 0.415400
H162 H 0.232900 0.565000 1.018100
H163 H 0.198700 1.326300 0.520800
H164 H 0.249000 0.637000 0.807800
H165 H 0.239400 1.482200 0.292500
H166 H 0.239400 0.517800 0.792500
H167 H 0.249000 1.363000 0.307800
H168 H 0.232900 1.435000 0.518100
H169 H 0.198700 0.673700 1.020800
H170 H 0.037300 0.668100 0.579500
H171 H 0.294500 0.723100 0.915400
H172 H 0.092300 0.610800 0.534200
H173 H 0.129200 0.778600 0.454800
H174 H 0.072900 0.832100 0.494600
H175 H -0.138200 0.741200 0.321700
H176 H -0.181000 0.774900 0.183900
H177 H -0.161100 0.962200 0.254500
H178 H 0.267100 0.935000 0.981900
H179 H -0.115600 0.928500 0.393600
H180 H 0.251000 0.863000 1.192200
H181 H -0.176600 0.912600 0.647000
H182 H 0.260600 0.982200 1.207500
H183 H -0.219500 0.913600 0.736900
H184 H -0.178700 0.729500 0.808200
H185 H 0.301300 0.826300 0.979200
H186 H -0.132700 0.730100 0.719800
H187 H 0.205500 0.776900 1.084600
H188 H -0.033600 0.727300 0.548400
H189 H 0.001000 0.737700 0.645700
H190 H -0.047400 0.876100 0.505300
H191 H -0.094900 0.883400 0.525400
H192 H -0.075300 0.758600 0.680600
H193 H -0.104400 0.746500 0.581000
H194 H -0.043300 0.894600 0.682700
H195 H 0.002900 0.885000 0.658500
H196 H 0.205500 1.223100 0.584600
H197 H 0.301300 1.173700 0.479200
H198 H 0.260600 1.017800 0.707500
H199 H 0.251000 1.137000 0.692200
H200 H 0.267100 1.065000 0.481900
H201 H 1.002900 0.115000 0.158500
H202 H 0.956700 0.105400 0.182700
H203 H -0.037300 0.668100 0.920500
H204 H 0.895600 0.253500 0.081000
H205 H 0.924700 0.241400 0.180600
H206 H -0.092300 0.610800 0.965800
H207 H 0.905100 0.116600 0.025400
H208 H 0.952600 0.123900 0.005300
H209 H -0.129200 0.778600 1.045200
H210 H 1.001000 0.262300 0.145700
H211 H 0.966400 0.272700 0.048400
H212 H -0.072900 0.832100 1.005400
H213 H 0.138200 0.741200 1.178300
H214 H 0.867300 0.269900 0.219800
H215 H 0.181000 0.774900 1.316100
H216 H 0.821300 0.270500 0.308200
H217 H 0.161100 0.962200 1.245500
H218 H 0.115600 0.928500 1.106400
H219 H 0.780500 0.086400 0.236900
H220 H 0.176600 0.912600 0.853000
H221 H 0.823400 0.087400 0.147000
H222 H 0.219500 0.913600 0.763100
H223 H 0.178700 0.729500 0.691800
H224 H 0.132700 0.730100 0.780200
H225 H 0.884400 0.071500 -0.106400
H226 H 0.033600 0.727300 0.951600
H227 H 0.838900 0.037800 -0.245500
H228 H -0.001000 0.737700 0.854300
H229 H 0.047400 0.876100 0.994700
H230 H 0.819000 0.225100 -0.316100
H231 H 0.094900 0.883400 0.974600
H232 H 0.861800 0.258800 -0.178300
H233 H 0.075300 0.758600 0.819400
H234 H 0.104400 0.746500 0.919000
H235 H 0.043300 0.894600 0.817300
H236 H 1.072900 0.167900 -0.005400
H237 H -0.002900 0.885000 0.841500
H238 H 1.129200 0.221400 -0.045200
H239 H 0.294500 -0.276900 -0.084600
H240 H 0.198700 -0.326300 0.020800
H241 H 1.092300 0.389200 0.034200
H242 H 0.239400 -0.482200 -0.207500
H243 H 1.037300 0.331900 0.079500
H244 H 0.249000 -0.363000 -0.192200
H245 H 0.232900 -0.435000 0.018100
H246 H 0.732900 -0.065000 0.518100
H247 H 0.037300 0.331900 0.079500
H248 H 0.749000 -0.137000 0.307800
H249 H 0.092300 0.389200 0.034200
H250 H 0.739400 -0.017800 0.292500
H251 H 0.129200 0.221400 -0.045200
H252 H 0.072900 0.167900 -0.005400
H253 H 0.698700 -0.173700 0.520800
H254 H -0.138200 0.258800 -0.178300
H255 H 0.794500 -0.223100 0.415400
H256 H -0.181000 0.225100 -0.316100
H257 H -0.161100 0.037800 -0.245500
H258 H -0.115600 0.071500 -0.106400
H259 H -0.176600 0.087400 0.147000
H260 H -0.219500 0.086400 0.236900
H261 H -0.178700 0.270500 0.308200
H262 H -0.132700 0.269900 0.219800
H263 H -0.033600 0.272700 0.048400
H264 H 0.001000 0.262300 0.145700
H265 H -0.047400 0.123900 0.005300
H266 H -0.094900 0.116600 0.025400
H267 H -0.075300 0.241400 0.180600
H268 H -0.104400 0.253500 0.081000
H269 H -0.043300 0.105400 0.182700
H270 H 0.002900 0.115000 0.158500
H271 H 0.205500 -0.223100 0.084600
H272 H 0.301300 -0.173700 -0.020800
H273 H 0.260600 -0.017800 0.207500
H274 H 0.251000 -0.137000 0.192200
H275 H 0.267100 -0.065000 -0.018100
H276 H -0.037300 0.331900 0.420500
H277 H -0.092300 0.389200 0.465800
H278 H -0.129200 0.221400 0.545200
H279 H -0.072900 0.167900 0.505400
H280 H 0.138200 0.258800 0.678300
H281 H 0.997100 0.115000 0.341500
H282 H 1.043300 0.105400 0.317300
H283 H 0.181000 0.225100 0.816100
H284 H 1.104400 0.253500 0.419000
H285 H 1.075300 0.241400 0.319400
H286 H 0.161100 0.037800 0.745500
H287 H 1.094900 0.116600 0.474600
H288 H 1.047400 0.123900 0.494700
H289 H 0.115600 0.071500 0.606400
H290 H 0.999000 0.262300 0.354300
H291 H 1.033600 0.272700 0.451600
H292 H 0.176600 0.087400 0.353000
H293 H 0.219500 0.086400 0.263100
H294 H 1.132700 0.269900 0.280200
H295 H 0.178700 0.270500 0.191800
H296 H 1.178700 0.270500 0.191800
H297 H 0.132700 0.269900 0.280200
H298 H 0.033600 0.272700 0.451600
H299 H 1.219500 0.086400 0.263100
H300 H -0.001000 0.262300 0.354300
H301 H 1.176600 0.087400 0.353000
H302 H 0.047400 0.123900 0.494700
H303 H 0.094900 0.116600 0.474600
H304 H 0.075300 0.241400 0.319400
H305 H 1.115600 0.071500 0.606400
H306 H 0.104400 0.253500 0.419000
H307 H 1.161100 0.037800 0.745500
H308 H 0.043300 0.105400 0.317300
H309 H -0.002900 0.115000 0.341500
H310 H 1.181000 0.225100 0.816100
H311 H 0.705500 -0.276900 0.584600
H312 H 1.138200 0.258800 0.678300
H313 H 0.801300 -0.326300 0.479200
H314 H 0.760600 -0.482200 0.707500
H315 H 0.751000 -0.363000 0.692200
H316 H 0.927100 0.167900 0.505400
H317 H 0.767100 -0.435000 0.481900
H318 H 0.870800 0.221400 0.545200
H319 H 0.962700 0.331900 0.420500
H320 H 0.907700 0.389200 0.465800
C321 C 0.910700 0.343800 0.473100
C322 C 0.944600 0.309300 0.447200
C323 C 0.882800 0.311100 0.508200
C324 C 0.844700 0.345900 0.530300
C325 C 0.764600 -0.431900 0.536300
C326 C 0.889400 0.245000 0.520400
C327 C 0.755600 -0.391700 0.652000
C328 C 0.923300 0.213100 0.496400
C329 C 0.760800 -0.457300 0.660200
C330 C 0.950900 0.244300 0.460900
C331 C 0.754900 -0.310100 0.537200
C332 C 0.780500 -0.295100 0.487700
C333 C 1.209000 0.108400 0.882600
C334 C 0.723500 -0.266000 0.550700
C335 C 1.142100 0.214100 0.691300
C336 C 0.719500 0.204900 0.012300
C337 C 0.745100 0.189900 -0.037200
C338 C 0.739200 0.042700 -0.160200
C339 C 0.744400 0.108300 -0.152000
C340 C 0.735400 0.068100 -0.036300
C341 C 0.723500 0.266000 0.050700
C342 C 0.780500 0.295100 -0.012300
C343 C 0.754900 0.310100 0.037200
C344 C 0.760800 0.457300 0.160200
C345 C 0.755600 0.391700 0.152000
C346 C 0.764600 0.431900 0.036300
C347 C 0.223500 0.234000 0.550700
C348 C 0.049300 0.185400 0.398500
C349 C 0.021600 0.137900 0.326300
C350 C 1.168600 0.193500 0.772900
C351 C 1.177800 0.128900 0.794400
C352 C 0.088700 0.220300 0.375800
C353 C 1.156800 0.082400 0.732300
C354 C 1.129200 0.103000 0.649300
C355 C 0.071900 0.148100 0.481200
C356 C 1.121200 0.167700 0.628400
C357 C 1.228200 0.175100 0.154500
C358 C 0.015400 0.240300 0.409200
C359 C 1.175800 0.124000 0.318600
C360 C 1.201900 0.123700 0.265800
C361 C 0.148600 0.177000 0.321700
C362 C 0.149900 0.232600 0.276000
C363 C 1.202600 0.176900 0.217400
C364 C 0.177400 0.232900 0.223100
C365 C 1.177400 0.232900 0.223100
C366 C 0.202600 0.176900 0.217400
C367 C 0.201900 0.123700 0.265800
C368 C 1.149900 0.232600 0.276000
C369 C 0.175800 0.124000 0.318600
C370 C 1.148600 0.177000 0.321700
C371 C 0.228200 0.175100 0.154500
C372 C 0.121200 0.167700 0.628400
C373 C 0.129200 0.103000 0.649300
C374 C 1.015400 0.240300 0.409200
C375 C 0.156800 0.082400 0.732300
C376 C 1.071900 0.148100 0.481200
C377 C 0.177800 0.128900 0.794400
C378 C 0.168600 0.193500 0.772900
C379 C 1.088700 0.220300 0.375800
C380 C 0.142100 0.214100 0.691300
C381 C 1.021600 0.137900 0.326300
C382 C 0.209000 0.108400 0.882600
C383 C -0.049100 0.244300 0.460900
C384 C -0.076700 0.213100 0.496400
C385 C 1.049300 0.185400 0.398500
C386 C -0.110600 0.245000 0.520400
C387 C 0.280500 0.204900 0.487700
C388 C -0.117200 0.311100 0.508200
C389 C -0.089300 0.343800 0.473100
C390 C 0.254900 0.189900 0.537200
C391 C -0.055400 0.309300 0.447200
C392 C 0.260800 0.042700 0.660200
C393 C -0.155300 0.345900 0.530300
C394 C 0.264600 -0.068100 0.036300
C395 C 0.255600 0.108300 0.652000
C396 C 0.255600 -0.108300 0.152000
C397 C 0.549300 0.314600 0.898500
C398 C 0.260800 -0.042700 0.160200
C399 C 0.264600 0.068100 0.536300
C400 C 0.254900 -0.189900 0.037200
C401 C 0.280500 -0.204900 -0.012300
C402 C 0.344700 0.845900 0.530300
C403 C 0.223500 -0.234000 0.050700
C404 C 0.521600 0.362100 0.826300
C405 C 0.444600 0.809300 0.447200
C406 C 0.588700 0.279700 0.875800
C407 C 0.410700 0.843800 0.473100
C408 C 0.382800 0.811100 0.508200
C409 C 0.571900 0.351900 0.981200
C410 C 0.389400 0.745000 0.520400
C411 C 0.515400 0.259700 0.909200
C412 C 0.423300 0.713100 0.496400
C413 C 0.450900 0.744300 0.460900
C414 C 0.709000 0.608400 0.882600
C415 C 0.648600 0.323000 0.821700
C416 C 0.642100 0.714100 0.691300
C417 C 0.649900 0.267400 0.776000
C418 C 0.668600 0.693500 0.772900
C419 C 0.677800 0.628900 0.794400
C420 C 0.677400 0.267100 0.723100
C421 C 0.656800 0.582400 0.732300
C422 C 0.702600 0.323100 0.717400
C423 C 0.629200 0.603000 0.649300
C424 C 0.621200 0.667700 0.628400
C425 C 0.728200 0.675100 0.154500
C426 C 0.701900 0.376300 0.765800
C427 C 0.675800 0.624000 0.318600
C428 C 0.675800 0.376000 0.818600
C429 C 0.701900 0.623700 0.265800
C430 C 0.702600 0.676900 0.217400
C431 C 0.728200 0.324900 0.654500
C432 C -0.049300 0.185400 0.101500
C433 C -0.021600 0.137900 0.173700
C434 C 0.677400 0.732900 0.223100
C435 C 0.621200 0.332300 1.128400
C436 C -0.088700 0.220300 0.124200
C437 C 0.649900 0.732600 0.276000
C438 C 0.648600 0.677000 0.321700
C439 C -0.071900 0.148100 0.018800
C440 C 0.629200 0.397000 1.149300
C441 C 0.656800 0.417600 1.232300
C442 C -0.015400 0.240300 0.090800
C443 C 0.515400 0.740300 0.409200
C444 C 0.677800 0.371100 1.294400
C445 C -0.148600 0.177000 0.178300
C446 C -0.149900 0.232600 0.224000
C447 C 0.668600 0.306500 1.272900
C448 C -0.177400 0.232900 0.276900
C449 C 0.571900 0.648100 0.481200
C450 C -0.202600 0.176900 0.282600
C451 C -0.201900 0.123700 0.234200
C452 C 0.642100 0.285900 1.191300
C453 C -0.175800 0.124000 0.181400
C454 C 0.709000 0.391600 1.382600
C455 C -0.228200 0.175100 0.345500
C456 C -0.121200 0.167700 -0.128400
C457 C -0.129200 0.103000 -0.149300
C458 C 0.588700 0.720300 0.375800
C459 C -0.156800 0.082400 -0.232300
C460 C 0.450900 0.255700 0.960900
C461 C -0.177800 0.128900 -0.294400
C462 C -0.168600 0.193500 -0.272900
C463 C 0.423300 0.286900 0.996400
C464 C -0.142100 0.214100 -0.191300
C465 C 0.776500 -0.234000 0.449300
C466 C -0.209000 0.108400 -0.382600
C467 C 0.049100 0.244300 0.039100
C468 C 0.076700 0.213100 0.003600
C469 C 0.719500 -0.204900 0.512300
C470 C 0.110600 0.245000 -0.020400
C471 C 0.745100 -0.189900 0.462800
C472 C 0.117200 0.311100 -0.008200
C473 C 0.089300 0.343800 0.026900
C474 C 0.739200 -0.042700 0.339800
C475 C 0.055400 0.309300 0.052800
C476 C 0.744400 -0.108300 0.348000
C477 C 0.155300 0.345900 -0.030300
C478 C 0.235400 -0.431900 -0.036300
C479 C 0.735400 -0.068100 0.463700
C480 C 0.244400 -0.391700 -0.152000
C481 C 1.155300 0.345900 -0.030300
C482 C 0.239200 -0.457300 -0.160200
C483 C 1.055400 0.309300 0.052800
C484 C 0.245100 -0.310100 -0.037200
C485 C 0.219500 -0.295100 0.012300
C486 C 1.089300 0.343800 0.026900
C487 C 0.276500 -0.266000 -0.050700
C488 C 1.117200 0.311100 -0.008200
C489 C 0.521600 0.637900 0.326300
C490 C 0.549300 0.685400 0.398500
C491 C 0.389400 0.255000 1.020400
C492 C 0.276500 0.266000 0.449300
C493 C 0.382800 0.188900 1.008200
C494 C 0.219500 0.295100 0.512300
C495 C 0.245100 0.310100 0.462800
C496 C 0.410700 0.156200 0.973100
C497 C 0.239200 0.457300 0.339800
C498 C 0.444600 0.190700 0.947200
C499 C 0.244400 0.391700 0.348000
C500 C 0.344700 0.154100 1.030300
C501 C 0.235400 0.431900 0.463700
C502 C 0.655300 0.845900 -0.030300
C503 C 0.049300 0.814600 0.898500
C504 C 0.021600 0.862100 0.826300
C505 C 1.110600 0.245000 -0.020400
C506 C 1.076700 0.213100 0.003600
C507 C 0.088700 0.779700 0.875800
C508 C 1.049100 0.244300 0.039100
C509 C 0.791000 0.108400 -0.382600
C510 C 0.071900 0.851900 0.981200
C511 C 0.857900 0.214100 -0.191300
C512 C 0.831400 0.193500 -0.272900
C513 C 0.015400 0.759700 0.909200
C514 C 0.822200 0.128900 -0.294400
C515 C 0.843200 0.082400 -0.232300
C516 C 0.148600 0.823000 0.821700
C517 C 0.149900 0.767400 0.776000
C518 C 0.870800 0.103000 -0.149300
C519 C 0.177400 0.767100 0.723100
C520 C 0.878800 0.167700 -0.128400
C521 C 0.202600 0.823100 0.717400
C522 C 0.201900 0.876300 0.765800
C523 C 0.771800 0.175100 0.345500
C524 C 0.175800 0.876000 0.818600
C525 C 0.824200 0.124000 0.181400
C526 C 0.228200 0.824900 0.654500
C527 C 0.121200 0.832300 1.128400
C528 C 0.129200 0.897000 1.149300
C529 C 0.798100 0.123700 0.234200
C530 C 0.156800 0.917600 1.232300
C531 C 0.797400 0.176900 0.282600
C532 C 0.177800 0.871100 1.294400
C533 C 0.168600 0.806500 1.272900
C534 C 0.822600 0.232900 0.276900
C535 C 0.142100 0.785900 1.191300
C536 C 0.850100 0.232600 0.224000
C537 C 0.209000 0.891600 1.382600
C538 C -0.049100 0.755700 0.960900
C539 C -0.076700 0.786900 0.996400
C540 C 0.851400 0.177000 0.178300
C541 C -0.110600 0.755000 1.020400
C542 C 0.984600 0.240300 0.090800
C543 C -0.117200 0.688900 1.008200
C544 C -0.089300 0.656200 0.973100
C545 C 0.928100 0.148100 0.018800
C546 C -0.055400 0.690700 0.947200
C547 C 0.911300 0.220300 0.124200
C548 C -0.155300 0.654100 1.030300
C549 C 0.264600 1.068100 0.536300
C550 C 0.978400 0.137900 0.173700
C551 C 0.255600 1.108300 0.652000
C552 C 0.950700 0.185400 0.101500
C553 C 0.260800 1.042700 0.660200
C554 C 0.764600 0.568100 0.536300
C555 C 0.254900 1.189900 0.537200
C556 C 0.280500 1.204900 0.487700
C557 C 0.555400 0.809300 0.052800
C558 C 0.223500 1.234000 0.550700
C559 C 0.755600 0.608300 0.652000
C560 C 0.589300 0.843800 0.026900
C561 C 0.617200 0.811100 -0.008200
C562 C 0.760800 0.542700 0.660200
C563 C 0.610600 0.745000 -0.020400
C564 C 0.754900 0.689900 0.537200
C565 C 0.576700 0.713100 0.003600
C566 C 0.549100 0.744300 0.039100
C567 C 0.291000 0.608400 -0.382600
C568 C 0.780500 0.704900 0.487700
C569 C 0.357900 0.714100 -0.191300
C570 C 0.723500 0.734000 0.550700
C571 C 0.331400 0.693500 -0.272900
C572 C 0.322200 0.628900 -0.294400
C573 C 0.343200 0.582400 -0.232300
C574 C 0.370800 0.603000 -0.149300
C575 C 0.378800 0.667700 -0.128400
C576 C 0.271800 0.675100 0.345500
C577 C 0.324200 0.624000 0.181400
C578 C 0.298100 0.623700 0.234200
C579 C 0.297400 0.676900 0.282600
C580 C 0.322600 0.732900 0.276900
C581 C 0.350100 0.732600 0.224000
C582 C 0.351400 0.677000 0.178300
C583 C 0.484600 0.740300 0.090800
C584 C 0.428100 0.648100 0.018800
C585 C 0.411300 0.720300 0.124200
C586 C 0.478400 0.637900 0.173700
C587 C 0.450700 0.685400 0.101500
C588 C 0.723500 1.266000 1.050700
C589 C 0.780500 1.295100 0.987700
C590 C 0.754900 1.310100 1.037200
C591 C -0.049300 0.814600 0.601500
C592 C -0.021600 0.862100 0.673700
C593 C 0.760800 1.457300 1.160200
C594 C 0.755600 1.391700 1.152000
C595 C -0.088700 0.779700 0.624200
C596 C 0.764600 1.431900 1.036300
C597 C 0.844700 0.654100 1.030300
C598 C -0.071900 0.851900 0.518800
C599 C 0.944600 0.690700 0.947200
C600 C 0.910700 0.656200 0.973100
C601 C -0.015400 0.759700 0.590800
C602 C 0.882800 0.688900 1.008200
C603 C 0.889400 0.755000 1.020400
C604 C -0.148600 0.823000 0.678300
C605 C -0.149900 0.767400 0.724000
C606 C 0.223500 0.766000 1.050700
C607 C -0.177400 0.767100 0.776900
C608 C 0.280500 0.795100 0.987700
C609 C -0.202600 0.823100 0.782600
C610 C -0.201900 0.876300 0.734200
C611 C 0.254900 0.810100 1.037200
C612 C -0.175800 0.876000 0.681400
C613 C 0.260800 0.957300 1.160200
C614 C -0.228200 0.824900 0.845500
C615 C -0.121200 0.832300 0.371600
C616 C -0.129200 0.897000 0.350700
C617 C 0.255600 0.891700 1.152000
C618 C -0.156800 0.917600 0.267700
C619 C 0.264600 0.931900 1.036300
C620 C -0.177800 0.871100 0.205600
C621 C -0.168600 0.806500 0.227100
C622 C 0.923300 0.786900 0.996400
C623 C -0.142100 0.785900 0.308700
C624 C 0.950900 0.755700 0.960900
C625 C -0.209000 0.891600 0.117400
C626 C 0.049100 0.755700 0.539100
C627 C 0.076700 0.786900 0.503600
C628 C 1.209000 0.891600 1.382600
C629 C 0.110600 0.755000 0.479600
C630 C 1.142100 0.785900 1.191300
C631 C 0.117200 0.688900 0.491800
C632 C 0.089300 0.656200 0.526900
C633 C 1.168600 0.806500 1.272900
C634 C 0.055400 0.690700 0.552800
C635 C 0.276500 0.734000 0.949300
C636 C 0.155300 0.654100 0.469700
C637 C 0.235400 1.431900 0.463700
C638 C 0.219500 0.704900 1.012300
C639 C 0.244400 1.391700 0.348000
C640 C 0.245100 0.689900 0.962800
C641 C 0.239200 1.457300 0.339800
C642 C 0.239200 0.542700 0.839800
C643 C 0.245100 1.310100 0.462800
C644 C 0.219500 1.295100 0.512300
C645 C 0.244400 0.608300 0.848000
C646 C 0.276500 1.266000 0.449300
C647 C 0.235400 0.568100 0.963700
C648 C 0.776500 0.234000 -0.050700
C649 C 1.177800 0.871100 1.294400
C650 C 1.156800 0.917600 1.232300
C651 C 1.129200 0.897000 1.149300
C652 C 1.121200 0.832300 1.128400
C653 C 1.228200 0.824900 0.654500
C654 C 1.175800 0.876000 0.818600
C655 C 1.201900 0.876300 0.765800
C656 C 1.202600 0.823100 0.717400
C657 C 1.177400 0.767100 0.723100
C658 C 1.149900 0.767400 0.776000
C659 C 1.148600 0.823000 0.821700
C660 C 0.450700 0.314600 0.601500
C661 C 0.478400 0.362100 0.673700
C662 C 0.950700 0.814600 0.601500
C663 C 0.978400 0.862100 0.673700
C664 C 1.015400 0.759700 0.909200
C665 C 0.776500 0.766000 0.449300
C666 C 0.911300 0.779700 0.624200
C667 C 0.719500 0.795100 0.512300
C668 C 0.745100 0.810100 0.462800
C669 C 0.928100 0.851900 0.518800
C670 C 0.739200 0.957300 0.339800
C671 C 0.744400 0.891700 0.348000
C672 C 0.984600 0.759700 0.590800
C673 C 0.735400 0.931900 0.463700
C674 C 0.655300 0.154100 0.469700
C675 C 0.851400 0.823000 0.678300
C676 C 0.850100 0.767400 0.724000
C677 C 0.555400 0.190700 0.552800
C678 C 0.822600 0.767100 0.776900
C679 C 0.589300 0.156200 0.526900
C680 C 0.797400 0.823100 0.782600
C681 C 0.798100 0.876300 0.734200
C682 C 0.617200 0.188900 0.491800
C683 C 0.824200 0.876000 0.681400
C684 C 0.610600 0.255000 0.479600
C685 C 0.771800 0.824900 0.845500
C686 C 0.878800 0.832300 0.371600
C687 C 0.870800 0.897000 0.350700
C688 C 0.576700 0.286900 0.503600
C689 C 0.843200 0.917600 0.267700
C690 C 0.549100 0.255700 0.539100
C691 C 0.822200 0.871100 0.205600
C692 C 0.831400 0.806500 0.227100
C693 C 0.291000 0.391600 0.117400
C694 C 0.857900 0.785900 0.308700
C695 C 0.357900 0.285900 0.308700
C696 C 0.791000 0.891600 0.117400
C697 C 1.049100 0.755700 0.539100
C698 C 1.076700 0.786900 0.503600
C699 C 0.331400 0.306500 0.227100
C700 C 1.110600 0.755000 0.479600
C701 C 0.322200 0.371100 0.205600
C702 C 1.117200 0.688900 0.491800
C703 C 1.089300 0.656200 0.526900
C704 C 0.343200 0.417600 0.267700
C705 C 1.055400 0.690700 0.552800
C706 C 0.370800 0.397000 0.350700
C707 C 1.155300 0.654100 0.469700
C708 C 0.735400 1.068100 0.963700
C709 C 0.378800 0.332300 0.371600
C710 C 0.744400 1.108300 0.848000
C711 C 0.271800 0.324900 0.845500
C712 C 0.739200 1.042700 0.839800
C713 C 0.324200 0.376000 0.681400
C714 C 0.745100 1.189900 0.962800
C715 C 0.719500 1.204900 1.012300
C716 C 0.298100 0.376300 0.734200
C717 C 0.776500 1.234000 0.949300
C718 C 0.297400 0.323100 0.782600
C719 C 0.411300 0.279700 0.624200
C720 C 0.428100 0.351900 0.518800
C721 C 1.071900 0.851900 0.981200
C722 C 0.484600 0.259700 0.590800
C723 C 0.351400 0.323000 0.678300
C724 C 1.088700 0.779700 0.875800
C725 C 0.350100 0.267400 0.724000
C726 C 0.322600 0.267100 0.776900
C727 C 1.021600 0.862100 0.826300
C728 C 1.049300 0.814600 0.898500
N729 N 1.266500 1.018800 0.586500
N730 N 0.758400 1.374700 1.073600
N731 N 0.766500 0.518800 0.586500
N732 N 0.258400 -0.125300 0.073600
N733 N 0.758400 0.625300 0.573600
N734 N 0.741600 0.125300 -0.073600
N735 N 0.733500 0.018800 -0.086500
N736 N 0.758400 0.374700 0.073600
N737 N 0.233500 -0.481200 -0.086500
N738 N -0.266500 -0.018800 0.413500
N739 N 0.241600 -0.374700 -0.073600
N740 N 0.758400 -0.374700 0.573600
N741 N 1.266500 -0.018800 0.086500
N742 N 0.766500 -0.481200 0.586500
N743 N 0.258400 0.125300 0.573600
N744 N 0.766500 0.481200 0.086500
N745 N 0.266500 0.018800 0.586500
N746 N 0.266500 1.018800 0.586500
N747 N 0.258400 1.125300 0.573600
N748 N 0.266500 -0.018800 0.086500
N749 N 0.233500 1.481200 0.413500
N750 N 0.766500 1.481200 1.086500
N751 N -0.266500 1.018800 0.913500
N752 N 0.241600 1.374700 0.426400
N753 N 0.733500 0.981200 0.413500
N754 N 0.233500 0.518800 0.913500
N755 N 0.741600 0.874700 0.426400
N756 N 0.241600 0.374700 0.426400
N757 N 0.233500 0.481200 0.413500
N758 N 0.741600 -0.125300 0.426400
N759 N 0.733500 -0.018800 0.413500
N760 N 0.241600 0.625300 0.926400
N761 N 0.258400 0.874700 1.073600
N762 N 0.266500 0.981200 1.086500
N763 N 0.733500 1.018800 0.913500
N764 N 0.741600 1.125300 0.926400
O765 O 0.160300 0.406000 0.982300
O766 O 0.771900 0.773900 0.888100
O767 O 0.839700 0.406000 0.517700
O768 O 0.751800 0.878800 0.850400
O769 O 1.018500 0.792600 0.561600
O770 O 0.660300 0.094000 0.482300
O771 O 0.904800 0.808600 0.451500
O772 O 0.181100 0.312000 0.938700
O773 O 0.877700 0.829700 0.625500
O774 O 1.000000 0.824300 0.750000
O775 O 0.776700 0.949400 0.103500
O776 O 0.818900 0.312000 0.561300
O777 O 0.780600 0.849700 0.056400
O778 O 0.681100 0.188000 0.438700
O779 O 1.122300 0.829700 0.874500
O780 O 1.095200 0.808600 1.048500
O781 O 0.280600 0.349700 1.056400
O782 O 1.181100 0.688000 0.438700
O783 O 0.780600 0.150300 0.556400
O784 O 1.160300 0.594000 0.482300
O785 O 0.228100 0.226100 1.111900
O786 O 0.219400 0.150300 0.943600
O787 O 0.719400 0.349700 0.443600
O788 O 0.981500 0.792600 0.938400
O789 O 0.280600 0.349700 0.056400
O790 O 0.000000 0.175700 0.250000
O791 O 1.000000 0.175700 0.250000
O792 O 0.276700 0.449400 1.103500
O793 O 0.877700 0.170300 0.125500
O794 O 0.723300 0.449400 0.396500
O795 O 0.904800 0.191400 -0.048500
O796 O 1.018500 0.207400 0.061600
O797 O 0.276700 0.449400 0.103500
O798 O 0.751800 0.121200 0.350400
O799 O 0.771900 0.226100 0.388100
O800 O 0.776700 0.050600 -0.396500
O801 O 0.271900 0.273900 0.888100
O802 O -0.339700 0.906000 0.982300
O803 O 0.339700 0.906000 0.517700
O804 O 0.251800 0.378800 0.850400
O805 O 0.160300 0.594000 0.482300
O806 O 0.518500 0.292600 0.561600
O807 O 0.500000 0.324300 0.750000
O808 O 0.122300 0.170300 0.374500
O809 O 0.500000 0.675700 0.250000
O810 O 0.377700 0.670300 0.125500
O811 O 0.404800 0.691400 -0.048500
O812 O 0.518500 0.707400 0.061600
O813 O 0.251800 0.621200 0.350400
O814 O 0.276700 0.550600 -0.396500
O815 O 0.280600 0.650300 -0.443600
O816 O 0.681100 0.812000 -0.061300
O817 O 0.660300 0.906000 -0.017700
O818 O -0.318900 0.812000 0.938700
O819 O 0.318900 0.812000 0.561300
O820 O 0.404800 0.308600 0.451500
O821 O 0.377700 0.329700 0.625500
O822 O 0.181100 0.688000 0.438700
O823 O 0.771900 0.773900 -0.111900
O824 O 1.248200 0.878800 0.649600
O825 O -0.219400 0.849700 1.056400
O826 O 1.228100 0.773900 0.611900
O827 O 0.622300 0.329700 0.874500
O828 O 0.280600 0.650300 0.556400
O829 O 0.095200 0.191400 0.548500
O830 O 0.595200 0.308600 1.048500
O831 O 0.219400 0.849700 0.443600
O832 O -0.219400 0.849700 0.056400
O833 O -0.018500 0.207400 0.438400
O834 O -0.223300 0.949400 1.103500
O835 O 0.248200 0.121200 0.149600
O836 O 0.223300 0.949400 0.396500
O837 O -0.223300 0.949400 0.103500
O838 O 0.481500 0.292600 0.938400
O839 O 0.271900 0.726100 0.388100
O840 O 0.228100 0.226100 0.111900
O841 O -0.228100 0.773900 0.888100
O842 O -0.248200 0.878800 0.850400
O843 O 0.018500 0.792600 0.561600
O844 O 0.748200 0.378800 0.649600
O845 O -0.095200 0.808600 0.451500
O846 O 0.223300 0.050600 0.896500
O847 O -0.122300 0.829700 0.625500
O848 O 0.728100 0.273900 0.611900
O849 O -0.181100 0.312000 0.561300
O850 O 1.339700 0.906000 0.517700
O851 O 0.660300 0.906000 0.982300
O852 O 0.728100 0.726100 1.111900
O853 O 0.723300 0.449400 1.396500
O854 O -0.160300 0.406000 0.517700
O855 O 0.719400 0.349700 1.443600
O856 O 1.339700 0.094000 0.017700
O857 O 1.318900 0.188000 0.061300
O858 O 0.318900 0.188000 1.061300
O859 O 1.219400 0.150300 -0.056400
O860 O 0.780600 0.150300 -0.443600
O861 O 1.181100 0.312000 -0.061300
O862 O 1.160300 0.406000 -0.017700
O863 O -0.160300 0.594000 1.017700
O864 O -0.181100 0.688000 1.061300
O865 O 0.219400 0.849700 1.443600
O866 O 0.223300 0.949400 1.396500
O867 O 0.228100 0.773900 0.611900
O868 O 0.248200 0.878800 0.649600
O869 O -0.018500 0.792600 0.938400
O870 O 0.095200 0.808600 1.048500
O871 O 0.122300 0.829700 0.874500
O872 O 0.000000 0.824300 0.750000
O873 O 0.839700 0.594000 1.017700
O874 O 1.318900 0.812000 0.561300
O875 O 0.339700 0.094000 1.017700
O876 O 1.219400 0.150300 0.943600
O877 O 1.223300 0.050600 -0.103500
O878 O 0.776700 0.050600 0.603500
O879 O 0.681100 0.812000 0.938700
O880 O 0.818900 0.688000 1.061300
O881 O 1.219400 0.849700 0.443600
O882 O 0.622300 0.670300 0.374500
O883 O 0.595200 0.691400 0.548500
O884 O 0.481500 0.707400 0.438400
O885 O 0.748200 0.621200 0.149600
O886 O 0.728100 0.726100 0.111900
O887 O 0.723300 0.550600 0.896500
O888 O 0.276700 0.550600 0.603500
O889 O 0.723300 0.550600 -0.103500
O890 O 0.719400 0.650300 -0.056400
O891 O 0.818900 0.688000 0.061300
O892 O 0.839700 0.594000 0.017700
O893 O 1.223300 0.050600 0.896500
O894 O 1.228100 0.226100 0.111900
O895 O 1.223300 0.949400 1.396500
O896 O 0.776700 0.949400 1.103500
O897 O 1.223300 0.949400 0.396500
O898 O -0.122300 0.170300 0.125500
O899 O -0.095200 0.191400 -0.048500
O900 O 0.018500 0.207400 0.061600
O901 O -0.248200 0.121200 0.350400
O902 O -0.228100 0.226100 0.388100
O903 O 0.719400 0.650300 0.943600
O904 O 0.780600 0.849700 1.056400
O905 O 1.219400 0.849700 1.443600
O906 O 1.122300 0.170300 0.374500
O907 O 1.095200 0.191400 0.548500
O908 O 0.981500 0.207400 0.438400
O909 O 1.248200 0.121200 0.149600
O910 O -0.339700 0.094000 0.482300
O911 O 0.339700 0.094000 0.017700
O912 O 0.160300 0.406000 -0.017700
O913 O -0.318900 0.188000 0.438700
O914 O 0.318900 0.188000 0.061300
O915 O 0.181100 0.312000 -0.061300
O916 O -0.219400 0.150300 0.556400
O917 O 0.219400 0.150300 -0.056400
O918 O -0.219400 0.150300 -0.443600
O919 O -0.223300 0.050600 0.603500
O920 O 0.223300 0.050600 -0.103500
O921 O -0.223300 0.050600 -0.396500
O922 O 0.271900 0.273900 -0.111900
Cd923 Cd 1.272160 0.084370 1.049230
Cd924 Cd 0.772160 -0.584370 0.549230
Cd925 Cd 1.227840 0.415630 -0.049230
Cd926 Cd 0.727840 0.084370 -0.549230
Cd927 Cd 1.272160 0.084370 0.049230
Cd928 Cd 1.250000 0.250000 1.000000
Cd929 Cd 1.250000 0.250000 0.000000
Cd930 Cd 0.750000 0.250000 -0.500000
Cd931 Cd -0.272160 0.084370 -0.549230
Cd932 Cd 0.227840 -0.584370 -0.049230
Cd933 Cd -0.227840 0.415630 0.549230
Cd934 Cd -0.272160 0.084370 0.450770
Cd935 Cd -0.250000 0.250000 -0.500000
Cd936 Cd -0.250000 0.250000 0.500000
Cd937 Cd 0.250000 0.750000 0.500000
Cd938 Cd 0.272160 0.915630 0.549230
Cd939 Cd 0.272160 -0.084370 0.549230
Cd940 Cd 0.227840 0.584370 -0.549230
Cd941 Cd 0.772160 0.584370 0.049230
Cd942 Cd 0.250000 0.750000 -0.500000
Cd943 Cd 0.250000 0.750000 1.500000
Cd944 Cd -0.250000 0.750000 1.000000
Cd945 Cd -0.250000 0.750000 0.000000
Cd946 Cd -0.272160 0.915630 0.950770
Cd947 Cd 0.272160 0.915630 1.549230
Cd948 Cd -0.227840 0.584370 1.049230
Cd949 Cd 0.227840 1.584370 0.450770
Cd950 Cd -0.272160 0.915630 -0.049230
Cd951 Cd 0.772160 0.584370 1.049230
Cd952 Cd 1.272160 0.915630 1.549230
Cd953 Cd 0.750000 0.250000 1.500000
Cd954 Cd 0.250000 0.250000 1.000000
Cd955 Cd 0.250000 0.250000 0.000000
Cd956 Cd 0.227840 0.415630 0.950770
Cd957 Cd 0.772160 0.415630 1.549230
Cd958 Cd 0.272160 0.084370 1.049230
Cd959 Cd 0.727840 1.084370 0.450770
Cd960 Cd 0.227840 0.415630 -0.049230
Cd961 Cd 0.727840 0.084370 0.450770
Cd962 Cd 0.727840 -0.084370 -0.049230
Cd963 Cd 0.772160 1.584370 1.049230
Cd964 Cd 1.227840 0.584370 0.450770
Cd965 Cd 0.727840 0.915630 -0.049230
Cd966 Cd 1.272160 0.915630 0.549230
Cd967 Cd 1.250000 0.750000 1.500000
Cd968 Cd 1.250000 0.750000 0.500000
Cd969 Cd 0.750000 0.750000 0.000000
Cd970 Cd 0.272160 1.084370 1.049230
Cd971 Cd 0.727840 0.915630 0.950770
Cd972 Cd 0.227840 0.584370 0.450770
Cd973 Cd 0.272160 0.084370 0.049230
Cd974 Cd 0.772160 0.415630 0.549230
Cd975 Cd 0.750000 0.750000 1.000000
Cd976 Cd 0.750000 0.250000 0.500000

#END
