
#######################################################################
#
#                 Cambridge Crystallographic Data Centre
#                                CCDC 
#
#######################################################################
#
# If this CIF has been generated from an entry in the Cambridge 
# Structural Database, then it will include bibliographic, chemical, 
# crystal, experimental, refinement or atomic coordinate data resulting 
# from the CCDC's data processing and validation procedures.
#
#######################################################################

data_ACOMEK
_symmetry_cell_setting           monoclinic
_symmetry_space_group_name_H-M   'P 21/n'
_symmetry_Int_Tables_number      14
_space_group_name_Hall           '-P 2yn'
loop_
_symmetry_equiv_pos_site_id
_symmetry_equiv_pos_as_xyz
1 x,y,z
2 1/2+x,1/2-y,1/2+z
3 -x,-y,-z
4 1/2-x,1/2+y,1/2-z
_cell_length_a                   16.1070(7)
_cell_length_b                   15.2446(6)
_cell_length_c                   16.2557(7)
_cell_angle_alpha                90
_cell_angle_beta                 118.082(1)
_cell_angle_gamma                90
_cell_volume                     3521.6
loop_
_atom_site_label
_atom_site_type_symbol
_atom_site_fract_x
_atom_site_fract_y
_atom_site_fract_z
Fe1 Fe 0.5000 0.5000 0.5000
Mg1 Mg 0.36813(3) 0.57015(4) 0.22118(3)
Mg2 Mg 0.74681(3) 0.42466(3) 0.49301(3)
Na1 Na 0.56607(4) 0.49651(4) 0.33714(4)
Na2 Na 0.21059(4) 0.54002(5) 0.29026(4)
N1 N 0.22521(9) 0.56325(8) 0.14495(8)
N2 N 0.48158(9) 0.60783(10) 0.20851(9)
N3 N 0.70679(9) 0.38418(9) 0.36290(9)
N4 N 0.86947(8) 0.43081(8) 0.61530(9)
C1 C 0.18178(11) 0.64655(11) 0.09943(11)
H1 H 0.1785 0.6478 0.0364
C2 C 0.24462(12) 0.72124(12) 0.15708(14)
H2 H 0.2556 0.7162 0.2215
H3 H 0.2139 0.7774 0.1309
H4 H 0.3049 0.7184 0.1560
C3 C 0.08250(12) 0.66042(13) 0.08726(15)
H5 H 0.0416 0.6125 0.0498
H6 H 0.0576 0.7164 0.0556
H7 H 0.0848 0.6612 0.1486
C4 C 0.17164(12) 0.48633(11) 0.09179(12)
H8 H 0.1076 0.4899 0.0872
C5 C 0.21753(16) 0.40312(13) 0.14425(14)
H9 H 0.2794 0.3963 0.1473
H10 H 0.1779 0.3527 0.1118
H11 H 0.2250 0.4065 0.2076
C6 C 0.15858(16) 0.48079(17) -0.00779(14)
H12 H 0.1259 0.5334 -0.0426
H13 H 0.1212 0.4287 -0.0388
H14 H 0.2203 0.4767 -0.0057
C7 C 0.48251(14) 0.58503(14) 0.12160(13)
H15 H 0.5487 0.5895 0.1320
C8 C 0.4201(2) 0.6451(2) 0.03956(15)
H16 H 0.3548 0.6415 0.0284
H17 H 0.4234 0.6264 -0.0165
H18 H 0.4422 0.7058 0.0546
C9 C 0.45044(16) 0.49142(16) 0.09727(16)
H19 H 0.4939 0.4525 0.1469
H20 H 0.4495 0.4758 0.0384
H21 H 0.3871 0.4850 0.0908
C10 C 0.53116(13) 0.69086(12) 0.24949(14)
H22 H 0.5135 0.7350 0.1984
C11 C 0.50515(14) 0.72677(13) 0.32077(13)
H23 H 0.4392 0.7457 0.2895
H24 H 0.5456 0.7769 0.3527
H25 H 0.5136 0.6810 0.3664
C12 C 0.63992(15) 0.67947(18) 0.29953(18)
H26 H 0.6589 0.6421 0.3545
H27 H 0.6700 0.7370 0.3189
H28 H 0.6593 0.6521 0.2567
C13 C 0.65360(12) 0.30243(12) 0.32768(12)
H29 H 0.6063 0.3120 0.2610
C14 C 0.60037(13) 0.28080(12) 0.38107(15)
H30 H 0.6452 0.2679 0.4462
H31 H 0.5612 0.3310 0.3786
H32 H 0.5602 0.2295 0.3529
C15 C 0.71209(17) 0.22206(15) 0.3321(2)
H33 H 0.7401 0.2307 0.2907
H34 H 0.7621 0.2138 0.3962
H35 H 0.6716 0.1700 0.3123
C16 C 0.76647(12) 0.40601(13) 0.31996(12)
H36 H 0.8118 0.3567 0.3325
C17 C 0.71145(15) 0.41933(18) 0.21444(14)
H37 H 0.6769 0.3656 0.1850
H38 H 0.6669 0.4679 0.2006
H39 H 0.7553 0.4331 0.1902
C18 C 0.82254(13) 0.48808(14) 0.36564(14)
H40 H 0.7794 0.5358 0.3600
H41 H 0.8648 0.4764 0.4317
H42 H 0.8596 0.5051 0.3347
C19 C 0.92520(10) 0.34940(11) 0.63958(11)
H43 H 0.9769 0.3553 0.7051
C20 C 0.86382(14) 0.27279(12) 0.63657(14)
H44 H 0.8352 0.2852 0.6769
H45 H 0.8142 0.2639 0.5724
H46 H 0.9024 0.2196 0.6585
C21 C 0.97024(13) 0.32887(13) 0.57711(15)
H47 H 0.9208 0.3213 0.5126
H48 H 1.0115 0.3774 0.5802
H49 H 1.0072 0.2748 0.5986
C22 C 0.92839(10) 0.50938(10) 0.63373(11)
H50 H 0.9654 0.5031 0.5990
C23 C 0.99807(13) 0.52340(14) 0.73697(13)
H51 H 0.9634 0.5305 0.7724
H52 H 1.0399 0.4725 0.7606
H53 H 1.0355 0.5762 0.7438
C24 C 0.86698(13) 0.59058(11) 0.59701(14)
H54 H 0.8235 0.5831 0.5305
H55 H 0.8310 0.5990 0.6310
H56 H 0.9068 0.6420 0.6059
C25 C 0.40217(10) 0.42986(10) 0.38755(10)
C26 C 0.37655(9) 0.43123(10) 0.46069(10)
C27 C 0.40636(10) 0.51710(10) 0.35670(10)
C28 C 0.38306(10) 0.57061(10) 0.41744(10)
C29 C 0.36202(9) 0.51993(10) 0.48113(10)
H57 H 0.3841(11) 0.6375(11) 0.4190(11)
H58 H 0.4134(12) 0.3761(12) 0.3609(12)
H59 H 0.3733(13) 0.3743(12) 0.4965(13)
N4B N 0.13053(8) 0.56919(8) 0.38470(9)
Mg2B Mg 0.25319(3) 0.57534(3) 0.50699(3)
Na1B Na 0.43393(4) 0.50349(4) 0.66286(4)
C25B C 0.59783(10) 0.57014(10) 0.61245(10)
C26B C 0.62345(9) 0.56877(10) 0.53931(10)
C27B C 0.59364(10) 0.48290(10) 0.64330(10)
Mg1B Mg 0.63187(3) 0.42985(4) 0.77882(3)
N2B N 0.51842(9) 0.39217(10) 0.79149(9)
N1B N 0.77479(9) 0.43675(8) 0.85505(8)
Na2B Na 0.78941(4) 0.45998(5) 0.70974(4)
C29B C 0.63798(9) 0.48007(10) 0.51887(10)
C28B C 0.61694(10) 0.42939(10) 0.58256(10)
N3B N 0.29321(9) 0.61582(9) 0.63710(9)
C13B C 0.34640(12) 0.69757(12) 0.67232(12)
H29B H 0.3937 0.6880 0.7390
C14B C 0.39963(13) 0.71920(12) 0.61893(15)
H30B H 0.3548 0.7321 0.5538
H31B H 0.4388 0.6690 0.6214
H32B H 0.4398 0.7705 0.6471
C15B C 0.28791(17) 0.77794(15) 0.6679(2)
H33B H 0.2599 0.7693 0.7093
H34B H 0.2379 0.7862 0.6038
H35B H 0.3284 0.8300 0.6877
C16B C 0.23353(12) 0.59399(13) 0.68004(12)
H36B H 0.1882 0.6433 0.6675
C17B C 0.28855(15) 0.58067(18) 0.78556(14)
H37B H 0.3231 0.6344 0.8150
H38B H 0.3331 0.5321 0.7994
H39B H 0.2447 0.5669 0.8098
C18B C 0.17746(13) 0.51192(14) 0.63436(14)
H40B H 0.2206 0.4642 0.6400
H41B H 0.1352 0.5236 0.5683
H42B H 0.1404 0.4949 0.6653
H58B H 0.5866(12) 0.6239(12) 0.6391(12)
H59B H 0.6267(13) 0.6257(12) 0.5035(13)
H57B H 0.6159(11) 0.3625(11) 0.5810(11)
C1B C 0.81822(11) 0.35345(11) 0.90057(11)
H1B H 0.8215 0.3522 0.9636
C2B C 0.75538(12) 0.27876(12) 0.84292(14)
H2B H 0.7444 0.2838 0.7785
H3B H 0.7861 0.2226 0.8691
H4B H 0.6951 0.2816 0.8440
C3B C 0.91750(12) 0.33958(13) 0.91274(15)
H5B H 0.9584 0.3875 0.9502
H6B H 0.9424 0.2836 0.9444
H7B H 0.9152 0.3388 0.8514
C4B C 0.82836(12) 0.51367(11) 0.90821(12)
H8B H 0.8924 0.5101 0.9128
C5B C 0.78247(16) 0.59688(13) 0.85575(14)
H9B H 0.7206 0.6037 0.8527
H10B H 0.8221 0.6473 0.8882
H11B H 0.7750 0.5935 0.7924
C6B C 0.84142(16) 0.51921(17) 1.00779(14)
H12B H 0.8741 0.4666 1.0426
H13B H 0.8788 0.5713 1.0388
H14B H 0.7797 0.5233 1.0057
C7B C 0.51749(14) 0.41497(14) 0.87840(13)
H15B H 0.4513 0.4105 0.8680
C8B C 0.5799(2) 0.3549(2) 0.96044(15)
H16B H 0.6452 0.3585 0.9716
H17B H 0.5766 0.3736 1.0165
H18B H 0.5578 0.2942 0.9454
C9B C 0.54956(16) 0.50858(16) 0.90273(16)
H19B H 0.5061 0.5475 0.8531
H20B H 0.5505 0.5242 0.9616
H21B H 0.6129 0.5150 0.9092
C10B C 0.46884(13) 0.30914(12) 0.75051(14)
H22B H 0.4865 0.2650 0.8016
C11B C 0.49485(14) 0.27323(13) 0.67923(13)
H23B H 0.5608 0.2543 0.7105
H24B H 0.4544 0.2231 0.6473
H25B H 0.4864 0.3190 0.6336
C12B C 0.36008(15) 0.32053(18) 0.70047(18)
H26B H 0.3411 0.3579 0.6455
H27B H 0.3300 0.2630 0.6811
H28B H 0.3407 0.3479 0.7433
C19B C 0.07480(10) 0.65060(11) 0.36042(11)
H43B H 0.0231 0.6447 0.2949
C20B C 0.13618(14) 0.72721(12) 0.36343(14)
H44B H 0.1648 0.7148 0.3231
H45B H 0.1858 0.7361 0.4276
H46B H 0.0976 0.7804 0.3415
C21B C 0.02976(13) 0.67113(13) 0.42289(15)
H47B H 0.0792 0.6787 0.4874
H48B H -0.0115 0.6226 0.4198
H49B H -0.0072 0.7252 0.4014
C22B C 0.07161(10) 0.49062(10) 0.36627(11)
H50B H 0.0346 0.4969 0.4010
C23B C 0.00193(13) 0.47660(14) 0.26303(13)
H51B H 0.0366 0.4695 0.2276
H52B H -0.0399 0.5275 0.2394
H53B H -0.0355 0.4238 0.2562
C24B C 0.13302(13) 0.40942(11) 0.40299(14)
H54B H 0.1765 0.4169 0.4695
H55B H 0.1690 0.4010 0.3690
H56B H 0.0932 0.3580 0.3941
Fe1 Fe 0.0000 0.0000 0.0000
Mg1 Mg -0.13187(3) -0.07015(4) -0.27882(3)
Mg2 Mg 0.24681(3) 0.07534(3) -0.00699(3)
Na1 Na 0.06607(4) 0.00349(4) -0.16286(4)
Na2 Na -0.28941(4) -0.04002(5) -0.20974(4)
N1 N -0.27479(9) -0.06325(8) -0.35505(8)
N2 N -0.01842(9) -0.10783(10) -0.29149(9)
N3 N 0.20679(9) 0.11582(9) -0.13710(9)
N4 N 0.36947(8) 0.06919(8) 0.11530(9)
C1 C -0.31822(11) -0.14655(11) -0.40057(11)
H1 H -0.3215 -0.1478 -0.4636
C2 C -0.25538(12) -0.22124(12) -0.34292(14)
H2 H -0.2444 -0.2162 -0.2785
H3 H -0.2861 -0.2774 -0.3691
H4 H -0.1951 -0.2184 -0.3440
C3 C -0.41750(12) -0.16042(13) -0.41274(15)
H5 H -0.4584 -0.1125 -0.4502
H6 H -0.4424 -0.2164 -0.4444
H7 H -0.4152 -0.1612 -0.3514
C4 C -0.32836(12) 0.01367(11) -0.40821(12)
H8 H -0.3924 0.0101 -0.4128
C5 C -0.28247(16) 0.09688(13) -0.35575(14)
H9 H -0.2206 0.1037 -0.3527
H10 H -0.3221 0.1473 -0.3882
H11 H -0.2750 0.0935 -0.2924
C6 C -0.34142(16) 0.01921(17) -0.50779(14)
H12 H -0.3741 -0.0334 -0.5426
H13 H -0.3788 0.0713 -0.5388
H14 H -0.2797 0.0233 -0.5057
C7 C -0.01749(14) -0.08503(14) -0.37840(13)
H15 H 0.0487 -0.0895 -0.3680
C8 C -0.0799(2) -0.1451(2) -0.46044(15)
H16 H -0.1452 -0.1415 -0.4716
H17 H -0.0766 -0.1264 -0.5165
H18 H -0.0578 -0.2058 -0.4454
C9 C -0.04956(16) 0.00858(16) -0.40273(16)
H19 H -0.0061 0.0475 -0.3531
H20 H -0.0505 0.0242 -0.4616
H21 H -0.1129 0.0150 -0.4092
C10 C 0.03116(13) -0.19086(12) -0.25051(14)
H22 H 0.0135 -0.2350 -0.3016
C11 C 0.00515(14) -0.22677(13) -0.17923(13)
H23 H -0.0608 -0.2457 -0.2105
H24 H 0.0456 -0.2769 -0.1473
H25 H 0.0136 -0.1810 -0.1336
C12 C 0.13992(15) -0.17947(18) -0.20047(18)
H26 H 0.1589 -0.1421 -0.1455
H27 H 0.1700 -0.2370 -0.1811
H28 H 0.1593 -0.1521 -0.2433
C13 C 0.15360(12) 0.19757(12) -0.17232(12)
H29 H 0.1063 0.1880 -0.2390
C14 C 0.10037(13) 0.21920(12) -0.11893(15)
H30 H 0.1452 0.2321 -0.0538
H31 H 0.0612 0.1690 -0.1214
H32 H 0.0602 0.2705 -0.1471
C15 C 0.21209(17) 0.27794(15) -0.1679(2)
H33 H 0.2401 0.2693 -0.2093
H34 H 0.2621 0.2862 -0.1038
H35 H 0.1716 0.3300 -0.1877
C16 C 0.26647(12) 0.09399(13) -0.18004(12)
H36 H 0.3118 0.1433 -0.1675
C17 C 0.21145(15) 0.08067(18) -0.28556(14)
H37 H 0.1769 0.1344 -0.3150
H38 H 0.1669 0.0321 -0.2994
H39 H 0.2553 0.0669 -0.3098
C18 C 0.32254(13) 0.01192(14) -0.13436(14)
H40 H 0.2794 -0.0358 -0.1400
H41 H 0.3648 0.0236 -0.0683
H42 H 0.3596 -0.0051 -0.1653
C19 C 0.42520(10) 0.15060(11) 0.13958(11)
H43 H 0.4769 0.1447 0.2051
C20 C 0.36382(14) 0.22721(12) 0.13657(14)
H44 H 0.3352 0.2148 0.1769
H45 H 0.3142 0.2361 0.0724
H46 H 0.4024 0.2804 0.1585
C21 C 0.47024(13) 0.17113(13) 0.07711(15)
H47 H 0.4208 0.1787 0.0126
H48 H 0.5115 0.1226 0.0802
H49 H 0.5072 0.2252 0.0986
C22 C 0.42839(10) -0.00938(10) 0.13373(11)
H50 H 0.4654 -0.0031 0.0990
C23 C 0.49807(13) -0.02340(14) 0.23697(13)
H51 H 0.4634 -0.0305 0.2724
H52 H 0.5399 0.0275 0.2606
H53 H 0.5355 -0.0762 0.2438
C24 C 0.36698(13) -0.09058(11) 0.09701(14)
H54 H 0.3235 -0.0831 0.0305
H55 H 0.3310 -0.0990 0.1310
H56 H 0.4068 -0.1420 0.1059
C25 C -0.09783(10) 0.07014(10) -0.11245(10)
C26 C -0.12345(9) 0.06877(10) -0.03931(10)
C27 C -0.09364(10) -0.01710(10) -0.14330(10)
C28 C -0.11694(10) -0.07061(10) -0.08256(10)
C29 C -0.13798(9) -0.01993(10) -0.01887(10)
H57 H -0.1159(11) -0.1375(11) -0.0810(11)
H58 H -0.0866(12) 0.1239(12) -0.1391(12)
H59 H -0.1267(13) 0.1257(12) -0.0035(13)
N4B N -0.36947(8) -0.06919(8) -0.11530(9)
Mg2B Mg -0.24681(3) -0.07534(3) 0.00699(3)
Na1B Na -0.06607(4) -0.00349(4) 0.16286(4)
C25B C 0.09783(10) -0.07014(10) 0.11245(10)
C26B C 0.12345(9) -0.06877(10) 0.03931(10)
C27B C 0.09364(10) 0.01710(10) 0.14330(10)
Mg1B Mg 0.13187(3) 0.07015(4) 0.27882(3)
N2B N 0.01842(9) 0.10783(10) 0.29149(9)
N1B N 0.27479(9) 0.06325(8) 0.35505(8)
Na2B Na 0.28941(4) 0.04002(5) 0.20974(4)
C29B C 0.13798(9) 0.01993(10) 0.01887(10)
C28B C 0.11694(10) 0.07061(10) 0.08256(10)
N3B N -0.20679(9) -0.11582(9) 0.13710(9)
C13B C -0.15360(12) -0.19757(12) 0.17232(12)
H29B H -0.1063 -0.1880 0.2390
C14B C -0.10037(13) -0.21920(12) 0.11893(15)
H30B H -0.1452 -0.2321 0.0538
H31B H -0.0612 -0.1690 0.1214
H32B H -0.0602 -0.2705 0.1471
C15B C -0.21209(17) -0.27794(15) 0.1679(2)
H33B H -0.2401 -0.2693 0.2093
H34B H -0.2621 -0.2862 0.1038
H35B H -0.1716 -0.3300 0.1877
C16B C -0.26647(12) -0.09399(13) 0.18004(12)
H36B H -0.3118 -0.1433 0.1675
C17B C -0.21145(15) -0.08067(18) 0.28556(14)
H37B H -0.1769 -0.1344 0.3150
H38B H -0.1669 -0.0321 0.2994
H39B H -0.2553 -0.0669 0.3098
C18B C -0.32254(13) -0.01192(14) 0.13436(14)
H40B H -0.2794 0.0358 0.1400
H41B H -0.3648 -0.0236 0.0683
H42B H -0.3596 0.0051 0.1653
H58B H 0.0866(12) -0.1239(12) 0.1391(12)
H59B H 0.1267(13) -0.1257(12) 0.0035(13)
H57B H 0.1159(11) 0.1375(11) 0.0810(11)
C1B C 0.31822(11) 0.14655(11) 0.40057(11)
H1B H 0.3215 0.1478 0.4636
C2B C 0.25538(12) 0.22124(12) 0.34292(14)
H2B H 0.2444 0.2162 0.2785
H3B H 0.2861 0.2774 0.3691
H4B H 0.1951 0.2184 0.3440
C3B C 0.41750(12) 0.16042(13) 0.41274(15)
H5B H 0.4584 0.1125 0.4502
H6B H 0.4424 0.2164 0.4444
H7B H 0.4152 0.1612 0.3514
C4B C 0.32836(12) -0.01367(11) 0.40821(12)
H8B H 0.3924 -0.0101 0.4128
C5B C 0.28247(16) -0.09688(13) 0.35575(14)
H9B H 0.2206 -0.1037 0.3527
H10B H 0.3221 -0.1473 0.3882
H11B H 0.2750 -0.0935 0.2924
C6B C 0.34142(16) -0.01921(17) 0.50779(14)
H12B H 0.3741 0.0334 0.5426
H13B H 0.3788 -0.0713 0.5388
H14B H 0.2797 -0.0233 0.5057
C7B C 0.01749(14) 0.08503(14) 0.37840(13)
H15B H -0.0487 0.0895 0.3680
C8B C 0.0799(2) 0.1451(2) 0.46044(15)
H16B H 0.1452 0.1415 0.4716
H17B H 0.0766 0.1264 0.5165
H18B H 0.0578 0.2058 0.4454
C9B C 0.04956(16) -0.00858(16) 0.40273(16)
H19B H 0.0061 -0.0475 0.3531
H20B H 0.0505 -0.0242 0.4616
H21B H 0.1129 -0.0150 0.4092
C10B C -0.03116(13) 0.19086(12) 0.25051(14)
H22B H -0.0135 0.2350 0.3016
C11B C -0.00515(14) 0.22677(13) 0.17923(13)
H23B H 0.0608 0.2457 0.2105
H24B H -0.0456 0.2769 0.1473
H25B H -0.0136 0.1810 0.1336
C12B C -0.13992(15) 0.17947(18) 0.20047(18)
H26B H -0.1589 0.1421 0.1455
H27B H -0.1700 0.2370 0.1811
H28B H -0.1593 0.1521 0.2433
C19B C -0.42520(10) -0.15060(11) -0.13958(11)
H43B H -0.4769 -0.1447 -0.2051
C20B C -0.36382(14) -0.22721(12) -0.13657(14)
H44B H -0.3352 -0.2148 -0.1769
H45B H -0.3142 -0.2361 -0.0724
H46B H -0.4024 -0.2804 -0.1585
C21B C -0.47024(13) -0.17113(13) -0.07711(15)
H47B H -0.4208 -0.1787 -0.0126
H48B H -0.5115 -0.1226 -0.0802
H49B H -0.5072 -0.2252 -0.0986
C22B C -0.42839(10) 0.00938(10) -0.13373(11)
H50B H -0.4654 0.0031 -0.0990
C23B C -0.49807(13) 0.02340(14) -0.23697(13)
H51B H -0.4634 0.0305 -0.2724
H52B H -0.5399 -0.0275 -0.2606
H53B H -0.5355 0.0762 -0.2438
C24B C -0.36698(13) 0.09058(11) -0.09701(14)
H54B H -0.3235 0.0831 -0.0305
H55B H -0.3310 0.0990 -0.1310
H56B H -0.4068 0.1420 -0.1059
Fe1 Fe 0.0000 0.0000 1.0000
Mg1 Mg -0.13187(3) -0.07015(4) 0.72118(3)
Mg2 Mg 0.24681(3) 0.07534(3) 0.99301(3)
Na1 Na 0.06607(4) 0.00349(4) 0.83714(4)
Na2 Na -0.28941(4) -0.04002(5) 0.79026(4)
N1 N -0.27479(9) -0.06325(8) 0.64495(8)
N2 N -0.01842(9) -0.10783(10) 0.70851(9)
N3 N 0.20679(9) 0.11582(9) 0.86290(9)
N4 N 0.36947(8) 0.06919(8) 1.11530(9)
C1 C -0.31822(11) -0.14655(11) 0.59943(11)
H1 H -0.3215 -0.1478 0.5364
C2 C -0.25538(12) -0.22124(12) 0.65708(14)
H2 H -0.2444 -0.2162 0.7215
H3 H -0.2861 -0.2774 0.6309
H4 H -0.1951 -0.2184 0.6560
C3 C -0.41750(12) -0.16042(13) 0.58726(15)
H5 H -0.4584 -0.1125 0.5498
H6 H -0.4424 -0.2164 0.5556
H7 H -0.4152 -0.1612 0.6486
C4 C -0.32836(12) 0.01367(11) 0.59179(12)
H8 H -0.3924 0.0101 0.5872
C5 C -0.28247(16) 0.09688(13) 0.64425(14)
H9 H -0.2206 0.1037 0.6473
H10 H -0.3221 0.1473 0.6118
H11 H -0.2750 0.0935 0.7076
C6 C -0.34142(16) 0.01921(17) 0.49221(14)
H12 H -0.3741 -0.0334 0.4574
H13 H -0.3788 0.0713 0.4612
H14 H -0.2797 0.0233 0.4943
C7 C -0.01749(14) -0.08503(14) 0.62160(13)
H15 H 0.0487 -0.0895 0.6320
C8 C -0.0799(2) -0.1451(2) 0.53956(15)
H16 H -0.1452 -0.1415 0.5284
H17 H -0.0766 -0.1264 0.4835
H18 H -0.0578 -0.2058 0.5546
C9 C -0.04956(16) 0.00858(16) 0.59727(16)
H19 H -0.0061 0.0475 0.6469
H20 H -0.0505 0.0242 0.5384
H21 H -0.1129 0.0150 0.5908
C10 C 0.03116(13) -0.19086(12) 0.74949(14)
H22 H 0.0135 -0.2350 0.6984
C11 C 0.00515(14) -0.22677(13) 0.82077(13)
H23 H -0.0608 -0.2457 0.7895
H24 H 0.0456 -0.2769 0.8527
H25 H 0.0136 -0.1810 0.8664
C12 C 0.13992(15) -0.17947(18) 0.79953(18)
H26 H 0.1589 -0.1421 0.8545
H27 H 0.1700 -0.2370 0.8189
H28 H 0.1593 -0.1521 0.7567
C13 C 0.15360(12) 0.19757(12) 0.82768(12)
H29 H 0.1063 0.1880 0.7610
C14 C 0.10037(13) 0.21920(12) 0.88107(15)
H30 H 0.1452 0.2321 0.9462
H31 H 0.0612 0.1690 0.8786
H32 H 0.0602 0.2705 0.8529
C15 C 0.21209(17) 0.27794(15) 0.8321(2)
H33 H 0.2401 0.2693 0.7907
H34 H 0.2621 0.2862 0.8962
H35 H 0.1716 0.3300 0.8123
C16 C 0.26647(12) 0.09399(13) 0.81996(12)
H36 H 0.3118 0.1433 0.8325
C17 C 0.21145(15) 0.08067(18) 0.71444(14)
H37 H 0.1769 0.1344 0.6850
H38 H 0.1669 0.0321 0.7006
H39 H 0.2553 0.0669 0.6902
C18 C 0.32254(13) 0.01192(14) 0.86564(14)
H40 H 0.2794 -0.0358 0.8600
H41 H 0.3648 0.0236 0.9317
H42 H 0.3596 -0.0051 0.8347
C19 C 0.42520(10) 0.15060(11) 1.13958(11)
H43 H 0.4769 0.1447 1.2051
C20 C 0.36382(14) 0.22721(12) 1.13657(14)
H44 H 0.3352 0.2148 1.1769
H45 H 0.3142 0.2361 1.0724
H46 H 0.4024 0.2804 1.1585
C21 C 0.47024(13) 0.17113(13) 1.07711(15)
H47 H 0.4208 0.1787 1.0126
H48 H 0.5115 0.1226 1.0802
H49 H 0.5072 0.2252 1.0986
C22 C 0.42839(10) -0.00938(10) 1.13373(11)
H50 H 0.4654 -0.0031 1.0990
C23 C 0.49807(13) -0.02340(14) 1.23697(13)
H51 H 0.4634 -0.0305 1.2724
H52 H 0.5399 0.0275 1.2606
H53 H 0.5355 -0.0762 1.2438
C24 C 0.36698(13) -0.09058(11) 1.09701(14)
H54 H 0.3235 -0.0831 1.0305
H55 H 0.3310 -0.0990 1.1310
H56 H 0.4068 -0.1420 1.1059
C25 C -0.09783(10) 0.07014(10) 0.88755(10)
C26 C -0.12345(9) 0.06877(10) 0.96069(10)
C27 C -0.09364(10) -0.01710(10) 0.85670(10)
C28 C -0.11694(10) -0.07061(10) 0.91744(10)
C29 C -0.13798(9) -0.01993(10) 0.98113(10)
H57 H -0.1159(11) -0.1375(11) 0.9190(11)
H58 H -0.0866(12) 0.1239(12) 0.8609(12)
H59 H -0.1267(13) 0.1257(12) 0.9965(13)
N4B N -0.36947(8) -0.06919(8) 0.88470(9)
Mg2B Mg -0.24681(3) -0.07534(3) 1.00699(3)
Na1B Na -0.06607(4) -0.00349(4) 1.16286(4)
C25B C 0.09783(10) -0.07014(10) 1.11245(10)
C26B C 0.12345(9) -0.06877(10) 1.03931(10)
C27B C 0.09364(10) 0.01710(10) 1.14330(10)
Mg1B Mg 0.13187(3) 0.07015(4) 1.27882(3)
N2B N 0.01842(9) 0.10783(10) 1.29149(9)
N1B N 0.27479(9) 0.06325(8) 1.35505(8)
Na2B Na 0.28941(4) 0.04002(5) 1.20974(4)
C29B C 0.13798(9) 0.01993(10) 1.01887(10)
C28B C 0.11694(10) 0.07061(10) 1.08256(10)
N3B N -0.20679(9) -0.11582(9) 1.13710(9)
C13B C -0.15360(12) -0.19757(12) 1.17232(12)
H29B H -0.1063 -0.1880 1.2390
C14B C -0.10037(13) -0.21920(12) 1.11893(15)
H30B H -0.1452 -0.2321 1.0538
H31B H -0.0612 -0.1690 1.1214
H32B H -0.0602 -0.2705 1.1471
C15B C -0.21209(17) -0.27794(15) 1.1679(2)
H33B H -0.2401 -0.2693 1.2093
H34B H -0.2621 -0.2862 1.1038
H35B H -0.1716 -0.3300 1.1877
C16B C -0.26647(12) -0.09399(13) 1.18004(12)
H36B H -0.3118 -0.1433 1.1675
C17B C -0.21145(15) -0.08067(18) 1.28556(14)
H37B H -0.1769 -0.1344 1.3150
H38B H -0.1669 -0.0321 1.2994
H39B H -0.2553 -0.0669 1.3098
C18B C -0.32254(13) -0.01192(14) 1.13436(14)
H40B H -0.2794 0.0358 1.1400
H41B H -0.3648 -0.0236 1.0683
H42B H -0.3596 0.0051 1.1653
H58B H 0.0866(12) -0.1239(12) 1.1391(12)
H59B H 0.1267(13) -0.1257(12) 1.0035(13)
H57B H 0.1159(11) 0.1375(11) 1.0810(11)
C1B C 0.31822(11) 0.14655(11) 1.40057(11)
H1B H 0.3215 0.1478 1.4636
C2B C 0.25538(12) 0.22124(12) 1.34292(14)
H2B H 0.2444 0.2162 1.2785
H3B H 0.2861 0.2774 1.3691
H4B H 0.1951 0.2184 1.3440
C3B C 0.41750(12) 0.16042(13) 1.41274(15)
H5B H 0.4584 0.1125 1.4502
H6B H 0.4424 0.2164 1.4444
H7B H 0.4152 0.1612 1.3514
C4B C 0.32836(12) -0.01367(11) 1.40821(12)
H8B H 0.3924 -0.0101 1.4128
C5B C 0.28247(16) -0.09688(13) 1.35575(14)
H9B H 0.2206 -0.1037 1.3527
H10B H 0.3221 -0.1473 1.3882
H11B H 0.2750 -0.0935 1.2924
C6B C 0.34142(16) -0.01921(17) 1.50779(14)
H12B H 0.3741 0.0334 1.5426
H13B H 0.3788 -0.0713 1.5388
H14B H 0.2797 -0.0233 1.5057
C7B C 0.01749(14) 0.08503(14) 1.37840(13)
H15B H -0.0487 0.0895 1.3680
C8B C 0.0799(2) 0.1451(2) 1.46044(15)
H16B H 0.1452 0.1415 1.4716
H17B H 0.0766 0.1264 1.5165
H18B H 0.0578 0.2058 1.4454
C9B C 0.04956(16) -0.00858(16) 1.40273(16)
H19B H 0.0061 -0.0475 1.3531
H20B H 0.0505 -0.0242 1.4616
H21B H 0.1129 -0.0150 1.4092
C10B C -0.03116(13) 0.19086(12) 1.25051(14)
H22B H -0.0135 0.2350 1.3016
C11B C -0.00515(14) 0.22677(13) 1.17923(13)
H23B H 0.0608 0.2457 1.2105
H24B H -0.0456 0.2769 1.1473
H25B H -0.0136 0.1810 1.1336
C12B C -0.13992(15) 0.17947(18) 1.20047(18)
H26B H -0.1589 0.1421 1.1455
H27B H -0.1700 0.2370 1.1811
H28B H -0.1593 0.1521 1.2433
C19B C -0.42520(10) -0.15060(11) 0.86042(11)
H43B H -0.4769 -0.1447 0.7949
C20B C -0.36382(14) -0.22721(12) 0.86343(14)
H44B H -0.3352 -0.2148 0.8231
H45B H -0.3142 -0.2361 0.9276
H46B H -0.4024 -0.2804 0.8415
C21B C -0.47024(13) -0.17113(13) 0.92289(15)
H47B H -0.4208 -0.1787 0.9874
H48B H -0.5115 -0.1226 0.9198
H49B H -0.5072 -0.2252 0.9014
C22B C -0.42839(10) 0.00938(10) 0.86627(11)
H50B H -0.4654 0.0031 0.9010
C23B C -0.49807(13) 0.02340(14) 0.76303(13)
H51B H -0.4634 0.0305 0.7276
H52B H -0.5399 -0.0275 0.7394
H53B H -0.5355 0.0762 0.7562
C24B C -0.36698(13) 0.09058(11) 0.90299(14)
H54B H -0.3235 0.0831 0.9695
H55B H -0.3310 0.0990 0.8690
H56B H -0.4068 0.1420 0.8941
Fe1 Fe 0.0000 1.0000 0.0000
Mg1 Mg -0.13187(3) 0.92985(4) -0.27882(3)
Mg2 Mg 0.24681(3) 1.07534(3) -0.00699(3)
Na1 Na 0.06607(4) 1.00349(4) -0.16286(4)
Na2 Na -0.28941(4) 0.95998(5) -0.20974(4)
N1 N -0.27479(9) 0.93675(8) -0.35505(8)
N2 N -0.01842(9) 0.89217(10) -0.29149(9)
N3 N 0.20679(9) 1.11582(9) -0.13710(9)
N4 N 0.36947(8) 1.06919(8) 0.11530(9)
C1 C -0.31822(11) 0.85345(11) -0.40057(11)
H1 H -0.3215 0.8522 -0.4636
C2 C -0.25538(12) 0.77876(12) -0.34292(14)
H2 H -0.2444 0.7838 -0.2785
H3 H -0.2861 0.7226 -0.3691
H4 H -0.1951 0.7816 -0.3440
C3 C -0.41750(12) 0.83958(13) -0.41274(15)
H5 H -0.4584 0.8875 -0.4502
H6 H -0.4424 0.7836 -0.4444
H7 H -0.4152 0.8388 -0.3514
C4 C -0.32836(12) 1.01367(11) -0.40821(12)
H8 H -0.3924 1.0101 -0.4128
C5 C -0.28247(16) 1.09688(13) -0.35575(14)
H9 H -0.2206 1.1037 -0.3527
H10 H -0.3221 1.1473 -0.3882
H11 H -0.2750 1.0935 -0.2924
C6 C -0.34142(16) 1.01921(17) -0.50779(14)
H12 H -0.3741 0.9666 -0.5426
H13 H -0.3788 1.0713 -0.5388
H14 H -0.2797 1.0233 -0.5057
C7 C -0.01749(14) 0.91497(14) -0.37840(13)
H15 H 0.0487 0.9105 -0.3680
C8 C -0.0799(2) 0.8549(2) -0.46044(15)
H16 H -0.1452 0.8585 -0.4716
H17 H -0.0766 0.8736 -0.5165
H18 H -0.0578 0.7942 -0.4454
C9 C -0.04956(16) 1.00858(16) -0.40273(16)
H19 H -0.0061 1.0475 -0.3531
H20 H -0.0505 1.0242 -0.4616
H21 H -0.1129 1.0150 -0.4092
C10 C 0.03116(13) 0.80914(12) -0.25051(14)
H22 H 0.0135 0.7650 -0.3016
C11 C 0.00515(14) 0.77323(13) -0.17923(13)
H23 H -0.0608 0.7543 -0.2105
H24 H 0.0456 0.7231 -0.1473
H25 H 0.0136 0.8190 -0.1336
C12 C 0.13992(15) 0.82053(18) -0.20047(18)
H26 H 0.1589 0.8579 -0.1455
H27 H 0.1700 0.7630 -0.1811
H28 H 0.1593 0.8479 -0.2433
C13 C 0.15360(12) 1.19757(12) -0.17232(12)
H29 H 0.1063 1.1880 -0.2390
C14 C 0.10037(13) 1.21920(12) -0.11893(15)
H30 H 0.1452 1.2321 -0.0538
H31 H 0.0612 1.1690 -0.1214
H32 H 0.0602 1.2705 -0.1471
C15 C 0.21209(17) 1.27794(15) -0.1679(2)
H33 H 0.2401 1.2693 -0.2093
H34 H 0.2621 1.2862 -0.1038
H35 H 0.1716 1.3300 -0.1877
C16 C 0.26647(12) 1.09399(13) -0.18004(12)
H36 H 0.3118 1.1433 -0.1675
C17 C 0.21145(15) 1.08067(18) -0.28556(14)
H37 H 0.1769 1.1344 -0.3150
H38 H 0.1669 1.0321 -0.2994
H39 H 0.2553 1.0669 -0.3098
C18 C 0.32254(13) 1.01192(14) -0.13436(14)
H40 H 0.2794 0.9642 -0.1400
H41 H 0.3648 1.0236 -0.0683
H42 H 0.3596 0.9949 -0.1653
C19 C 0.42520(10) 1.15060(11) 0.13958(11)
H43 H 0.4769 1.1447 0.2051
C20 C 0.36382(14) 1.22721(12) 0.13657(14)
H44 H 0.3352 1.2148 0.1769
H45 H 0.3142 1.2361 0.0724
H46 H 0.4024 1.2804 0.1585
C21 C 0.47024(13) 1.17113(13) 0.07711(15)
H47 H 0.4208 1.1787 0.0126
H48 H 0.5115 1.1226 0.0802
H49 H 0.5072 1.2252 0.0986
C22 C 0.42839(10) 0.99062(10) 0.13373(11)
H50 H 0.4654 0.9969 0.0990
C23 C 0.49807(13) 0.97660(14) 0.23697(13)
H51 H 0.4634 0.9695 0.2724
H52 H 0.5399 1.0275 0.2606
H53 H 0.5355 0.9238 0.2438
C24 C 0.36698(13) 0.90942(11) 0.09701(14)
H54 H 0.3235 0.9169 0.0305
H55 H 0.3310 0.9010 0.1310
H56 H 0.4068 0.8580 0.1059
C25 C -0.09783(10) 1.07014(10) -0.11245(10)
C26 C -0.12345(9) 1.06877(10) -0.03931(10)
C27 C -0.09364(10) 0.98290(10) -0.14330(10)
C28 C -0.11694(10) 0.92939(10) -0.08256(10)
C29 C -0.13798(9) 0.98007(10) -0.01887(10)
H57 H -0.1159(11) 0.8625(11) -0.0810(11)
H58 H -0.0866(12) 1.1239(12) -0.1391(12)
H59 H -0.1267(13) 1.1257(12) -0.0035(13)
N4B N -0.36947(8) 0.93081(8) -0.11530(9)
Mg2B Mg -0.24681(3) 0.92466(3) 0.00699(3)
Na1B Na -0.06607(4) 0.99651(4) 0.16286(4)
C25B C 0.09783(10) 0.92986(10) 0.11245(10)
C26B C 0.12345(9) 0.93123(10) 0.03931(10)
C27B C 0.09364(10) 1.01710(10) 0.14330(10)
Mg1B Mg 0.13187(3) 1.07015(4) 0.27882(3)
N2B N 0.01842(9) 1.10783(10) 0.29149(9)
N1B N 0.27479(9) 1.06325(8) 0.35505(8)
Na2B Na 0.28941(4) 1.04002(5) 0.20974(4)
C29B C 0.13798(9) 1.01993(10) 0.01887(10)
C28B C 0.11694(10) 1.07061(10) 0.08256(10)
N3B N -0.20679(9) 0.88418(9) 0.13710(9)
C13B C -0.15360(12) 0.80243(12) 0.17232(12)
H29B H -0.1063 0.8120 0.2390
C14B C -0.10037(13) 0.78080(12) 0.11893(15)
H30B H -0.1452 0.7679 0.0538
H31B H -0.0612 0.8310 0.1214
H32B H -0.0602 0.7295 0.1471
C15B C -0.21209(17) 0.72206(15) 0.1679(2)
H33B H -0.2401 0.7307 0.2093
H34B H -0.2621 0.7138 0.1038
H35B H -0.1716 0.6700 0.1877
C16B C -0.26647(12) 0.90601(13) 0.18004(12)
H36B H -0.3118 0.8567 0.1675
C17B C -0.21145(15) 0.91933(18) 0.28556(14)
H37B H -0.1769 0.8656 0.3150
H38B H -0.1669 0.9679 0.2994
H39B H -0.2553 0.9331 0.3098
C18B C -0.32254(13) 0.98808(14) 0.13436(14)
H40B H -0.2794 1.0358 0.1400
H41B H -0.3648 0.9764 0.0683
H42B H -0.3596 1.0051 0.1653
H58B H 0.0866(12) 0.8761(12) 0.1391(12)
H59B H 0.1267(13) 0.8743(12) 0.0035(13)
H57B H 0.1159(11) 1.1375(11) 0.0810(11)
C1B C 0.31822(11) 1.14655(11) 0.40057(11)
H1B H 0.3215 1.1478 0.4636
C2B C 0.25538(12) 1.22124(12) 0.34292(14)
H2B H 0.2444 1.2162 0.2785
H3B H 0.2861 1.2774 0.3691
H4B H 0.1951 1.2184 0.3440
C3B C 0.41750(12) 1.16042(13) 0.41274(15)
H5B H 0.4584 1.1125 0.4502
H6B H 0.4424 1.2164 0.4444
H7B H 0.4152 1.1612 0.3514
C4B C 0.32836(12) 0.98633(11) 0.40821(12)
H8B H 0.3924 0.9899 0.4128
C5B C 0.28247(16) 0.90312(13) 0.35575(14)
H9B H 0.2206 0.8963 0.3527
H10B H 0.3221 0.8527 0.3882
H11B H 0.2750 0.9065 0.2924
C6B C 0.34142(16) 0.98079(17) 0.50779(14)
H12B H 0.3741 1.0334 0.5426
H13B H 0.3788 0.9287 0.5388
H14B H 0.2797 0.9767 0.5057
C7B C 0.01749(14) 1.08503(14) 0.37840(13)
H15B H -0.0487 1.0895 0.3680
C8B C 0.0799(2) 1.1451(2) 0.46044(15)
H16B H 0.1452 1.1415 0.4716
H17B H 0.0766 1.1264 0.5165
H18B H 0.0578 1.2058 0.4454
C9B C 0.04956(16) 0.99142(16) 0.40273(16)
H19B H 0.0061 0.9525 0.3531
H20B H 0.0505 0.9758 0.4616
H21B H 0.1129 0.9850 0.4092
C10B C -0.03116(13) 1.19086(12) 0.25051(14)
H22B H -0.0135 1.2350 0.3016
C11B C -0.00515(14) 1.22677(13) 0.17923(13)
H23B H 0.0608 1.2457 0.2105
H24B H -0.0456 1.2769 0.1473
H25B H -0.0136 1.1810 0.1336
C12B C -0.13992(15) 1.17947(18) 0.20047(18)
H26B H -0.1589 1.1421 0.1455
H27B H -0.1700 1.2370 0.1811
H28B H -0.1593 1.1521 0.2433
C19B C -0.42520(10) 0.84940(11) -0.13958(11)
H43B H -0.4769 0.8553 -0.2051
C20B C -0.36382(14) 0.77279(12) -0.13657(14)
H44B H -0.3352 0.7852 -0.1769
H45B H -0.3142 0.7639 -0.0724
H46B H -0.4024 0.7196 -0.1585
C21B C -0.47024(13) 0.82887(13) -0.07711(15)
H47B H -0.4208 0.8213 -0.0126
H48B H -0.5115 0.8774 -0.0802
H49B H -0.5072 0.7748 -0.0986
C22B C -0.42839(10) 1.00938(10) -0.13373(11)
H50B H -0.4654 1.0031 -0.0990
C23B C -0.49807(13) 1.02340(14) -0.23697(13)
H51B H -0.4634 1.0305 -0.2724
H52B H -0.5399 0.9725 -0.2606
H53B H -0.5355 1.0762 -0.2438
C24B C -0.36698(13) 1.09058(11) -0.09701(14)
H54B H -0.3235 1.0831 -0.0305
H55B H -0.3310 1.0990 -0.1310
H56B H -0.4068 1.1420 -0.1059
Fe1 Fe 0.0000 1.0000 1.0000
Mg1 Mg -0.13187(3) 0.92985(4) 0.72118(3)
Mg2 Mg 0.24681(3) 1.07534(3) 0.99301(3)
Na1 Na 0.06607(4) 1.00349(4) 0.83714(4)
Na2 Na -0.28941(4) 0.95998(5) 0.79026(4)
N1 N -0.27479(9) 0.93675(8) 0.64495(8)
N2 N -0.01842(9) 0.89217(10) 0.70851(9)
N3 N 0.20679(9) 1.11582(9) 0.86290(9)
N4 N 0.36947(8) 1.06919(8) 1.11530(9)
C1 C -0.31822(11) 0.85345(11) 0.59943(11)
H1 H -0.3215 0.8522 0.5364
C2 C -0.25538(12) 0.77876(12) 0.65708(14)
H2 H -0.2444 0.7838 0.7215
H3 H -0.2861 0.7226 0.6309
H4 H -0.1951 0.7816 0.6560
C3 C -0.41750(12) 0.83958(13) 0.58726(15)
H5 H -0.4584 0.8875 0.5498
H6 H -0.4424 0.7836 0.5556
H7 H -0.4152 0.8388 0.6486
C4 C -0.32836(12) 1.01367(11) 0.59179(12)
H8 H -0.3924 1.0101 0.5872
C5 C -0.28247(16) 1.09688(13) 0.64425(14)
H9 H -0.2206 1.1037 0.6473
H10 H -0.3221 1.1473 0.6118
H11 H -0.2750 1.0935 0.7076
C6 C -0.34142(16) 1.01921(17) 0.49221(14)
H12 H -0.3741 0.9666 0.4574
H13 H -0.3788 1.0713 0.4612
H14 H -0.2797 1.0233 0.4943
C7 C -0.01749(14) 0.91497(14) 0.62160(13)
H15 H 0.0487 0.9105 0.6320
C8 C -0.0799(2) 0.8549(2) 0.53956(15)
H16 H -0.1452 0.8585 0.5284
H17 H -0.0766 0.8736 0.4835
H18 H -0.0578 0.7942 0.5546
C9 C -0.04956(16) 1.00858(16) 0.59727(16)
H19 H -0.0061 1.0475 0.6469
H20 H -0.0505 1.0242 0.5384
H21 H -0.1129 1.0150 0.5908
C10 C 0.03116(13) 0.80914(12) 0.74949(14)
H22 H 0.0135 0.7650 0.6984
C11 C 0.00515(14) 0.77323(13) 0.82077(13)
H23 H -0.0608 0.7543 0.7895
H24 H 0.0456 0.7231 0.8527
H25 H 0.0136 0.8190 0.8664
C12 C 0.13992(15) 0.82053(18) 0.79953(18)
H26 H 0.1589 0.8579 0.8545
H27 H 0.1700 0.7630 0.8189
H28 H 0.1593 0.8479 0.7567
C13 C 0.15360(12) 1.19757(12) 0.82768(12)
H29 H 0.1063 1.1880 0.7610
C14 C 0.10037(13) 1.21920(12) 0.88107(15)
H30 H 0.1452 1.2321 0.9462
H31 H 0.0612 1.1690 0.8786
H32 H 0.0602 1.2705 0.8529
C15 C 0.21209(17) 1.27794(15) 0.8321(2)
H33 H 0.2401 1.2693 0.7907
H34 H 0.2621 1.2862 0.8962
H35 H 0.1716 1.3300 0.8123
C16 C 0.26647(12) 1.09399(13) 0.81996(12)
H36 H 0.3118 1.1433 0.8325
C17 C 0.21145(15) 1.08067(18) 0.71444(14)
H37 H 0.1769 1.1344 0.6850
H38 H 0.1669 1.0321 0.7006
H39 H 0.2553 1.0669 0.6902
C18 C 0.32254(13) 1.01192(14) 0.86564(14)
H40 H 0.2794 0.9642 0.8600
H41 H 0.3648 1.0236 0.9317
H42 H 0.3596 0.9949 0.8347
C19 C 0.42520(10) 1.15060(11) 1.13958(11)
H43 H 0.4769 1.1447 1.2051
C20 C 0.36382(14) 1.22721(12) 1.13657(14)
H44 H 0.3352 1.2148 1.1769
H45 H 0.3142 1.2361 1.0724
H46 H 0.4024 1.2804 1.1585
C21 C 0.47024(13) 1.17113(13) 1.07711(15)
H47 H 0.4208 1.1787 1.0126
H48 H 0.5115 1.1226 1.0802
H49 H 0.5072 1.2252 1.0986
C22 C 0.42839(10) 0.99062(10) 1.13373(11)
H50 H 0.4654 0.9969 1.0990
C23 C 0.49807(13) 0.97660(14) 1.23697(13)
H51 H 0.4634 0.9695 1.2724
H52 H 0.5399 1.0275 1.2606
H53 H 0.5355 0.9238 1.2438
C24 C 0.36698(13) 0.90942(11) 1.09701(14)
H54 H 0.3235 0.9169 1.0305
H55 H 0.3310 0.9010 1.1310
H56 H 0.4068 0.8580 1.1059
C25 C -0.09783(10) 1.07014(10) 0.88755(10)
C26 C -0.12345(9) 1.06877(10) 0.96069(10)
C27 C -0.09364(10) 0.98290(10) 0.85670(10)
C28 C -0.11694(10) 0.92939(10) 0.91744(10)
C29 C -0.13798(9) 0.98007(10) 0.98113(10)
H57 H -0.1159(11) 0.8625(11) 0.9190(11)
H58 H -0.0866(12) 1.1239(12) 0.8609(12)
H59 H -0.1267(13) 1.1257(12) 0.9965(13)
N4B N -0.36947(8) 0.93081(8) 0.88470(9)
Mg2B Mg -0.24681(3) 0.92466(3) 1.00699(3)
Na1B Na -0.06607(4) 0.99651(4) 1.16286(4)
C25B C 0.09783(10) 0.92986(10) 1.11245(10)
C26B C 0.12345(9) 0.93123(10) 1.03931(10)
C27B C 0.09364(10) 1.01710(10) 1.14330(10)
Mg1B Mg 0.13187(3) 1.07015(4) 1.27882(3)
N2B N 0.01842(9) 1.10783(10) 1.29149(9)
N1B N 0.27479(9) 1.06325(8) 1.35505(8)
Na2B Na 0.28941(4) 1.04002(5) 1.20974(4)
C29B C 0.13798(9) 1.01993(10) 1.01887(10)
C28B C 0.11694(10) 1.07061(10) 1.08256(10)
N3B N -0.20679(9) 0.88418(9) 1.13710(9)
C13B C -0.15360(12) 0.80243(12) 1.17232(12)
H29B H -0.1063 0.8120 1.2390
C14B C -0.10037(13) 0.78080(12) 1.11893(15)
H30B H -0.1452 0.7679 1.0538
H31B H -0.0612 0.8310 1.1214
H32B H -0.0602 0.7295 1.1471
C15B C -0.21209(17) 0.72206(15) 1.1679(2)
H33B H -0.2401 0.7307 1.2093
H34B H -0.2621 0.7138 1.1038
H35B H -0.1716 0.6700 1.1877
C16B C -0.26647(12) 0.90601(13) 1.18004(12)
H36B H -0.3118 0.8567 1.1675
C17B C -0.21145(15) 0.91933(18) 1.28556(14)
H37B H -0.1769 0.8656 1.3150
H38B H -0.1669 0.9679 1.2994
H39B H -0.2553 0.9331 1.3098
C18B C -0.32254(13) 0.98808(14) 1.13436(14)
H40B H -0.2794 1.0358 1.1400
H41B H -0.3648 0.9764 1.0683
H42B H -0.3596 1.0051 1.1653
H58B H 0.0866(12) 0.8761(12) 1.1391(12)
H59B H 0.1267(13) 0.8743(12) 1.0035(13)
H57B H 0.1159(11) 1.1375(11) 1.0810(11)
C1B C 0.31822(11) 1.14655(11) 1.40057(11)
H1B H 0.3215 1.1478 1.4636
C2B C 0.25538(12) 1.22124(12) 1.34292(14)
H2B H 0.2444 1.2162 1.2785
H3B H 0.2861 1.2774 1.3691
H4B H 0.1951 1.2184 1.3440
C3B C 0.41750(12) 1.16042(13) 1.41274(15)
H5B H 0.4584 1.1125 1.4502
H6B H 0.4424 1.2164 1.4444
H7B H 0.4152 1.1612 1.3514
C4B C 0.32836(12) 0.98633(11) 1.40821(12)
H8B H 0.3924 0.9899 1.4128
C5B C 0.28247(16) 0.90312(13) 1.35575(14)
H9B H 0.2206 0.8963 1.3527
H10B H 0.3221 0.8527 1.3882
H11B H 0.2750 0.9065 1.2924
C6B C 0.34142(16) 0.98079(17) 1.50779(14)
H12B H 0.3741 1.0334 1.5426
H13B H 0.3788 0.9287 1.5388
H14B H 0.2797 0.9767 1.5057
C7B C 0.01749(14) 1.08503(14) 1.37840(13)
H15B H -0.0487 1.0895 1.3680
C8B C 0.0799(2) 1.1451(2) 1.46044(15)
H16B H 0.1452 1.1415 1.4716
H17B H 0.0766 1.1264 1.5165
H18B H 0.0578 1.2058 1.4454
C9B C 0.04956(16) 0.99142(16) 1.40273(16)
H19B H 0.0061 0.9525 1.3531
H20B H 0.0505 0.9758 1.4616
H21B H 0.1129 0.9850 1.4092
C10B C -0.03116(13) 1.19086(12) 1.25051(14)
H22B H -0.0135 1.2350 1.3016
C11B C -0.00515(14) 1.22677(13) 1.17923(13)
H23B H 0.0608 1.2457 1.2105
H24B H -0.0456 1.2769 1.1473
H25B H -0.0136 1.1810 1.1336
C12B C -0.13992(15) 1.17947(18) 1.20047(18)
H26B H -0.1589 1.1421 1.1455
H27B H -0.1700 1.2370 1.1811
H28B H -0.1593 1.1521 1.2433
C19B C -0.42520(10) 0.84940(11) 0.86042(11)
H43B H -0.4769 0.8553 0.7949
C20B C -0.36382(14) 0.77279(12) 0.86343(14)
H44B H -0.3352 0.7852 0.8231
H45B H -0.3142 0.7639 0.9276
H46B H -0.4024 0.7196 0.8415
C21B C -0.47024(13) 0.82887(13) 0.92289(15)
H47B H -0.4208 0.8213 0.9874
H48B H -0.5115 0.8774 0.9198
H49B H -0.5072 0.7748 0.9014
C22B C -0.42839(10) 1.00938(10) 0.86627(11)
H50B H -0.4654 1.0031 0.9010
C23B C -0.49807(13) 1.02340(14) 0.76303(13)
H51B H -0.4634 1.0305 0.7276
H52B H -0.5399 0.9725 0.7394
H53B H -0.5355 1.0762 0.7562
C24B C -0.36698(13) 1.09058(11) 0.90299(14)
H54B H -0.3235 1.0831 0.9695
H55B H -0.3310 1.0990 0.8690
H56B H -0.4068 1.1420 0.8941
Fe1 Fe 1.0000 0.0000 0.0000
Mg1 Mg 0.86813(3) -0.07015(4) -0.27882(3)
Mg2 Mg 1.24681(3) 0.07534(3) -0.00699(3)
Na1 Na 1.06607(4) 0.00349(4) -0.16286(4)
Na2 Na 0.71059(4) -0.04002(5) -0.20974(4)
N1 N 0.72521(9) -0.06325(8) -0.35505(8)
N2 N 0.98158(9) -0.10783(10) -0.29149(9)
N3 N 1.20679(9) 0.11582(9) -0.13710(9)
N4 N 1.36947(8) 0.06919(8) 0.11530(9)
C1 C 0.68178(11) -0.14655(11) -0.40057(11)
H1 H 0.6785 -0.1478 -0.4636
C2 C 0.74462(12) -0.22124(12) -0.34292(14)
H2 H 0.7556 -0.2162 -0.2785
H3 H 0.7139 -0.2774 -0.3691
H4 H 0.8049 -0.2184 -0.3440
C3 C 0.58250(12) -0.16042(13) -0.41274(15)
H5 H 0.5416 -0.1125 -0.4502
H6 H 0.5576 -0.2164 -0.4444
H7 H 0.5848 -0.1612 -0.3514
C4 C 0.67164(12) 0.01367(11) -0.40821(12)
H8 H 0.6076 0.0101 -0.4128
C5 C 0.71753(16) 0.09688(13) -0.35575(14)
H9 H 0.7794 0.1037 -0.3527
H10 H 0.6779 0.1473 -0.3882
H11 H 0.7250 0.0935 -0.2924
C6 C 0.65858(16) 0.01921(17) -0.50779(14)
H12 H 0.6259 -0.0334 -0.5426
H13 H 0.6212 0.0713 -0.5388
H14 H 0.7203 0.0233 -0.5057
C7 C 0.98251(14) -0.08503(14) -0.37840(13)
H15 H 1.0487 -0.0895 -0.3680
C8 C 0.9201(2) -0.1451(2) -0.46044(15)
H16 H 0.8548 -0.1415 -0.4716
H17 H 0.9234 -0.1264 -0.5165
H18 H 0.9422 -0.2058 -0.4454
C9 C 0.95044(16) 0.00858(16) -0.40273(16)
H19 H 0.9939 0.0475 -0.3531
H20 H 0.9495 0.0242 -0.4616
H21 H 0.8871 0.0150 -0.4092
C10 C 1.03116(13) -0.19086(12) -0.25051(14)
H22 H 1.0135 -0.2350 -0.3016
C11 C 1.00515(14) -0.22677(13) -0.17923(13)
H23 H 0.9392 -0.2457 -0.2105
H24 H 1.0456 -0.2769 -0.1473
H25 H 1.0136 -0.1810 -0.1336
C12 C 1.13992(15) -0.17947(18) -0.20047(18)
H26 H 1.1589 -0.1421 -0.1455
H27 H 1.1700 -0.2370 -0.1811
H28 H 1.1593 -0.1521 -0.2433
C13 C 1.15360(12) 0.19757(12) -0.17232(12)
H29 H 1.1063 0.1880 -0.2390
C14 C 1.10037(13) 0.21920(12) -0.11893(15)
H30 H 1.1452 0.2321 -0.0538
H31 H 1.0612 0.1690 -0.1214
H32 H 1.0602 0.2705 -0.1471
C15 C 1.21209(17) 0.27794(15) -0.1679(2)
H33 H 1.2401 0.2693 -0.2093
H34 H 1.2621 0.2862 -0.1038
H35 H 1.1716 0.3300 -0.1877
C16 C 1.26647(12) 0.09399(13) -0.18004(12)
H36 H 1.3118 0.1433 -0.1675
C17 C 1.21145(15) 0.08067(18) -0.28556(14)
H37 H 1.1769 0.1344 -0.3150
H38 H 1.1669 0.0321 -0.2994
H39 H 1.2553 0.0669 -0.3098
C18 C 1.32254(13) 0.01192(14) -0.13436(14)
H40 H 1.2794 -0.0358 -0.1400
H41 H 1.3648 0.0236 -0.0683
H42 H 1.3596 -0.0051 -0.1653
C19 C 1.42520(10) 0.15060(11) 0.13958(11)
H43 H 1.4769 0.1447 0.2051
C20 C 1.36382(14) 0.22721(12) 0.13657(14)
H44 H 1.3352 0.2148 0.1769
H45 H 1.3142 0.2361 0.0724
H46 H 1.4024 0.2804 0.1585
C21 C 1.47024(13) 0.17113(13) 0.07711(15)
H47 H 1.4208 0.1787 0.0126
H48 H 1.5115 0.1226 0.0802
H49 H 1.5072 0.2252 0.0986
C22 C 1.42839(10) -0.00938(10) 0.13373(11)
H50 H 1.4654 -0.0031 0.0990
C23 C 1.49807(13) -0.02340(14) 0.23697(13)
H51 H 1.4634 -0.0305 0.2724
H52 H 1.5399 0.0275 0.2606
H53 H 1.5355 -0.0762 0.2438
C24 C 1.36698(13) -0.09058(11) 0.09701(14)
H54 H 1.3235 -0.0831 0.0305
H55 H 1.3310 -0.0990 0.1310
H56 H 1.4068 -0.1420 0.1059
C25 C 0.90217(10) 0.07014(10) -0.11245(10)
C26 C 0.87655(9) 0.06877(10) -0.03931(10)
C27 C 0.90636(10) -0.01710(10) -0.14330(10)
C28 C 0.88306(10) -0.07061(10) -0.08256(10)
C29 C 0.86202(9) -0.01993(10) -0.01887(10)
H57 H 0.8841(11) -0.1375(11) -0.0810(11)
H58 H 0.9134(12) 0.1239(12) -0.1391(12)
H59 H 0.8733(13) 0.1257(12) -0.0035(13)
N4B N 0.63053(8) -0.06919(8) -0.11530(9)
Mg2B Mg 0.75319(3) -0.07534(3) 0.00699(3)
Na1B Na 0.93393(4) -0.00349(4) 0.16286(4)
C25B C 1.09783(10) -0.07014(10) 0.11245(10)
C26B C 1.12345(9) -0.06877(10) 0.03931(10)
C27B C 1.09364(10) 0.01710(10) 0.14330(10)
Mg1B Mg 1.13187(3) 0.07015(4) 0.27882(3)
N2B N 1.01842(9) 0.10783(10) 0.29149(9)
N1B N 1.27479(9) 0.06325(8) 0.35505(8)
Na2B Na 1.28941(4) 0.04002(5) 0.20974(4)
C29B C 1.13798(9) 0.01993(10) 0.01887(10)
C28B C 1.11694(10) 0.07061(10) 0.08256(10)
N3B N 0.79321(9) -0.11582(9) 0.13710(9)
C13B C 0.84640(12) -0.19757(12) 0.17232(12)
H29B H 0.8937 -0.1880 0.2390
C14B C 0.89963(13) -0.21920(12) 0.11893(15)
H30B H 0.8548 -0.2321 0.0538
H31B H 0.9388 -0.1690 0.1214
H32B H 0.9398 -0.2705 0.1471
C15B C 0.78791(17) -0.27794(15) 0.1679(2)
H33B H 0.7599 -0.2693 0.2093
H34B H 0.7379 -0.2862 0.1038
H35B H 0.8284 -0.3300 0.1877
C16B C 0.73353(12) -0.09399(13) 0.18004(12)
H36B H 0.6882 -0.1433 0.1675
C17B C 0.78855(15) -0.08067(18) 0.28556(14)
H37B H 0.8231 -0.1344 0.3150
H38B H 0.8331 -0.0321 0.2994
H39B H 0.7447 -0.0669 0.3098
C18B C 0.67746(13) -0.01192(14) 0.13436(14)
H40B H 0.7206 0.0358 0.1400
H41B H 0.6352 -0.0236 0.0683
H42B H 0.6404 0.0051 0.1653
H58B H 1.0866(12) -0.1239(12) 0.1391(12)
H59B H 1.1267(13) -0.1257(12) 0.0035(13)
H57B H 1.1159(11) 0.1375(11) 0.0810(11)
C1B C 1.31822(11) 0.14655(11) 0.40057(11)
H1B H 1.3215 0.1478 0.4636
C2B C 1.25538(12) 0.22124(12) 0.34292(14)
H2B H 1.2444 0.2162 0.2785
H3B H 1.2861 0.2774 0.3691
H4B H 1.1951 0.2184 0.3440
C3B C 1.41750(12) 0.16042(13) 0.41274(15)
H5B H 1.4584 0.1125 0.4502
H6B H 1.4424 0.2164 0.4444
H7B H 1.4152 0.1612 0.3514
C4B C 1.32836(12) -0.01367(11) 0.40821(12)
H8B H 1.3924 -0.0101 0.4128
C5B C 1.28247(16) -0.09688(13) 0.35575(14)
H9B H 1.2206 -0.1037 0.3527
H10B H 1.3221 -0.1473 0.3882
H11B H 1.2750 -0.0935 0.2924
C6B C 1.34142(16) -0.01921(17) 0.50779(14)
H12B H 1.3741 0.0334 0.5426
H13B H 1.3788 -0.0713 0.5388
H14B H 1.2797 -0.0233 0.5057
C7B C 1.01749(14) 0.08503(14) 0.37840(13)
H15B H 0.9513 0.0895 0.3680
C8B C 1.0799(2) 0.1451(2) 0.46044(15)
H16B H 1.1452 0.1415 0.4716
H17B H 1.0766 0.1264 0.5165
H18B H 1.0578 0.2058 0.4454
C9B C 1.04956(16) -0.00858(16) 0.40273(16)
H19B H 1.0061 -0.0475 0.3531
H20B H 1.0505 -0.0242 0.4616
H21B H 1.1129 -0.0150 0.4092
C10B C 0.96884(13) 0.19086(12) 0.25051(14)
H22B H 0.9865 0.2350 0.3016
C11B C 0.99485(14) 0.22677(13) 0.17923(13)
H23B H 1.0608 0.2457 0.2105
H24B H 0.9544 0.2769 0.1473
H25B H 0.9864 0.1810 0.1336
C12B C 0.86008(15) 0.17947(18) 0.20047(18)
H26B H 0.8411 0.1421 0.1455
H27B H 0.8300 0.2370 0.1811
H28B H 0.8407 0.1521 0.2433
C19B C 0.57480(10) -0.15060(11) -0.13958(11)
H43B H 0.5231 -0.1447 -0.2051
C20B C 0.63618(14) -0.22721(12) -0.13657(14)
H44B H 0.6648 -0.2148 -0.1769
H45B H 0.6858 -0.2361 -0.0724
H46B H 0.5976 -0.2804 -0.1585
C21B C 0.52976(13) -0.17113(13) -0.07711(15)
H47B H 0.5792 -0.1787 -0.0126
H48B H 0.4885 -0.1226 -0.0802
H49B H 0.4928 -0.2252 -0.0986
C22B C 0.57161(10) 0.00938(10) -0.13373(11)
H50B H 0.5346 0.0031 -0.0990
C23B C 0.50193(13) 0.02340(14) -0.23697(13)
H51B H 0.5366 0.0305 -0.2724
H52B H 0.4601 -0.0275 -0.2606
H53B H 0.4645 0.0762 -0.2438
C24B C 0.63302(13) 0.09058(11) -0.09701(14)
H54B H 0.6765 0.0831 -0.0305
H55B H 0.6690 0.0990 -0.1310
H56B H 0.5932 0.1420 -0.1059
Fe1 Fe 1.0000 0.0000 1.0000
Mg1 Mg 0.86813(3) -0.07015(4) 0.72118(3)
Mg2 Mg 1.24681(3) 0.07534(3) 0.99301(3)
Na1 Na 1.06607(4) 0.00349(4) 0.83714(4)
Na2 Na 0.71059(4) -0.04002(5) 0.79026(4)
N1 N 0.72521(9) -0.06325(8) 0.64495(8)
N2 N 0.98158(9) -0.10783(10) 0.70851(9)
N3 N 1.20679(9) 0.11582(9) 0.86290(9)
N4 N 1.36947(8) 0.06919(8) 1.11530(9)
C1 C 0.68178(11) -0.14655(11) 0.59943(11)
H1 H 0.6785 -0.1478 0.5364
C2 C 0.74462(12) -0.22124(12) 0.65708(14)
H2 H 0.7556 -0.2162 0.7215
H3 H 0.7139 -0.2774 0.6309
H4 H 0.8049 -0.2184 0.6560
C3 C 0.58250(12) -0.16042(13) 0.58726(15)
H5 H 0.5416 -0.1125 0.5498
H6 H 0.5576 -0.2164 0.5556
H7 H 0.5848 -0.1612 0.6486
C4 C 0.67164(12) 0.01367(11) 0.59179(12)
H8 H 0.6076 0.0101 0.5872
C5 C 0.71753(16) 0.09688(13) 0.64425(14)
H9 H 0.7794 0.1037 0.6473
H10 H 0.6779 0.1473 0.6118
H11 H 0.7250 0.0935 0.7076
C6 C 0.65858(16) 0.01921(17) 0.49221(14)
H12 H 0.6259 -0.0334 0.4574
H13 H 0.6212 0.0713 0.4612
H14 H 0.7203 0.0233 0.4943
C7 C 0.98251(14) -0.08503(14) 0.62160(13)
H15 H 1.0487 -0.0895 0.6320
C8 C 0.9201(2) -0.1451(2) 0.53956(15)
H16 H 0.8548 -0.1415 0.5284
H17 H 0.9234 -0.1264 0.4835
H18 H 0.9422 -0.2058 0.5546
C9 C 0.95044(16) 0.00858(16) 0.59727(16)
H19 H 0.9939 0.0475 0.6469
H20 H 0.9495 0.0242 0.5384
H21 H 0.8871 0.0150 0.5908
C10 C 1.03116(13) -0.19086(12) 0.74949(14)
H22 H 1.0135 -0.2350 0.6984
C11 C 1.00515(14) -0.22677(13) 0.82077(13)
H23 H 0.9392 -0.2457 0.7895
H24 H 1.0456 -0.2769 0.8527
H25 H 1.0136 -0.1810 0.8664
C12 C 1.13992(15) -0.17947(18) 0.79953(18)
H26 H 1.1589 -0.1421 0.8545
H27 H 1.1700 -0.2370 0.8189
H28 H 1.1593 -0.1521 0.7567
C13 C 1.15360(12) 0.19757(12) 0.82768(12)
H29 H 1.1063 0.1880 0.7610
C14 C 1.10037(13) 0.21920(12) 0.88107(15)
H30 H 1.1452 0.2321 0.9462
H31 H 1.0612 0.1690 0.8786
H32 H 1.0602 0.2705 0.8529
C15 C 1.21209(17) 0.27794(15) 0.8321(2)
H33 H 1.2401 0.2693 0.7907
H34 H 1.2621 0.2862 0.8962
H35 H 1.1716 0.3300 0.8123
C16 C 1.26647(12) 0.09399(13) 0.81996(12)
H36 H 1.3118 0.1433 0.8325
C17 C 1.21145(15) 0.08067(18) 0.71444(14)
H37 H 1.1769 0.1344 0.6850
H38 H 1.1669 0.0321 0.7006
H39 H 1.2553 0.0669 0.6902
C18 C 1.32254(13) 0.01192(14) 0.86564(14)
H40 H 1.2794 -0.0358 0.8600
H41 H 1.3648 0.0236 0.9317
H42 H 1.3596 -0.0051 0.8347
C19 C 1.42520(10) 0.15060(11) 1.13958(11)
H43 H 1.4769 0.1447 1.2051
C20 C 1.36382(14) 0.22721(12) 1.13657(14)
H44 H 1.3352 0.2148 1.1769
H45 H 1.3142 0.2361 1.0724
H46 H 1.4024 0.2804 1.1585
C21 C 1.47024(13) 0.17113(13) 1.07711(15)
H47 H 1.4208 0.1787 1.0126
H48 H 1.5115 0.1226 1.0802
H49 H 1.5072 0.2252 1.0986
C22 C 1.42839(10) -0.00938(10) 1.13373(11)
H50 H 1.4654 -0.0031 1.0990
C23 C 1.49807(13) -0.02340(14) 1.23697(13)
H51 H 1.4634 -0.0305 1.2724
H52 H 1.5399 0.0275 1.2606
H53 H 1.5355 -0.0762 1.2438
C24 C 1.36698(13) -0.09058(11) 1.09701(14)
H54 H 1.3235 -0.0831 1.0305
H55 H 1.3310 -0.0990 1.1310
H56 H 1.4068 -0.1420 1.1059
C25 C 0.90217(10) 0.07014(10) 0.88755(10)
C26 C 0.87655(9) 0.06877(10) 0.96069(10)
C27 C 0.90636(10) -0.01710(10) 0.85670(10)
C28 C 0.88306(10) -0.07061(10) 0.91744(10)
C29 C 0.86202(9) -0.01993(10) 0.98113(10)
H57 H 0.8841(11) -0.1375(11) 0.9190(11)
H58 H 0.9134(12) 0.1239(12) 0.8609(12)
H59 H 0.8733(13) 0.1257(12) 0.9965(13)
N4B N 0.63053(8) -0.06919(8) 0.88470(9)
Mg2B Mg 0.75319(3) -0.07534(3) 1.00699(3)
Na1B Na 0.93393(4) -0.00349(4) 1.16286(4)
C25B C 1.09783(10) -0.07014(10) 1.11245(10)
C26B C 1.12345(9) -0.06877(10) 1.03931(10)
C27B C 1.09364(10) 0.01710(10) 1.14330(10)
Mg1B Mg 1.13187(3) 0.07015(4) 1.27882(3)
N2B N 1.01842(9) 0.10783(10) 1.29149(9)
N1B N 1.27479(9) 0.06325(8) 1.35505(8)
Na2B Na 1.28941(4) 0.04002(5) 1.20974(4)
C29B C 1.13798(9) 0.01993(10) 1.01887(10)
C28B C 1.11694(10) 0.07061(10) 1.08256(10)
N3B N 0.79321(9) -0.11582(9) 1.13710(9)
C13B C 0.84640(12) -0.19757(12) 1.17232(12)
H29B H 0.8937 -0.1880 1.2390
C14B C 0.89963(13) -0.21920(12) 1.11893(15)
H30B H 0.8548 -0.2321 1.0538
H31B H 0.9388 -0.1690 1.1214
H32B H 0.9398 -0.2705 1.1471
C15B C 0.78791(17) -0.27794(15) 1.1679(2)
H33B H 0.7599 -0.2693 1.2093
H34B H 0.7379 -0.2862 1.1038
H35B H 0.8284 -0.3300 1.1877
C16B C 0.73353(12) -0.09399(13) 1.18004(12)
H36B H 0.6882 -0.1433 1.1675
C17B C 0.78855(15) -0.08067(18) 1.28556(14)
H37B H 0.8231 -0.1344 1.3150
H38B H 0.8331 -0.0321 1.2994
H39B H 0.7447 -0.0669 1.3098
C18B C 0.67746(13) -0.01192(14) 1.13436(14)
H40B H 0.7206 0.0358 1.1400
H41B H 0.6352 -0.0236 1.0683
H42B H 0.6404 0.0051 1.1653
H58B H 1.0866(12) -0.1239(12) 1.1391(12)
H59B H 1.1267(13) -0.1257(12) 1.0035(13)
H57B H 1.1159(11) 0.1375(11) 1.0810(11)
C1B C 1.31822(11) 0.14655(11) 1.40057(11)
H1B H 1.3215 0.1478 1.4636
C2B C 1.25538(12) 0.22124(12) 1.34292(14)
H2B H 1.2444 0.2162 1.2785
H3B H 1.2861 0.2774 1.3691
H4B H 1.1951 0.2184 1.3440
C3B C 1.41750(12) 0.16042(13) 1.41274(15)
H5B H 1.4584 0.1125 1.4502
H6B H 1.4424 0.2164 1.4444
H7B H 1.4152 0.1612 1.3514
C4B C 1.32836(12) -0.01367(11) 1.40821(12)
H8B H 1.3924 -0.0101 1.4128
C5B C 1.28247(16) -0.09688(13) 1.35575(14)
H9B H 1.2206 -0.1037 1.3527
H10B H 1.3221 -0.1473 1.3882
H11B H 1.2750 -0.0935 1.2924
C6B C 1.34142(16) -0.01921(17) 1.50779(14)
H12B H 1.3741 0.0334 1.5426
H13B H 1.3788 -0.0713 1.5388
H14B H 1.2797 -0.0233 1.5057
C7B C 1.01749(14) 0.08503(14) 1.37840(13)
H15B H 0.9513 0.0895 1.3680
C8B C 1.0799(2) 0.1451(2) 1.46044(15)
H16B H 1.1452 0.1415 1.4716
H17B H 1.0766 0.1264 1.5165
H18B H 1.0578 0.2058 1.4454
C9B C 1.04956(16) -0.00858(16) 1.40273(16)
H19B H 1.0061 -0.0475 1.3531
H20B H 1.0505 -0.0242 1.4616
H21B H 1.1129 -0.0150 1.4092
C10B C 0.96884(13) 0.19086(12) 1.25051(14)
H22B H 0.9865 0.2350 1.3016
C11B C 0.99485(14) 0.22677(13) 1.17923(13)
H23B H 1.0608 0.2457 1.2105
H24B H 0.9544 0.2769 1.1473
H25B H 0.9864 0.1810 1.1336
C12B C 0.86008(15) 0.17947(18) 1.20047(18)
H26B H 0.8411 0.1421 1.1455
H27B H 0.8300 0.2370 1.1811
H28B H 0.8407 0.1521 1.2433
C19B C 0.57480(10) -0.15060(11) 0.86042(11)
H43B H 0.5231 -0.1447 0.7949
C20B C 0.63618(14) -0.22721(12) 0.86343(14)
H44B H 0.6648 -0.2148 0.8231
H45B H 0.6858 -0.2361 0.9276
H46B H 0.5976 -0.2804 0.8415
C21B C 0.52976(13) -0.17113(13) 0.92289(15)
H47B H 0.5792 -0.1787 0.9874
H48B H 0.4885 -0.1226 0.9198
H49B H 0.4928 -0.2252 0.9014
C22B C 0.57161(10) 0.00938(10) 0.86627(11)
H50B H 0.5346 0.0031 0.9010
C23B C 0.50193(13) 0.02340(14) 0.76303(13)
H51B H 0.5366 0.0305 0.7276
H52B H 0.4601 -0.0275 0.7394
H53B H 0.4645 0.0762 0.7562
C24B C 0.63302(13) 0.09058(11) 0.90299(14)
H54B H 0.6765 0.0831 0.9695
H55B H 0.6690 0.0990 0.8690
H56B H 0.5932 0.1420 0.8941
Fe1 Fe 1.0000 1.0000 0.0000
Mg1 Mg 0.86813(3) 0.92985(4) -0.27882(3)
Mg2 Mg 1.24681(3) 1.07534(3) -0.00699(3)
Na1 Na 1.06607(4) 1.00349(4) -0.16286(4)
Na2 Na 0.71059(4) 0.95998(5) -0.20974(4)
N1 N 0.72521(9) 0.93675(8) -0.35505(8)
N2 N 0.98158(9) 0.89217(10) -0.29149(9)
N3 N 1.20679(9) 1.11582(9) -0.13710(9)
N4 N 1.36947(8) 1.06919(8) 0.11530(9)
C1 C 0.68178(11) 0.85345(11) -0.40057(11)
H1 H 0.6785 0.8522 -0.4636
C2 C 0.74462(12) 0.77876(12) -0.34292(14)
H2 H 0.7556 0.7838 -0.2785
H3 H 0.7139 0.7226 -0.3691
H4 H 0.8049 0.7816 -0.3440
C3 C 0.58250(12) 0.83958(13) -0.41274(15)
H5 H 0.5416 0.8875 -0.4502
H6 H 0.5576 0.7836 -0.4444
H7 H 0.5848 0.8388 -0.3514
C4 C 0.67164(12) 1.01367(11) -0.40821(12)
H8 H 0.6076 1.0101 -0.4128
C5 C 0.71753(16) 1.09688(13) -0.35575(14)
H9 H 0.7794 1.1037 -0.3527
H10 H 0.6779 1.1473 -0.3882
H11 H 0.7250 1.0935 -0.2924
C6 C 0.65858(16) 1.01921(17) -0.50779(14)
H12 H 0.6259 0.9666 -0.5426
H13 H 0.6212 1.0713 -0.5388
H14 H 0.7203 1.0233 -0.5057
C7 C 0.98251(14) 0.91497(14) -0.37840(13)
H15 H 1.0487 0.9105 -0.3680
C8 C 0.9201(2) 0.8549(2) -0.46044(15)
H16 H 0.8548 0.8585 -0.4716
H17 H 0.9234 0.8736 -0.5165
H18 H 0.9422 0.7942 -0.4454
C9 C 0.95044(16) 1.00858(16) -0.40273(16)
H19 H 0.9939 1.0475 -0.3531
H20 H 0.9495 1.0242 -0.4616
H21 H 0.8871 1.0150 -0.4092
C10 C 1.03116(13) 0.80914(12) -0.25051(14)
H22 H 1.0135 0.7650 -0.3016
C11 C 1.00515(14) 0.77323(13) -0.17923(13)
H23 H 0.9392 0.7543 -0.2105
H24 H 1.0456 0.7231 -0.1473
H25 H 1.0136 0.8190 -0.1336
C12 C 1.13992(15) 0.82053(18) -0.20047(18)
H26 H 1.1589 0.8579 -0.1455
H27 H 1.1700 0.7630 -0.1811
H28 H 1.1593 0.8479 -0.2433
C13 C 1.15360(12) 1.19757(12) -0.17232(12)
H29 H 1.1063 1.1880 -0.2390
C14 C 1.10037(13) 1.21920(12) -0.11893(15)
H30 H 1.1452 1.2321 -0.0538
H31 H 1.0612 1.1690 -0.1214
H32 H 1.0602 1.2705 -0.1471
C15 C 1.21209(17) 1.27794(15) -0.1679(2)
H33 H 1.2401 1.2693 -0.2093
H34 H 1.2621 1.2862 -0.1038
H35 H 1.1716 1.3300 -0.1877
C16 C 1.26647(12) 1.09399(13) -0.18004(12)
H36 H 1.3118 1.1433 -0.1675
C17 C 1.21145(15) 1.08067(18) -0.28556(14)
H37 H 1.1769 1.1344 -0.3150
H38 H 1.1669 1.0321 -0.2994
H39 H 1.2553 1.0669 -0.3098
C18 C 1.32254(13) 1.01192(14) -0.13436(14)
H40 H 1.2794 0.9642 -0.1400
H41 H 1.3648 1.0236 -0.0683
H42 H 1.3596 0.9949 -0.1653
C19 C 1.42520(10) 1.15060(11) 0.13958(11)
H43 H 1.4769 1.1447 0.2051
C20 C 1.36382(14) 1.22721(12) 0.13657(14)
H44 H 1.3352 1.2148 0.1769
H45 H 1.3142 1.2361 0.0724
H46 H 1.4024 1.2804 0.1585
C21 C 1.47024(13) 1.17113(13) 0.07711(15)
H47 H 1.4208 1.1787 0.0126
H48 H 1.5115 1.1226 0.0802
H49 H 1.5072 1.2252 0.0986
C22 C 1.42839(10) 0.99062(10) 0.13373(11)
H50 H 1.4654 0.9969 0.0990
C23 C 1.49807(13) 0.97660(14) 0.23697(13)
H51 H 1.4634 0.9695 0.2724
H52 H 1.5399 1.0275 0.2606
H53 H 1.5355 0.9238 0.2438
C24 C 1.36698(13) 0.90942(11) 0.09701(14)
H54 H 1.3235 0.9169 0.0305
H55 H 1.3310 0.9010 0.1310
H56 H 1.4068 0.8580 0.1059
C25 C 0.90217(10) 1.07014(10) -0.11245(10)
C26 C 0.87655(9) 1.06877(10) -0.03931(10)
C27 C 0.90636(10) 0.98290(10) -0.14330(10)
C28 C 0.88306(10) 0.92939(10) -0.08256(10)
C29 C 0.86202(9) 0.98007(10) -0.01887(10)
H57 H 0.8841(11) 0.8625(11) -0.0810(11)
H58 H 0.9134(12) 1.1239(12) -0.1391(12)
H59 H 0.8733(13) 1.1257(12) -0.0035(13)
N4B N 0.63053(8) 0.93081(8) -0.11530(9)
Mg2B Mg 0.75319(3) 0.92466(3) 0.00699(3)
Na1B Na 0.93393(4) 0.99651(4) 0.16286(4)
C25B C 1.09783(10) 0.92986(10) 0.11245(10)
C26B C 1.12345(9) 0.93123(10) 0.03931(10)
C27B C 1.09364(10) 1.01710(10) 0.14330(10)
Mg1B Mg 1.13187(3) 1.07015(4) 0.27882(3)
N2B N 1.01842(9) 1.10783(10) 0.29149(9)
N1B N 1.27479(9) 1.06325(8) 0.35505(8)
Na2B Na 1.28941(4) 1.04002(5) 0.20974(4)
C29B C 1.13798(9) 1.01993(10) 0.01887(10)
C28B C 1.11694(10) 1.07061(10) 0.08256(10)
N3B N 0.79321(9) 0.88418(9) 0.13710(9)
C13B C 0.84640(12) 0.80243(12) 0.17232(12)
H29B H 0.8937 0.8120 0.2390
C14B C 0.89963(13) 0.78080(12) 0.11893(15)
H30B H 0.8548 0.7679 0.0538
H31B H 0.9388 0.8310 0.1214
H32B H 0.9398 0.7295 0.1471
C15B C 0.78791(17) 0.72206(15) 0.1679(2)
H33B H 0.7599 0.7307 0.2093
H34B H 0.7379 0.7138 0.1038
H35B H 0.8284 0.6700 0.1877
C16B C 0.73353(12) 0.90601(13) 0.18004(12)
H36B H 0.6882 0.8567 0.1675
C17B C 0.78855(15) 0.91933(18) 0.28556(14)
H37B H 0.8231 0.8656 0.3150
H38B H 0.8331 0.9679 0.2994
H39B H 0.7447 0.9331 0.3098
C18B C 0.67746(13) 0.98808(14) 0.13436(14)
H40B H 0.7206 1.0358 0.1400
H41B H 0.6352 0.9764 0.0683
H42B H 0.6404 1.0051 0.1653
H58B H 1.0866(12) 0.8761(12) 0.1391(12)
H59B H 1.1267(13) 0.8743(12) 0.0035(13)
H57B H 1.1159(11) 1.1375(11) 0.0810(11)
C1B C 1.31822(11) 1.14655(11) 0.40057(11)
H1B H 1.3215 1.1478 0.4636
C2B C 1.25538(12) 1.22124(12) 0.34292(14)
H2B H 1.2444 1.2162 0.2785
H3B H 1.2861 1.2774 0.3691
H4B H 1.1951 1.2184 0.3440
C3B C 1.41750(12) 1.16042(13) 0.41274(15)
H5B H 1.4584 1.1125 0.4502
H6B H 1.4424 1.2164 0.4444
H7B H 1.4152 1.1612 0.3514
C4B C 1.32836(12) 0.98633(11) 0.40821(12)
H8B H 1.3924 0.9899 0.4128
C5B C 1.28247(16) 0.90312(13) 0.35575(14)
H9B H 1.2206 0.8963 0.3527
H10B H 1.3221 0.8527 0.3882
H11B H 1.2750 0.9065 0.2924
C6B C 1.34142(16) 0.98079(17) 0.50779(14)
H12B H 1.3741 1.0334 0.5426
H13B H 1.3788 0.9287 0.5388
H14B H 1.2797 0.9767 0.5057
C7B C 1.01749(14) 1.08503(14) 0.37840(13)
H15B H 0.9513 1.0895 0.3680
C8B C 1.0799(2) 1.1451(2) 0.46044(15)
H16B H 1.1452 1.1415 0.4716
H17B H 1.0766 1.1264 0.5165
H18B H 1.0578 1.2058 0.4454
C9B C 1.04956(16) 0.99142(16) 0.40273(16)
H19B H 1.0061 0.9525 0.3531
H20B H 1.0505 0.9758 0.4616
H21B H 1.1129 0.9850 0.4092
C10B C 0.96884(13) 1.19086(12) 0.25051(14)
H22B H 0.9865 1.2350 0.3016
C11B C 0.99485(14) 1.22677(13) 0.17923(13)
H23B H 1.0608 1.2457 0.2105
H24B H 0.9544 1.2769 0.1473
H25B H 0.9864 1.1810 0.1336
C12B C 0.86008(15) 1.17947(18) 0.20047(18)
H26B H 0.8411 1.1421 0.1455
H27B H 0.8300 1.2370 0.1811
H28B H 0.8407 1.1521 0.2433
C19B C 0.57480(10) 0.84940(11) -0.13958(11)
H43B H 0.5231 0.8553 -0.2051
C20B C 0.63618(14) 0.77279(12) -0.13657(14)
H44B H 0.6648 0.7852 -0.1769
H45B H 0.6858 0.7639 -0.0724
H46B H 0.5976 0.7196 -0.1585
C21B C 0.52976(13) 0.82887(13) -0.07711(15)
H47B H 0.5792 0.8213 -0.0126
H48B H 0.4885 0.8774 -0.0802
H49B H 0.4928 0.7748 -0.0986
C22B C 0.57161(10) 1.00938(10) -0.13373(11)
H50B H 0.5346 1.0031 -0.0990
C23B C 0.50193(13) 1.02340(14) -0.23697(13)
H51B H 0.5366 1.0305 -0.2724
H52B H 0.4601 0.9725 -0.2606
H53B H 0.4645 1.0762 -0.2438
C24B C 0.63302(13) 1.09058(11) -0.09701(14)
H54B H 0.6765 1.0831 -0.0305
H55B H 0.6690 1.0990 -0.1310
H56B H 0.5932 1.1420 -0.1059
Fe1 Fe 1.0000 1.0000 1.0000
Mg1 Mg 0.86813(3) 0.92985(4) 0.72118(3)
Mg2 Mg 1.24681(3) 1.07534(3) 0.99301(3)
Na1 Na 1.06607(4) 1.00349(4) 0.83714(4)
Na2 Na 0.71059(4) 0.95998(5) 0.79026(4)
N1 N 0.72521(9) 0.93675(8) 0.64495(8)
N2 N 0.98158(9) 0.89217(10) 0.70851(9)
N3 N 1.20679(9) 1.11582(9) 0.86290(9)
N4 N 1.36947(8) 1.06919(8) 1.11530(9)
C1 C 0.68178(11) 0.85345(11) 0.59943(11)
H1 H 0.6785 0.8522 0.5364
C2 C 0.74462(12) 0.77876(12) 0.65708(14)
H2 H 0.7556 0.7838 0.7215
H3 H 0.7139 0.7226 0.6309
H4 H 0.8049 0.7816 0.6560
C3 C 0.58250(12) 0.83958(13) 0.58726(15)
H5 H 0.5416 0.8875 0.5498
H6 H 0.5576 0.7836 0.5556
H7 H 0.5848 0.8388 0.6486
C4 C 0.67164(12) 1.01367(11) 0.59179(12)
H8 H 0.6076 1.0101 0.5872
C5 C 0.71753(16) 1.09688(13) 0.64425(14)
H9 H 0.7794 1.1037 0.6473
H10 H 0.6779 1.1473 0.6118
H11 H 0.7250 1.0935 0.7076
C6 C 0.65858(16) 1.01921(17) 0.49221(14)
H12 H 0.6259 0.9666 0.4574
H13 H 0.6212 1.0713 0.4612
H14 H 0.7203 1.0233 0.4943
C7 C 0.98251(14) 0.91497(14) 0.62160(13)
H15 H 1.0487 0.9105 0.6320
C8 C 0.9201(2) 0.8549(2) 0.53956(15)
H16 H 0.8548 0.8585 0.5284
H17 H 0.9234 0.8736 0.4835
H18 H 0.9422 0.7942 0.5546
C9 C 0.95044(16) 1.00858(16) 0.59727(16)
H19 H 0.9939 1.0475 0.6469
H20 H 0.9495 1.0242 0.5384
H21 H 0.8871 1.0150 0.5908
C10 C 1.03116(13) 0.80914(12) 0.74949(14)
H22 H 1.0135 0.7650 0.6984
C11 C 1.00515(14) 0.77323(13) 0.82077(13)
H23 H 0.9392 0.7543 0.7895
H24 H 1.0456 0.7231 0.8527
H25 H 1.0136 0.8190 0.8664
C12 C 1.13992(15) 0.82053(18) 0.79953(18)
H26 H 1.1589 0.8579 0.8545
H27 H 1.1700 0.7630 0.8189
H28 H 1.1593 0.8479 0.7567
C13 C 1.15360(12) 1.19757(12) 0.82768(12)
H29 H 1.1063 1.1880 0.7610
C14 C 1.10037(13) 1.21920(12) 0.88107(15)
H30 H 1.1452 1.2321 0.9462
H31 H 1.0612 1.1690 0.8786
H32 H 1.0602 1.2705 0.8529
C15 C 1.21209(17) 1.27794(15) 0.8321(2)
H33 H 1.2401 1.2693 0.7907
H34 H 1.2621 1.2862 0.8962
H35 H 1.1716 1.3300 0.8123
C16 C 1.26647(12) 1.09399(13) 0.81996(12)
H36 H 1.3118 1.1433 0.8325
C17 C 1.21145(15) 1.08067(18) 0.71444(14)
H37 H 1.1769 1.1344 0.6850
H38 H 1.1669 1.0321 0.7006
H39 H 1.2553 1.0669 0.6902
C18 C 1.32254(13) 1.01192(14) 0.86564(14)
H40 H 1.2794 0.9642 0.8600
H41 H 1.3648 1.0236 0.9317
H42 H 1.3596 0.9949 0.8347
C19 C 1.42520(10) 1.15060(11) 1.13958(11)
H43 H 1.4769 1.1447 1.2051
C20 C 1.36382(14) 1.22721(12) 1.13657(14)
H44 H 1.3352 1.2148 1.1769
H45 H 1.3142 1.2361 1.0724
H46 H 1.4024 1.2804 1.1585
C21 C 1.47024(13) 1.17113(13) 1.07711(15)
H47 H 1.4208 1.1787 1.0126
H48 H 1.5115 1.1226 1.0802
H49 H 1.5072 1.2252 1.0986
C22 C 1.42839(10) 0.99062(10) 1.13373(11)
H50 H 1.4654 0.9969 1.0990
C23 C 1.49807(13) 0.97660(14) 1.23697(13)
H51 H 1.4634 0.9695 1.2724
H52 H 1.5399 1.0275 1.2606
H53 H 1.5355 0.9238 1.2438
C24 C 1.36698(13) 0.90942(11) 1.09701(14)
H54 H 1.3235 0.9169 1.0305
H55 H 1.3310 0.9010 1.1310
H56 H 1.4068 0.8580 1.1059
C25 C 0.90217(10) 1.07014(10) 0.88755(10)
C26 C 0.87655(9) 1.06877(10) 0.96069(10)
C27 C 0.90636(10) 0.98290(10) 0.85670(10)
C28 C 0.88306(10) 0.92939(10) 0.91744(10)
C29 C 0.86202(9) 0.98007(10) 0.98113(10)
H57 H 0.8841(11) 0.8625(11) 0.9190(11)
H58 H 0.9134(12) 1.1239(12) 0.8609(12)
H59 H 0.8733(13) 1.1257(12) 0.9965(13)
N4B N 0.63053(8) 0.93081(8) 0.88470(9)
Mg2B Mg 0.75319(3) 0.92466(3) 1.00699(3)
Na1B Na 0.93393(4) 0.99651(4) 1.16286(4)
C25B C 1.09783(10) 0.92986(10) 1.11245(10)
C26B C 1.12345(9) 0.93123(10) 1.03931(10)
C27B C 1.09364(10) 1.01710(10) 1.14330(10)
Mg1B Mg 1.13187(3) 1.07015(4) 1.27882(3)
N2B N 1.01842(9) 1.10783(10) 1.29149(9)
N1B N 1.27479(9) 1.06325(8) 1.35505(8)
Na2B Na 1.28941(4) 1.04002(5) 1.20974(4)
C29B C 1.13798(9) 1.01993(10) 1.01887(10)
C28B C 1.11694(10) 1.07061(10) 1.08256(10)
N3B N 0.79321(9) 0.88418(9) 1.13710(9)
C13B C 0.84640(12) 0.80243(12) 1.17232(12)
H29B H 0.8937 0.8120 1.2390
C14B C 0.89963(13) 0.78080(12) 1.11893(15)
H30B H 0.8548 0.7679 1.0538
H31B H 0.9388 0.8310 1.1214
H32B H 0.9398 0.7295 1.1471
C15B C 0.78791(17) 0.72206(15) 1.1679(2)
H33B H 0.7599 0.7307 1.2093
H34B H 0.7379 0.7138 1.1038
H35B H 0.8284 0.6700 1.1877
C16B C 0.73353(12) 0.90601(13) 1.18004(12)
H36B H 0.6882 0.8567 1.1675
C17B C 0.78855(15) 0.91933(18) 1.28556(14)
H37B H 0.8231 0.8656 1.3150
H38B H 0.8331 0.9679 1.2994
H39B H 0.7447 0.9331 1.3098
C18B C 0.67746(13) 0.98808(14) 1.13436(14)
H40B H 0.7206 1.0358 1.1400
H41B H 0.6352 0.9764 1.0683
H42B H 0.6404 1.0051 1.1653
H58B H 1.0866(12) 0.8761(12) 1.1391(12)
H59B H 1.1267(13) 0.8743(12) 1.0035(13)
H57B H 1.1159(11) 1.1375(11) 1.0810(11)
C1B C 1.31822(11) 1.14655(11) 1.40057(11)
H1B H 1.3215 1.1478 1.4636
C2B C 1.25538(12) 1.22124(12) 1.34292(14)
H2B H 1.2444 1.2162 1.2785
H3B H 1.2861 1.2774 1.3691
H4B H 1.1951 1.2184 1.3440
C3B C 1.41750(12) 1.16042(13) 1.41274(15)
H5B H 1.4584 1.1125 1.4502
H6B H 1.4424 1.2164 1.4444
H7B H 1.4152 1.1612 1.3514
C4B C 1.32836(12) 0.98633(11) 1.40821(12)
H8B H 1.3924 0.9899 1.4128
C5B C 1.28247(16) 0.90312(13) 1.35575(14)
H9B H 1.2206 0.8963 1.3527
H10B H 1.3221 0.8527 1.3882
H11B H 1.2750 0.9065 1.2924
C6B C 1.34142(16) 0.98079(17) 1.50779(14)
H12B H 1.3741 1.0334 1.5426
H13B H 1.3788 0.9287 1.5388
H14B H 1.2797 0.9767 1.5057
C7B C 1.01749(14) 1.08503(14) 1.37840(13)
H15B H 0.9513 1.0895 1.3680
C8B C 1.0799(2) 1.1451(2) 1.46044(15)
H16B H 1.1452 1.1415 1.4716
H17B H 1.0766 1.1264 1.5165
H18B H 1.0578 1.2058 1.4454
C9B C 1.04956(16) 0.99142(16) 1.40273(16)
H19B H 1.0061 0.9525 1.3531
H20B H 1.0505 0.9758 1.4616
H21B H 1.1129 0.9850 1.4092
C10B C 0.96884(13) 1.19086(12) 1.25051(14)
H22B H 0.9865 1.2350 1.3016
C11B C 0.99485(14) 1.22677(13) 1.17923(13)
H23B H 1.0608 1.2457 1.2105
H24B H 0.9544 1.2769 1.1473
H25B H 0.9864 1.1810 1.1336
C12B C 0.86008(15) 1.17947(18) 1.20047(18)
H26B H 0.8411 1.1421 1.1455
H27B H 0.8300 1.2370 1.1811
H28B H 0.8407 1.1521 1.2433
C19B C 0.57480(10) 0.84940(11) 0.86042(11)
H43B H 0.5231 0.8553 0.7949
C20B C 0.63618(14) 0.77279(12) 0.86343(14)
H44B H 0.6648 0.7852 0.8231
H45B H 0.6858 0.7639 0.9276
H46B H 0.5976 0.7196 0.8415
C21B C 0.52976(13) 0.82887(13) 0.92289(15)
H47B H 0.5792 0.8213 0.9874
H48B H 0.4885 0.8774 0.9198
H49B H 0.4928 0.7748 0.9014
C22B C 0.57161(10) 1.00938(10) 0.86627(11)
H50B H 0.5346 1.0031 0.9010
C23B C 0.50193(13) 1.02340(14) 0.76303(13)
H51B H 0.5366 1.0305 0.7276
H52B H 0.4601 0.9725 0.7394
H53B H 0.4645 1.0762 0.7562
C24B C 0.63302(13) 1.09058(11) 0.90299(14)
H54B H 0.6765 1.0831 0.9695
H55B H 0.6690 1.0990 0.8690
H56B H 0.5932 1.1420 0.8941

#END
