./ACOMUC_from_POSCAR.cif_generated_by_CrystalShift
_symmetry_cell_setting triclinic
_symmetry_space_group_name_H-M 'P 1'
loop_
_symmetry_equiv_pos_site_id
_symmetry_equiv_pos_as_xyz
1 x,y,z
_cell_length_a 16.182200
_cell_length_b 4.806800
_cell_length_c 21.705300
_cell_angle_alpha 90.000000
_cell_angle_beta 102.360000
_cell_angle_gamma 90.000000
_cell_volume 1649.205678
loop_
_atom_site_label
_atom_site_type_symbol
_atom_site_fract_x
_atom_site_fract_y
_atom_site_fract_z
H1 H 0.782000 0.300500 -0.025700
H2 H 0.350900 0.418000 0.775800
H3 H 0.544800 0.640300 0.546800
H4 H 0.184500 0.630900 0.150000
H5 H 0.436400 0.960300 0.524600
H6 H 0.091700 -0.195200 0.784200
H7 H 0.374600 0.822700 0.687300
H8 H 0.074500 0.131100 0.765100
H9 H 0.477200 0.482700 0.712200
H10 H 0.065100 -0.332000 0.678300
H11 H 0.649100 0.582000 0.224200
H12 H 0.689200 0.146000 0.629400
H13 H 0.652700 0.402000 0.586500
H14 H 0.019900 -0.028700 0.662600
H15 H 0.908300 1.195200 0.215800
H16 H 0.149300 0.183300 0.657000
H17 H 0.184500 -0.130900 0.650000
H18 H 0.455200 0.140300 0.953200
H19 H 0.219000 -0.200400 0.756100
H20 H 0.563600 0.460300 0.975400
H21 H 0.149300 0.316700 0.157000
H22 H 0.625400 0.322700 0.812700
H23 H 0.649100 0.918000 0.724200
H24 H 0.522800 -0.017300 0.787800
H25 H 0.908300 0.304800 0.715800
H26 H 0.925500 0.868900 0.234900
H27 H 0.310800 -0.354000 0.870600
H28 H 0.347300 -0.098000 0.913500
H29 H 0.925500 0.631100 0.734900
H30 H 0.934900 1.332000 0.321700
H31 H 0.934900 0.168000 0.821700
H32 H 0.980100 0.471300 0.837400
H33 H 0.455200 0.359700 0.453200
H34 H 0.850700 0.683300 0.843000
H35 H 0.563600 0.039700 0.475400
H36 H 0.815500 0.369100 0.850000
H37 H 0.625400 0.177300 0.312700
H38 H 0.781000 0.299600 0.743900
H39 H 0.522800 0.517300 0.287800
H40 H 0.019900 0.528700 0.162600
H41 H 0.980100 1.028700 0.337400
H42 H 0.310800 0.854000 0.370600
H43 H 0.347300 0.598000 0.413500
H44 H 0.326300 1.342000 1.084800
H45 H 0.850700 0.816700 0.343000
H46 H 0.065100 0.832000 0.178300
H47 H 0.182800 0.627100 0.919000
H48 H 0.544800 0.859700 0.046800
H49 H 0.175800 0.959400 0.903300
H50 H 0.436400 0.539700 0.024600
H51 H 0.053700 0.628600 0.951400
H52 H 0.374600 0.677300 0.187300
H53 H 0.035800 0.929000 0.915900
H54 H 0.477200 1.017300 0.212200
H55 H 0.095200 0.881200 1.045400
H56 H 0.815500 1.130900 0.350000
H57 H 0.689200 1.354000 0.129400
H58 H 0.652700 1.098000 0.086500
H59 H 0.103800 1.167900 1.007000
H60 H 0.781000 1.200400 0.243900
H61 H 0.218000 0.699500 1.025700
H62 H 0.218000 0.800500 0.525700
H63 H 0.673700 0.842000 0.415200
H64 H 0.103800 0.332100 0.507000
H65 H 0.095200 0.618800 0.545400
H66 H 0.074500 0.368900 0.265100
H67 H 0.035800 0.571000 0.415900
H68 H 0.053700 0.871400 0.451400
H69 H 0.817200 0.127100 0.581000
H70 H 0.175800 0.540600 0.403300
H71 H 0.182800 0.872900 0.419000
H72 H 0.824200 0.459400 0.596700
H73 H 0.946300 0.128600 0.548600
H74 H 0.326300 0.158000 0.584800
H75 H 0.350900 0.082000 0.275800
H76 H 0.964200 0.429000 0.584100
H77 H 0.219000 0.700400 0.256100
H78 H 0.904800 0.381200 0.454600
H79 H 0.896200 -0.167900 -0.007000
H80 H 0.904800 0.118800 -0.045400
H81 H 0.896200 0.667900 0.493000
H82 H 0.964200 0.071000 0.084100
H83 H 0.946300 0.371400 0.048600
H84 H 0.782000 0.199500 0.474300
H85 H 0.824200 0.040600 0.096700
H86 H 0.817200 0.372900 0.081000
H87 H 0.091700 0.695200 0.284200
H88 H 0.673700 -0.342000 -0.084800
C89 C 0.243920 0.290400 0.276820
C90 C 0.728250 -0.082700 -0.019080
C91 C 0.798300 0.376600 0.498010
C92 C 0.834270 0.188800 0.067510
C93 C 0.887050 0.464100 0.491470
C94 C 0.923190 0.184300 0.053860
C95 C 0.887050 0.035900 -0.008530
C96 C 0.923190 0.315700 0.553860
C97 C 0.798300 0.123400 -0.001990
C98 C 0.810960 1.019200 0.254750
C99 C 0.834270 0.311200 0.567510
C100 C 0.271750 0.417300 0.519080
C101 C 0.165730 0.688800 0.432490
C102 C 0.728250 0.582700 0.480920
C103 C 0.076810 0.684300 0.446140
C104 C 0.112950 0.535900 0.508530
C105 C 0.099180 0.546300 0.254390
C106 C 0.201700 0.876600 1.001990
C107 C 0.201700 0.623400 0.501990
C108 C 0.112950 0.964100 1.008530
C109 C 0.845510 1.007700 0.325460
C110 C 0.589170 1.197200 0.150120
C111 C 0.076810 0.815700 0.946140
C112 C 0.470670 0.919100 0.173510
C113 C 0.409030 0.718000 0.158050
C114 C 0.165730 0.811200 0.932490
C115 C 0.445640 0.636100 0.063660
C116 C 0.509830 0.828500 0.076140
C117 C 0.271750 1.082700 1.019080
C118 C 0.522880 0.977100 0.132420
C119 C 0.929160 1.128700 0.314670
C120 C 0.410830 0.697200 0.349880
C121 C 0.810960 0.480800 0.754750
C122 C 0.529330 0.419100 0.326490
C123 C 0.845510 0.492300 0.825460
C124 C 0.590970 0.218000 0.341950
C125 C 0.554360 0.136100 0.436340
C126 C 0.929160 0.371300 0.814670
C127 C 0.490170 0.328500 0.423860
C128 C 0.477120 0.477100 0.367580
C129 C 0.900820 0.453700 0.745610
C130 C 0.900820 1.046300 0.245610
C131 C 0.410830 -0.197200 0.849880
C132 C 0.756080 0.709600 0.723180
C133 C 0.070840 0.628700 0.185330
C134 C 0.529330 0.080900 0.826490
C135 C 0.590970 0.282000 0.841950
C136 C 0.189040 -0.019200 0.745250
C137 C 0.554360 0.363900 0.936340
C138 C 0.154490 -0.007700 0.674540
C139 C 0.490170 0.171500 0.923860
C140 C 0.477120 0.022900 0.867580
C141 C 0.070840 -0.128700 0.685330
C142 C 0.756080 0.790400 0.223180
C143 C 0.589170 0.302800 0.650120
C144 C 0.099180 -0.046300 0.754390
C145 C 0.470670 0.580900 0.673510
C146 C 0.409030 0.782000 0.658050
C147 C 0.243920 0.209600 0.776820
C148 C 0.445640 0.863900 0.563660
C149 C 0.509830 0.671500 0.576140
C150 C 0.154490 0.507700 0.174540
C151 C 0.189040 0.519200 0.245250
C152 C 0.522880 0.522900 0.632420
N153 N 0.648450 0.278500 0.616570
N154 N 0.351550 -0.221500 0.883430
N155 N 0.604450 0.423000 0.896630
N156 N 0.351550 0.721500 0.383430
N157 N 0.604450 0.077000 0.396630
N158 N 0.648450 1.221500 0.116570
N159 N 0.395550 0.577000 0.103370
N160 N 0.395550 0.923000 0.603370
O161 O 0.678580 -0.138800 0.014070
O162 O 0.725030 -0.201000 -0.074220
O163 O 0.311680 0.249500 0.252970
O164 O 0.321420 0.361200 0.485930
O165 O 0.725030 0.701000 0.425780
O166 O 0.274970 0.299000 0.574220
O167 O 0.586540 1.352400 0.195450
O168 O 0.678580 0.638800 0.514070
O169 O 0.274970 1.201000 1.074220
O170 O 0.413460 0.852400 0.304550
O171 O 0.321420 1.138800 0.985930
O172 O 0.688320 0.750500 0.747030
O173 O 0.413460 -0.352400 0.804550
O174 O 0.771350 0.848400 0.680100
O175 O 0.311680 0.250500 0.752970
O176 O 0.586540 0.147600 0.695450
O177 O 0.228650 0.151600 0.319900
O178 O 0.688320 0.749500 0.247030
O179 O 0.228650 0.348400 0.819900
O180 O 0.771350 0.651600 0.180100

#END
