./ACOMIP_from_POSCAR.cif_generated_by_CrystalShift
_symmetry_cell_setting triclinic
_symmetry_space_group_name_H-M 'P 1'
loop_
_symmetry_equiv_pos_site_id
_symmetry_equiv_pos_as_xyz
1 x,y,z
_cell_length_a 9.330000
_cell_length_b 17.701000
_cell_length_c 9.931900
_cell_angle_alpha 90.000000
_cell_angle_beta 101.221000
_cell_angle_gamma 90.000000
_cell_volume 1608.901252
loop_
_atom_site_label
_atom_site_type_symbol
_atom_site_fract_x
_atom_site_fract_y
_atom_site_fract_z
H1 H 1.262200 0.552600 0.648600
H2 H 1.217400 0.563000 0.485800
H3 H 1.134800 0.727000 0.504800
H4 H 1.023200 0.752200 0.600000
H5 H 1.184500 0.724900 0.668300
H6 H 1.068100 0.607700 0.837200
H7 H 0.903800 0.632900 0.775200
H8 H 0.950900 0.546400 0.767100
H9 H 0.992200 0.878300 0.287500
H10 H 1.099700 0.815500 0.246800
H11 H 1.107800 0.900700 0.194400
H12 H 0.868400 0.966800 -0.010500
H13 H 0.736500 0.916500 -0.091000
H14 H 0.659700 0.324000 1.118900
H15 H 0.508600 0.366500 1.062100
H16 H 0.600500 0.331400 0.957000
H17 H 0.740500 0.940300 0.065200
H18 H 0.366100 0.170000 1.215100
H19 H 0.373500 0.258800 1.245600
H20 H 0.517400 0.208200 1.286300
H21 H 1.064300 0.762600 -0.047700
H22 H 0.689700 0.163100 1.059500
H23 H 0.600200 0.163900 0.904800
H24 H 0.551700 0.108600 1.015300
H25 H 0.921400 0.783800 -0.158600
H26 H 0.191400 0.060300 1.014900
H27 H 0.316100 0.045500 0.927800
H28 H 0.162700 0.002600 0.888400
H29 H 1.048700 0.844800 -0.116100
H30 H -0.111800 0.086000 0.768600
H31 H -0.110500 0.175100 0.740900
H32 H -0.082400 0.143800 0.895000
H33 H 0.706800 0.371400 0.412300
H34 H 0.574900 -0.022700 0.679500
H35 H 0.485800 0.014500 0.785000
H36 H 0.547200 0.066600 0.677300
H37 H 0.784000 0.416800 0.306600
H38 H 0.446800 -0.041400 0.386200
H39 H 0.423900 0.048000 0.371700
H40 H 0.289400 -0.007900 0.320500
H41 H 0.860600 0.412100 0.465200
H42 H 0.139400 -0.087900 0.534800
H43 H 0.216000 -0.083200 0.693400
H44 H 0.293200 -0.128600 0.587700
H45 H 0.710600 0.492100 0.679500
H46 H -0.048700 0.344800 1.116100
H47 H 0.078600 0.283800 1.158600
H48 H -0.064300 0.262600 1.047700
H49 H 0.576100 0.548000 0.628300
H50 H 0.259500 0.440300 0.934800
H51 H 0.263500 0.416500 1.091000
H52 H 0.131600 0.466800 1.010500
H53 H 0.553200 0.458600 0.613800
H54 H -0.107800 0.400700 0.805600
H55 H -0.099700 0.315500 0.753200
H56 H 0.007800 0.378300 0.712500
H57 H 0.452800 0.566600 0.322700
H58 H 0.049100 0.046400 0.232900
H59 H 0.096200 0.132900 0.224800
H60 H -0.068100 0.107700 0.162800
H61 H 0.514200 0.514500 0.215000
H62 H -0.184500 0.224900 0.331700
H63 H -0.023200 0.252200 0.400000
H64 H -0.134800 0.227000 0.495200
H65 H 0.425100 0.477300 0.320500
H66 H -0.217400 0.063000 0.514200
H67 H -0.141900 -0.001600 0.439300
H68 H -0.262200 0.052600 0.351400
H69 H 1.082400 0.643800 0.105000
H70 H 1.110500 0.675100 0.259100
H71 H 1.111800 0.586000 0.231400
H72 H 0.837300 0.502600 0.111600
H73 H 0.683900 0.545500 0.072200
H74 H 0.808600 0.560300 -0.014900
H75 H 0.448300 0.608600 -0.015300
H76 H 0.399800 0.663900 0.095200
H77 H 0.310300 0.663100 -0.059500
H78 H 0.482600 0.708200 -0.286300
H79 H 0.626500 0.758800 -0.245600
H80 H 0.633900 0.670000 -0.215100
H81 H 0.399500 0.831400 0.043000
H82 H 0.340300 0.824000 -0.118900
H83 H 0.491400 0.866500 -0.062100
H84 H 1.141900 0.498400 0.560700
C85 C 0.573210 0.715410 -0.218810
C86 C 1.181490 0.549870 0.569220
C87 C 1.102450 0.717310 0.591300
C88 C 0.983310 0.598880 0.763520
C89 C 0.407530 0.658390 -0.001300
C90 C 1.042510 0.860830 0.215320
C91 C 0.572020 0.324660 1.046100
C92 C 0.426790 0.215410 1.218810
C93 C 0.789450 0.549960 0.076950
C94 C 0.800130 0.925860 -0.001700
C95 C 0.592470 0.158390 1.001300
C96 C 0.210550 0.049960 0.923050
C97 C 1.066510 0.634240 0.198220
C98 C -0.066510 0.134240 0.801780
C99 C 0.995670 0.803130 -0.082930
C100 C 0.505530 0.017110 0.691750
C101 C 0.494470 0.517110 0.308250
C102 C -0.181490 0.049870 0.430780
C103 C -0.102450 0.217310 0.408700
C104 C 0.016690 0.098880 0.236480
C105 C 0.621680 0.500170 0.610110
C106 C -0.042510 0.360830 0.784680
C107 C 0.199870 0.425860 1.001700
C108 C 0.004330 0.303130 1.082930
C109 C 0.766800 0.415480 0.400840
C110 C 0.233200 -0.084520 0.599160
C111 C 0.378320 0.000170 0.389890
C112 C 0.427980 0.824660 -0.046100
O113 O 0.722030 0.682780 0.464780
O114 O 0.310920 0.286080 0.746170
O115 O 0.689080 0.786080 0.253830
O116 O 0.277970 0.182780 0.535220
Si117 Si 0.863970 0.629984 0.196570
Si118 Si 0.821500 0.608297 0.422370
Si119 Si 0.669530 0.503556 0.435910
Si120 Si 0.746420 0.745604 0.117560
Si121 Si 0.528840 0.732970 -0.047050
Si122 Si 0.471160 0.232970 1.047050
Si123 Si -0.035170 0.117370 0.407070
Si124 Si 0.094940 0.337957 0.942140
Si125 Si 1.035170 0.617370 0.592930
Si126 Si 0.330470 0.003556 0.564090
Si127 Si 0.178500 0.108297 0.577630
Si128 Si 0.136030 0.129984 0.803430
Si129 Si 0.905060 0.837957 0.057860
Si130 Si 0.253580 0.245604 0.882440
Cl131 Cl 0.256460 0.360445 0.438420
Cl132 Cl 0.402510 0.763160 0.388170
Cl133 Cl 0.597490 0.263160 0.611830
Cl134 Cl 0.743540 0.860445 0.561580
Ti135 Ti 0.644730 0.770374 0.414295
Ti136 Ti 0.355270 0.270374 0.585705

#END
