
#######################################################################
#
#                 Cambridge Crystallographic Data Centre
#                                CCDC 
#
#######################################################################
#
# If this CIF has been generated from an entry in the Cambridge 
# Structural Database, then it will include bibliographic, chemical, 
# crystal, experimental, refinement or atomic coordinate data resulting 
# from the CCDC's data processing and validation procedures.
#
#######################################################################

data_ACOPIT
_symmetry_cell_setting           tetragonal
_symmetry_space_group_name_H-M   'P 43'
_symmetry_Int_Tables_number      78
_space_group_name_Hall           'P 4cw'
loop_
_symmetry_equiv_pos_site_id
_symmetry_equiv_pos_as_xyz
1 x,y,z
2 -y,x,3/4+z
3 -x,-y,1/2+z
4 y,-x,1/4+z
_cell_length_a                   11.8869(2)
_cell_length_b                   11.8869(2)
_cell_length_c                   12.6006(3)
_cell_angle_alpha                90
_cell_angle_beta                 90
_cell_angle_gamma                90
_cell_volume                     1780.44
loop_
_atom_site_label
_atom_site_type_symbol
_atom_site_fract_x
_atom_site_fract_y
_atom_site_fract_z
Se1 Se 1.05285(2) 0.45036(3) 0.88278(3)
P1 P 0.95818(6) 0.50170(6) 0.75048(7)
N1 N 1.0208(2) 0.4657(2) 0.6381(2)
H1 H 0.9841 0.4763 0.5801
C1 C 1.1319(2) 0.4181(2) 0.6296(3)
C2 C 1.1459(3) 0.3011(3) 0.6365(3)
C3 C 1.2530(3) 0.2570(3) 0.6212(3)
H2 H 1.2634 0.1795 0.6237
C4 C 1.3443(3) 0.3261(3) 0.6021(3)
H3 H 1.4153 0.2951 0.5917
C5 C 1.3295(3) 0.4423(3) 0.5985(3)
H4 H 1.3914 0.4887 0.5874
C6 C 1.2238(3) 0.4896(3) 0.6111(3)
C7 C 1.2070(3) 0.6155(3) 0.6033(3)
H5 H 1.1639 0.6327 0.5410
H6 H 1.2789 0.6520 0.5991
H7 H 1.1676 0.6418 0.6651
C8 C 1.0476(3) 0.2242(3) 0.6560(4)
H8 H 1.0724 0.1474 0.6530
H9 H 0.9913 0.2366 0.6027
H10 H 1.0163 0.2393 0.7248
C9 C 0.8188(2) 0.4407(2) 0.7444(3)
C10 C 0.7811(3) 0.3815(3) 0.6563(3)
H11 H 0.8277 0.3724 0.5976
C11 C 0.6728(3) 0.3358(3) 0.6565(3)
H12 H 0.6472 0.2961 0.5977
C12 C 0.6037(3) 0.3492(3) 0.7433(3)
H13 H 0.5320 0.3178 0.7431
C13 C 0.6406(3) 0.4096(3) 0.8312(3)
H14 H 0.5935 0.4187 0.8896
C14 C 0.7479(3) 0.4562(3) 0.8318(3)
H15 H 0.7724 0.4975 0.8900
C15 C 0.9283(2) 0.6520(2) 0.7459(3)
C16 C 0.8872(3) 0.6986(3) 0.6521(3)
H16 H 0.8794 0.6540 0.5919
C17 C 0.8580(3) 0.8118(3) 0.6483(4)
H17 H 0.8298 0.8429 0.5860
C18 C 0.8710(3) 0.8778(3) 0.7379(4)
H18 H 0.8531 0.9539 0.7350
C19 C 0.9100(3) 0.8323(3) 0.8311(4)
H19 H 0.9174 0.8772 0.8911
C20 C 0.9386(3) 0.7181(3) 0.8356(4)
H20 H 0.9644 0.6869 0.8987
Se1 Se 0.54964(3) 1.05285(2) 0.63278(3)
P1 P 0.49830(6) 0.95818(6) 0.50048(7)
N1 N 0.5343(2) 1.0208(2) 0.3881(2)
H1 H 0.5237 0.9841 0.3301
C1 C 0.5819(2) 1.1319(2) 0.3796(3)
C2 C 0.6989(3) 1.1459(3) 0.3865(3)
C3 C 0.7430(3) 1.2530(3) 0.3712(3)
H2 H 0.8205 1.2634 0.3737
C4 C 0.6739(3) 1.3443(3) 0.3521(3)
H3 H 0.7049 1.4153 0.3417
C5 C 0.5577(3) 1.3295(3) 0.3485(3)
H4 H 0.5113 1.3914 0.3374
C6 C 0.5104(3) 1.2238(3) 0.3611(3)
C7 C 0.3845(3) 1.2070(3) 0.3533(3)
H5 H 0.3673 1.1639 0.2910
H6 H 0.3480 1.2789 0.3491
H7 H 0.3582 1.1676 0.4151
C8 C 0.7758(3) 1.0476(3) 0.4060(4)
H8 H 0.8526 1.0724 0.4030
H9 H 0.7634 0.9913 0.3527
H10 H 0.7607 1.0163 0.4748
C9 C 0.5593(2) 0.8188(2) 0.4944(3)
C10 C 0.6185(3) 0.7811(3) 0.4063(3)
H11 H 0.6276 0.8277 0.3476
C11 C 0.6642(3) 0.6728(3) 0.4065(3)
H12 H 0.7039 0.6472 0.3477
C12 C 0.6508(3) 0.6037(3) 0.4933(3)
H13 H 0.6822 0.5320 0.4931
C13 C 0.5904(3) 0.6406(3) 0.5812(3)
H14 H 0.5813 0.5935 0.6396
C14 C 0.5438(3) 0.7479(3) 0.5818(3)
H15 H 0.5025 0.7724 0.6400
C15 C 0.3480(2) 0.9283(2) 0.4959(3)
C16 C 0.3014(3) 0.8872(3) 0.4021(3)
H16 H 0.3460 0.8794 0.3419
C17 C 0.1882(3) 0.8580(3) 0.3983(4)
H17 H 0.1571 0.8298 0.3360
C18 C 0.1222(3) 0.8710(3) 0.4879(4)
H18 H 0.0461 0.8531 0.4850
C19 C 0.1677(3) 0.9100(3) 0.5811(4)
H19 H 0.1228 0.9174 0.6411
C20 C 0.2819(3) 0.9386(3) 0.5856(4)
H20 H 0.3131 0.9644 0.6487
Se1 Se -0.05285(2) 0.54964(3) 0.38278(3)
P1 P 0.04182(6) 0.49830(6) 0.25048(7)
N1 N -0.0208(2) 0.5343(2) 0.1381(2)
H1 H 0.0159 0.5237 0.0801
C1 C -0.1319(2) 0.5819(2) 0.1296(3)
C2 C -0.1459(3) 0.6989(3) 0.1365(3)
C3 C -0.2530(3) 0.7430(3) 0.1212(3)
H2 H -0.2634 0.8205 0.1237
C4 C -0.3443(3) 0.6739(3) 0.1021(3)
H3 H -0.4153 0.7049 0.0917
C5 C -0.3295(3) 0.5577(3) 0.0985(3)
H4 H -0.3914 0.5113 0.0874
C6 C -0.2238(3) 0.5104(3) 0.1111(3)
C7 C -0.2070(3) 0.3845(3) 0.1033(3)
H5 H -0.1639 0.3673 0.0410
H6 H -0.2789 0.3480 0.0991
H7 H -0.1676 0.3582 0.1651
C8 C -0.0476(3) 0.7758(3) 0.1560(4)
H8 H -0.0724 0.8526 0.1530
H9 H 0.0087 0.7634 0.1027
H10 H -0.0163 0.7607 0.2248
C9 C 0.1812(2) 0.5593(2) 0.2444(3)
C10 C 0.2189(3) 0.6185(3) 0.1563(3)
H11 H 0.1723 0.6276 0.0976
C11 C 0.3272(3) 0.6642(3) 0.1565(3)
H12 H 0.3528 0.7039 0.0977
C12 C 0.3963(3) 0.6508(3) 0.2433(3)
H13 H 0.4680 0.6822 0.2431
C13 C 0.3594(3) 0.5904(3) 0.3312(3)
H14 H 0.4065 0.5813 0.3896
C14 C 0.2521(3) 0.5438(3) 0.3318(3)
H15 H 0.2276 0.5025 0.3900
C15 C 0.0717(2) 0.3480(2) 0.2459(3)
C16 C 0.1128(3) 0.3014(3) 0.1521(3)
H16 H 0.1206 0.3460 0.0919
C17 C 0.1420(3) 0.1882(3) 0.1483(4)
H17 H 0.1702 0.1571 0.0860
C18 C 0.1290(3) 0.1222(3) 0.2379(4)
H18 H 0.1469 0.0461 0.2350
C19 C 0.0900(3) 0.1677(3) 0.3311(4)
H19 H 0.0826 0.1228 0.3911
C20 C 0.0614(3) 0.2819(3) 0.3356(4)
H20 H 0.0356 0.3131 0.3987
Se1 Se 0.45036(3) -0.05285(2) 1.13278(3)
P1 P 0.50170(6) 0.04182(6) 1.00048(7)
N1 N 0.4657(2) -0.0208(2) 0.8881(2)
H1 H 0.4763 0.0159 0.8301
C1 C 0.4181(2) -0.1319(2) 0.8796(3)
C2 C 0.3011(3) -0.1459(3) 0.8865(3)
C3 C 0.2570(3) -0.2530(3) 0.8712(3)
H2 H 0.1795 -0.2634 0.8737
C4 C 0.3261(3) -0.3443(3) 0.8521(3)
H3 H 0.2951 -0.4153 0.8417
C5 C 0.4423(3) -0.3295(3) 0.8485(3)
H4 H 0.4887 -0.3914 0.8374
C6 C 0.4896(3) -0.2238(3) 0.8611(3)
C7 C 0.6155(3) -0.2070(3) 0.8533(3)
H5 H 0.6327 -0.1639 0.7910
H6 H 0.6520 -0.2789 0.8491
H7 H 0.6418 -0.1676 0.9151
C8 C 0.2242(3) -0.0476(3) 0.9060(4)
H8 H 0.1474 -0.0724 0.9030
H9 H 0.2366 0.0087 0.8527
H10 H 0.2393 -0.0163 0.9748
C9 C 0.4407(2) 0.1812(2) 0.9944(3)
C10 C 0.3815(3) 0.2189(3) 0.9063(3)
H11 H 0.3724 0.1723 0.8476
C11 C 0.3358(3) 0.3272(3) 0.9065(3)
H12 H 0.2961 0.3528 0.8477
C12 C 0.3492(3) 0.3963(3) 0.9933(3)
H13 H 0.3178 0.4680 0.9931
C13 C 0.4096(3) 0.3594(3) 1.0812(3)
H14 H 0.4187 0.4065 1.1396
C14 C 0.4562(3) 0.2521(3) 1.0818(3)
H15 H 0.4975 0.2276 1.1400
C15 C 0.6520(2) 0.0717(2) 0.9959(3)
C16 C 0.6986(3) 0.1128(3) 0.9021(3)
H16 H 0.6540 0.1206 0.8419
C17 C 0.8118(3) 0.1420(3) 0.8983(4)
H17 H 0.8429 0.1702 0.8360
C18 C 0.8778(3) 0.1290(3) 0.9879(4)
H18 H 0.9539 0.1469 0.9850
C19 C 0.8323(3) 0.0900(3) 1.0811(4)
H19 H 0.8772 0.0826 1.1411
C20 C 0.7181(3) 0.0614(3) 1.0856(4)
H20 H 0.6869 0.0356 1.1487

#END
