./ACOPEO_from_POSCAR.cif_generated_by_CrystalShift
_symmetry_cell_setting triclinic
_symmetry_space_group_name_H-M 'P 1'
loop_
_symmetry_equiv_pos_site_id
_symmetry_equiv_pos_as_xyz
1 x,y,z
_cell_length_a 11.679000
_cell_length_b 16.358000
_cell_length_c 15.793000
_cell_angle_alpha 90.000000
_cell_angle_beta 93.160000
_cell_angle_gamma 90.000000
_cell_volume 3012.587340
loop_
_atom_site_label
_atom_site_type_symbol
_atom_site_fract_x
_atom_site_fract_y
_atom_site_fract_z
H1 H 1.076700 0.874600 0.957900
H2 H 1.062900 0.783000 0.930000
H3 H 0.881300 0.884600 1.311500
H4 H 0.928700 0.999400 1.387900
H5 H 0.874700 1.126700 1.333000
H6 H 0.779800 1.132000 1.198700
H7 H 0.678800 1.131200 1.085100
H8 H 0.597300 1.124200 0.947000
H9 H 0.590300 1.000300 0.877400
H10 H 0.647500 0.883800 0.949500
H11 H 0.423300 0.625400 1.042100
H12 H 0.373200 0.695300 0.983000
H13 H 0.852500 0.383800 0.550500
H14 H 0.437100 0.717000 1.070000
H15 H 0.909700 0.500300 0.622600
H16 H 0.618700 0.615400 0.688500
H17 H 0.902700 0.624200 0.553000
H18 H 0.571300 0.500600 0.612100
H19 H 0.821200 0.631200 0.414900
H20 H 0.625300 0.373300 0.667000
H21 H 0.720200 0.368000 0.801300
H22 H 0.821200 0.368800 0.914900
H23 H 0.720200 0.632000 0.301300
H24 H 0.902700 0.375800 1.053000
H25 H 0.625300 0.626700 0.167000
H26 H 0.909700 0.499700 1.122600
H27 H 0.571300 0.499400 0.112100
H28 H 0.852500 0.616200 1.050500
H29 H 0.618700 0.384600 0.188500
H30 H 0.423300 0.625400 0.042100
H31 H 0.373200 0.695300 -0.017000
H32 H 0.437100 0.283000 0.570000
H33 H 0.373200 0.304700 0.483000
H34 H 0.423300 0.374600 0.542100
H35 H 0.437100 0.717000 0.070000
H36 H 0.618700 0.615400 -0.311500
H37 H 0.571300 0.500600 -0.387900
H38 H 0.625300 0.373300 -0.333000
H39 H 0.720200 0.368000 -0.198700
H40 H 0.821200 0.368800 -0.085100
H41 H 0.902700 0.375800 0.053000
H42 H 0.909700 0.499700 0.122600
H43 H 0.852500 0.616200 0.050500
H44 H 1.076700 0.874600 -0.042100
H45 H 1.126800 0.804700 0.017000
H46 H 1.062900 0.783000 -0.070000
H47 H 0.881300 0.884600 0.311500
H48 H 0.928700 0.999400 0.387900
H49 H 0.874700 1.126700 0.333000
H50 H 0.647500 0.116200 0.449500
H51 H 0.779800 1.132000 0.198700
H52 H 0.590300 -0.000300 0.377400
H53 H 0.678800 1.131200 0.085100
H54 H 0.597300 -0.124200 0.447000
H55 H 0.597300 1.124200 -0.053000
H56 H 0.678800 -0.131200 0.585100
H57 H 0.590300 1.000300 -0.122600
H58 H 0.647500 0.883800 -0.050500
H59 H 0.576700 0.625400 0.457900
H60 H 0.779800 -0.132000 0.698700
H61 H 0.626800 0.695300 0.517000
H62 H 0.874700 -0.126700 0.833000
H63 H 0.562900 0.717000 0.430000
H64 H 0.928700 0.000600 0.887900
H65 H 0.381300 0.615400 0.811500
H66 H 0.881300 0.115400 0.811500
H67 H 0.428700 0.500600 0.887900
H68 H 0.374700 0.373300 0.833000
H69 H 1.062900 0.217000 0.430000
H70 H 1.126800 0.195300 0.517000
H71 H 1.076700 0.125400 0.457900
H72 H 0.279800 0.368000 0.698700
H73 H 0.178800 0.368800 0.585100
H74 H 0.097300 0.375800 0.447000
H75 H 0.090300 0.499700 0.377400
H76 H 0.147500 0.616200 0.449500
H77 H -0.076700 0.874600 0.542100
H78 H -0.126800 0.804700 0.483000
H79 H -0.062900 0.783000 0.570000
H80 H 0.147500 0.383800 -0.050500
H81 H 0.118700 0.884600 0.188500
H82 H 0.090300 0.500300 -0.122600
H83 H 0.071300 0.999400 0.112100
H84 H 0.097300 0.624200 -0.053000
H85 H 0.125300 1.126700 0.167000
H86 H 0.178800 0.631200 0.085100
H87 H 0.220200 1.132000 0.301300
H88 H 0.321200 1.131200 0.414900
H89 H 0.402700 1.124200 0.553000
H90 H 0.279800 0.632000 0.198700
H91 H 0.409700 1.000300 0.622600
H92 H 0.374700 0.626700 0.333000
H93 H 0.352500 0.883800 0.550500
H94 H 0.428700 0.499400 0.387900
H95 H 0.576700 0.374600 0.957900
H96 H 0.381300 0.384600 0.311500
H97 H 0.626800 0.304700 1.017000
H98 H 0.562900 0.283000 0.930000
H99 H 0.562900 0.283000 -0.070000
H100 H 0.626800 0.304700 0.017000
H101 H 0.576700 0.374600 -0.042100
H102 H 0.381300 0.384600 1.311500
H103 H 0.428700 0.499400 1.387900
H104 H 0.374700 0.626700 1.333000
H105 H 0.279800 0.632000 1.198700
H106 H 0.178800 0.631200 1.085100
H107 H 0.097300 0.624200 0.947000
H108 H 0.090300 0.500300 0.877400
H109 H 0.147500 0.383800 0.949500
H110 H -0.076700 0.125400 1.042100
H111 H -0.126800 0.195300 0.983000
H112 H -0.062900 0.217000 1.070000
H113 H 0.118700 0.115400 0.688500
H114 H 0.352500 0.116200 0.050500
H115 H 0.071300 0.000600 0.612100
H116 H 0.409700 -0.000300 0.122600
H117 H 0.125300 -0.126700 0.667000
H118 H 0.402700 -0.124200 0.053000
H119 H 0.220200 -0.132000 0.801300
H120 H 0.321200 -0.131200 -0.085100
H121 H 0.321200 -0.131200 0.914900
H122 H 0.402700 -0.124200 1.053000
H123 H 0.409700 -0.000300 1.122600
H124 H 0.220200 -0.132000 -0.198700
H125 H 0.352500 0.116200 1.050500
H126 H 0.125300 -0.126700 -0.333000
H127 H -0.076700 0.125400 0.042100
H128 H 0.071300 0.000600 -0.387900
H129 H -0.126800 0.195300 -0.017000
H130 H 0.118700 0.115400 -0.311500
H131 H -0.062900 0.217000 0.070000
H132 H 1.126800 0.804700 1.017000
C133 C 0.047600 0.184900 -0.020600
C134 C 0.140200 0.064700 -0.289200
C135 C 0.111200 -0.003700 -0.335500
C136 C 1.065000 0.819800 0.977400
C137 C 0.952400 0.815100 1.020600
C138 C 0.859800 0.935300 1.289200
C139 C 0.888800 1.003700 1.335500
C140 C 0.857600 1.079000 1.302800
C141 C 0.799900 1.082000 1.223300
C142 C 0.772700 1.009800 1.181300
C143 C 0.713200 1.010000 1.095700
C144 C 0.673400 1.081500 1.056700
C145 C 0.625100 1.077300 0.974200
C146 C 0.618900 1.003600 0.933400
C147 C 0.655700 0.934300 0.976300
C148 C 0.844300 0.434300 0.523700
C149 C 0.881100 0.503600 0.566600
C150 C 0.435000 0.680200 1.022600
C151 C 0.547600 0.684900 0.979400
C152 C 0.344300 0.065700 1.023700
C153 C 0.142400 -0.079000 -0.302800
C154 C 0.381100 -0.003600 1.066600
C155 C 0.200100 -0.082000 -0.223300
C156 C 0.374900 -0.077300 1.025800
C157 C 0.227300 -0.009800 -0.181300
C158 C 0.326600 -0.081500 0.943300
C159 C 0.286800 -0.010000 -0.095700
C160 C 0.286800 -0.010000 0.904300
C161 C 0.227300 -0.009800 0.818700
C162 C 0.200100 -0.082000 0.776700
C163 C 0.326600 -0.081500 -0.056700
C164 C 0.142400 -0.079000 0.697200
C165 C 0.374900 -0.077300 0.025800
C166 C 0.111200 -0.003700 0.664500
C167 C 0.381100 -0.003600 0.066600
C168 C 0.140200 0.064700 0.710800
C169 C 0.344300 0.065700 0.023700
C170 C 0.047600 0.184900 0.979400
C171 C -0.065000 0.180200 1.022600
C172 C 0.874900 0.577300 0.525800
C173 C 0.640200 0.564700 0.710800
C174 C 0.826600 0.581500 0.443300
C175 C 0.611200 0.496300 0.664500
C176 C 0.786800 0.510000 0.404300
C177 C 0.642400 0.421000 0.697200
C178 C 0.727300 0.509800 0.318700
C179 C 0.700100 0.418000 0.776700
C180 C 0.727300 0.490200 0.818700
C181 C 0.786800 0.490000 0.904300
C182 C 0.700100 0.582000 0.276700
C183 C 0.826600 0.418500 0.943300
C184 C 0.642400 0.579000 0.197200
C185 C 0.874900 0.422700 1.025800
C186 C 0.155700 0.434300 0.976300
C187 C 0.611200 0.503700 0.164500
C188 C 0.118900 0.503600 0.933400
C189 C 0.881100 0.496400 1.066600
C190 C 0.125100 0.577300 0.974200
C191 C 0.640200 0.435300 0.210800
C192 C 0.173400 0.581500 1.056700
C193 C 0.844300 0.565700 1.023700
C194 C 0.213200 0.510000 1.095700
C195 C 0.272700 0.509800 1.181300
C196 C 0.299900 0.582000 1.223300
C197 C 0.547600 0.315100 0.479400
C198 C 0.357600 0.579000 1.302800
C199 C 0.435000 0.319800 0.522600
C200 C 0.388800 0.503700 1.335500
C201 C 0.435000 0.680200 0.022600
C202 C 0.359800 0.435300 1.289200
C203 C 0.547600 0.684900 -0.020600
C204 C 0.452400 0.315100 1.020600
C205 C 0.565000 0.319800 0.977400
C206 C 0.565000 0.319800 -0.022600
C207 C 0.452400 0.315100 0.020600
C208 C 0.359800 0.435300 0.289200
C209 C 0.640200 0.564700 -0.289200
C210 C 0.611200 0.496300 -0.335500
C211 C 0.642400 0.421000 -0.302800
C212 C 0.700100 0.418000 -0.223300
C213 C 0.727300 0.490200 -0.181300
C214 C 0.786800 0.490000 -0.095700
C215 C 0.826600 0.418500 -0.056700
C216 C 0.874900 0.422700 0.025800
C217 C 0.881100 0.496400 0.066600
C218 C 0.844300 0.565700 0.023700
C219 C 1.065000 0.819800 -0.022600
C220 C 0.344300 0.934300 0.523700
C221 C 0.388800 0.503700 0.335500
C222 C 0.381100 1.003600 0.566600
C223 C 0.357600 0.579000 0.302800
C224 C 0.374900 1.077300 0.525800
C225 C 0.299900 0.582000 0.223300
C226 C 0.326600 1.081500 0.443300
C227 C 0.272700 0.509800 0.181300
C228 C 0.286800 1.010000 0.404300
C229 C 0.227300 1.009800 0.318700
C230 C 0.200100 1.082000 0.276700
C231 C 0.213200 0.510000 0.095700
C232 C 0.142400 1.079000 0.197200
C233 C 0.173400 0.581500 0.056700
C234 C 0.111200 1.003700 0.164500
C235 C 0.125100 0.577300 -0.025800
C236 C 0.140200 0.935300 0.210800
C237 C 0.118900 0.503600 -0.066600
C238 C 0.047600 0.815100 0.479400
C239 C -0.065000 0.819800 0.522600
C240 C 0.155700 0.434300 -0.023700
C241 C 0.952400 0.815100 0.020600
C242 C 0.859800 0.935300 0.289200
C243 C 0.888800 1.003700 0.335500
C244 C 0.655700 0.065700 0.476300
C245 C 0.857600 1.079000 0.302800
C246 C 0.618900 -0.003600 0.433400
C247 C 0.799900 1.082000 0.223300
C248 C 0.772700 1.009800 0.181300
C249 C 0.713200 1.010000 0.095700
C250 C 0.625100 -0.077300 0.474200
C251 C 0.673400 1.081500 0.056700
C252 C 0.673400 -0.081500 0.556700
C253 C 0.625100 1.077300 -0.025800
C254 C 0.713200 -0.010000 0.595700
C255 C 0.618900 1.003600 -0.066600
C256 C 0.772700 -0.009800 0.681300
C257 C 0.155700 0.565700 0.476300
C258 C 0.655700 0.934300 -0.023700
C259 C 0.118900 0.496400 0.433400
C260 C 0.799900 -0.082000 0.723300
C261 C 0.125100 0.422700 0.474200
C262 C 0.857600 -0.079000 0.802800
C263 C 0.173400 0.418500 0.556700
C264 C 0.888800 -0.003700 0.835500
C265 C 0.213200 0.490000 0.595700
C266 C 0.272700 0.490200 0.681300
C267 C 0.299900 0.418000 0.723300
C268 C 0.565000 0.680200 0.477400
C269 C 0.357600 0.421000 0.802800
C270 C 1.065000 0.180200 0.477400
C271 C 0.388800 0.496300 0.835500
C272 C 0.952400 0.184900 0.520600
C273 C 0.359800 0.564700 0.789200
C274 C 0.859800 0.064700 0.789200
C275 C 0.452400 0.684900 0.520600
C276 C -0.065000 0.180200 0.022600
N277 N 0.296900 0.062700 0.944100
N278 N 0.197900 0.062500 0.786600
N279 N 0.197900 0.062500 -0.213400
N280 N 0.296900 0.062700 -0.055900
N281 N 0.203100 0.437300 1.055900
N282 N 0.302100 0.437500 1.213400
N283 N 0.697900 0.562500 0.786600
N284 N 0.796900 0.562700 0.944100
N285 N 0.703100 0.937300 0.055900
N286 N 0.802100 0.937500 0.213400
N287 N 0.703100 0.937300 1.055900
N288 N 0.302100 0.562500 0.713400
N289 N 0.203100 0.562700 0.555900
N290 N 0.802100 0.937500 1.213400
N291 N 0.796900 0.437300 0.444100
N292 N 0.697900 0.437500 0.286600
N293 N 0.296900 0.937300 0.444100
N294 N 0.697900 0.562500 -0.213400
N295 N 0.796900 0.562700 -0.055900
N296 N 0.197900 0.937500 0.286600
N297 N 0.302100 0.437500 0.213400
N298 N 0.703100 0.062700 0.555900
N299 N 0.203100 0.437300 0.055900
N300 N 0.802100 0.062500 0.713400
O301 O 0.596300 0.236000 0.228600
O302 O 0.559000 0.359900 0.416400
O303 O 0.625200 0.269400 0.506600
O304 O 0.374800 0.730600 0.493400
O305 O 0.441000 0.640100 0.583600
O306 O -0.096300 0.736000 0.271400
O307 O 0.594400 0.225600 0.781200
O308 O 1.094400 0.274400 0.281200
O309 O 0.538900 0.132600 0.684500
O310 O 1.096300 0.264000 0.728600
O311 O 0.966800 0.354700 0.679100
O312 O 0.625200 0.730600 0.006600
O313 O 0.559000 0.640100 -0.083600
O314 O 1.096300 0.736000 0.228600
O315 O 0.596300 0.764000 -0.271400
O316 O 0.966800 0.645300 0.179100
O317 O 0.961100 0.632600 -0.184500
O318 O 0.905600 0.725600 -0.281200
O319 O 0.403700 0.764000 0.771400
O320 O 0.033200 0.645300 0.320900
O321 O 0.538900 0.867400 0.184500
O322 O 1.038900 0.367400 0.184500
O323 O 0.405600 0.774400 0.218800
O324 O 0.533200 0.145300 0.320900
O325 O 0.461100 0.867400 0.315500
O326 O 0.903700 0.264000 0.771400
O327 O -0.033200 0.645300 0.179100
O328 O 0.403700 0.236000 0.271400
O329 O 0.038900 0.632600 0.684500
O330 O 0.059000 0.859900 0.416400
O331 O 0.125200 0.769400 0.506600
O332 O 0.941000 0.140100 0.583600
O333 O 0.461100 0.132600 0.815500
O334 O 0.874800 0.230600 0.493400
O335 O 0.466800 0.145300 0.179100
O336 O 0.405600 0.225600 0.718800
O337 O 0.961100 0.367400 0.315500
O338 O 0.905600 0.274400 0.218800
O339 O 0.125200 0.230600 1.006600
O340 O 0.594400 0.774400 0.281200
O341 O 0.059000 0.140100 0.916400
O342 O 0.125200 0.230600 0.006600
O343 O 0.059000 0.140100 -0.083600
O344 O 0.094400 0.725600 0.781200
O345 O 0.094400 0.274400 0.281200
O346 O 0.533200 0.854700 0.820900
O347 O 0.594400 0.774400 1.281200
O348 O 1.094400 0.725600 0.781200
O349 O 0.596300 0.764000 0.728600
O350 O 0.466800 0.854700 0.679100
O351 O -0.038900 0.632600 0.815500
O352 O -0.094400 0.725600 0.718800
O353 O 0.538900 0.867400 1.184500
O354 O 0.625200 0.730600 1.006600
O355 O 0.559000 0.640100 0.916400
O356 O 0.961100 0.632600 0.815500
O357 O 0.905600 0.725600 0.718800
O358 O 1.033200 0.645300 0.320900
O359 O 0.903700 0.736000 0.271400
O360 O 0.096300 0.264000 -0.271400
O361 O -0.038900 0.367400 0.315500
O362 O 0.461100 0.132600 -0.184500
O363 O -0.094400 0.274400 0.218800
O364 O 0.941000 0.859900 0.083600
O365 O 0.874800 0.769400 -0.006600
O366 O 0.094400 0.274400 1.281200
O367 O 0.038900 0.367400 1.184500
O368 O 0.033200 0.354700 0.820900
O369 O 0.403700 0.236000 1.271400
O370 O -0.096300 0.264000 0.771400
O371 O 0.441000 0.359900 1.083600
O372 O 0.374800 0.269400 0.993400
O373 O 1.038900 0.632600 0.684500
O374 O 0.903700 0.736000 1.271400
O375 O 0.405600 0.225600 -0.281200
O376 O 1.033200 0.354700 0.820900
O377 O 0.038900 0.367400 0.184500
O378 O 0.441000 0.359900 0.083600
O379 O 0.374800 0.269400 -0.006600
O380 O -0.033200 0.354700 0.679100
O381 O 0.096300 0.264000 0.728600
O382 O 0.096300 0.736000 0.228600
O383 O 0.941000 0.859900 1.083600
O384 O 0.874800 0.769400 0.993400
Cl385 Cl 0.000000 0.319690 0.250000
Cl386 Cl 1.000000 0.309230 0.750000
Cl387 Cl 0.500000 0.180310 0.750000
Cl388 Cl 1.000000 0.319690 0.250000
Cl389 Cl 1.000000 0.680310 0.750000
Cl390 Cl 1.000000 0.690770 0.250000
Cl391 Cl 0.500000 0.819690 0.250000
Cl392 Cl 0.000000 0.680310 0.750000
Cl393 Cl 0.500000 0.809230 0.750000
Cl394 Cl 0.000000 0.690770 0.250000
Cl395 Cl 0.500000 0.190770 0.250000
Cl396 Cl 0.000000 0.309230 0.750000
Pb397 Pb 0.263430 0.312902 0.128643
Pb398 Pb 0.236570 0.187098 -0.128643
Pb399 Pb 0.236570 0.812902 0.371357
Pb400 Pb -0.263430 0.312902 0.371357
Pb401 Pb 0.763430 0.187098 0.628643
Pb402 Pb 0.736570 0.687098 0.871357
Pb403 Pb 1.236570 0.812902 0.371357
Pb404 Pb 0.736570 0.687098 -0.128643
Pb405 Pb 0.263430 0.687098 0.628643
Pb406 Pb 0.236570 0.187098 0.871357
Pb407 Pb -0.236570 0.812902 0.128643
Pb408 Pb 1.236570 0.187098 0.871357
Pb409 Pb 0.763430 0.812902 0.128643
Pb410 Pb -0.263430 0.687098 0.871357
Pb411 Pb -0.236570 0.187098 0.628643
Pb412 Pb 0.263430 0.312902 1.128643
Pb413 Pb 0.763430 0.812902 1.128643
Pb414 Pb 1.263430 0.312902 0.128643
Pb415 Pb 1.263430 0.687098 0.628643
Pb416 Pb 0.736570 0.312902 0.371357

#END
