
#######################################################################
#
#                 Cambridge Crystallographic Data Centre
#                                CCDC 
#
#######################################################################
#
# If this CIF has been generated from an entry in the Cambridge 
# Structural Database, then it will include bibliographic, chemical, 
# crystal, experimental, refinement or atomic coordinate data resulting 
# from the CCDC's data processing and validation procedures.
#
#######################################################################

data_ACOXEX
_symmetry_cell_setting           orthorhombic
_symmetry_space_group_name_H-M   'P b c a'
_symmetry_Int_Tables_number      61
_space_group_name_Hall           '-P 2ac 2ab'
loop_
_symmetry_equiv_pos_site_id
_symmetry_equiv_pos_as_xyz
1 x,y,z
2 1/2-x,-y,1/2+z
3 1/2+x,1/2-y,-z
4 -x,1/2+y,1/2-z
5 -x,-y,-z
6 1/2+x,y,1/2-z
7 1/2-x,1/2+y,z
8 x,1/2-y,1/2+z
_cell_length_a                   20.471(5)
_cell_length_b                   7.953(5)
_cell_length_c                   23.261(5)
_cell_angle_alpha                90
_cell_angle_beta                 90
_cell_angle_gamma                90
_cell_volume                     3787.03
loop_
_atom_site_label
_atom_site_type_symbol
_atom_site_fract_x
_atom_site_fract_y
_atom_site_fract_z
Pt1 Pt 0.5000 0.0000 0.5000
P1 P 0.56393(2) -0.14737(6) 0.56595(2)
O1 O 0.37835(7) -0.04712(17) 0.55651(6)
O2 O 0.43972(7) 0.13385(18) 0.59875(6)
N1 N 0.42955(8) 0.03158(18) 0.55940(7)
C1 C 0.52158(9) -0.2718(2) 0.62035(8)
C2 C 0.48497(9) -0.1922(2) 0.66265(8)
H1 H 0.4821 -0.0730 0.6630
C3 C 0.45281(11) -0.2840(3) 0.70417(9)
H2 H 0.4274 -0.2281 0.7325
C4 C 0.45744(11) -0.4578(3) 0.70467(9)
H3 H 0.4355 -0.5211 0.7334
C5 C 0.49403(12) -0.5385(2) 0.66335(9)
H4 H 0.4974 -0.6576 0.6637
C6 C 0.52600(10) -0.4466(2) 0.62121(9)
H5 H 0.5510 -0.5031 0.5928
C7 C 0.61430(8) -0.0041(3) 0.60718(7)
C8 C 0.62447(9) 0.1594(2) 0.58842(8)
H6 H 0.6052 0.1964 0.5535
C9 C 0.66263(10) 0.2692(3) 0.62033(9)
H7 H 0.6698 0.3807 0.6071
C10 C 0.69008(10) 0.2167(3) 0.67105(10)
H8 H 0.7153 0.2928 0.6933
C11 C 0.68118(10) 0.0537(3) 0.68997(9)
H9 H 0.7013 0.0174 0.7246
C12 C 0.64311(10) -0.0569(2) 0.65873(8)
H10 H 0.6365 -0.1684 0.6722
C13 C 0.61789(9) -0.2928(2) 0.52916(8)
C14 C 0.59034(10) -0.4039(2) 0.48938(8)
H11 H 0.5446 -0.4018 0.4827
C15 C 0.62902(10) -0.5170(3) 0.45957(8)
H12 H 0.6098 -0.5937 0.4332
C16 C 0.69557(10) -0.5175(3) 0.46843(9)
H13 H 0.7224 -0.5942 0.4479
C17 C 0.72358(10) -0.4067(2) 0.50713(10)
H14 H 0.7696 -0.4068 0.5126
C18 C 0.68506(9) -0.2962(2) 0.53788(9)
H15 H 0.7045 -0.2224 0.5650
P1D P 0.43607(2) 0.14737(6) 0.43405(2)
O1D O 0.62165(7) 0.04712(17) 0.44349(6)
O2D O 0.56028(7) -0.13385(18) 0.40125(6)
N1D N 0.57045(8) -0.03158(18) 0.44060(7)
C1D C 0.47842(9) 0.2718(2) 0.37965(8)
C2D C 0.51503(9) 0.1922(2) 0.33735(8)
H1D H 0.5179 0.0730 0.3370
C3D C 0.54719(11) 0.2840(3) 0.29583(9)
H2D H 0.5726 0.2281 0.2675
C4D C 0.54256(11) 0.4578(3) 0.29533(9)
H3D H 0.5645 0.5211 0.2666
C5D C 0.50597(12) 0.5385(2) 0.33665(9)
H4D H 0.5026 0.6576 0.3363
C6D C 0.47400(10) 0.4466(2) 0.37879(9)
H5D H 0.4490 0.5031 0.4072
C7D C 0.38570(8) 0.0041(3) 0.39282(7)
C8D C 0.37553(9) -0.1594(2) 0.41158(8)
H6D H 0.3948 -0.1964 0.4465
C9D C 0.33737(10) -0.2692(3) 0.37967(9)
H7D H 0.3302 -0.3807 0.3929
C10D C 0.30992(10) -0.2167(3) 0.32895(10)
H8D H 0.2847 -0.2928 0.3067
C11D C 0.31882(10) -0.0537(3) 0.31003(9)
H9D H 0.2987 -0.0174 0.2754
C12D C 0.35689(10) 0.0569(2) 0.34127(8)
H10D H 0.3635 0.1684 0.3278
C13D C 0.38211(9) 0.2928(2) 0.47084(8)
C14D C 0.40966(10) 0.4039(2) 0.51062(8)
H11D H 0.4554 0.4018 0.5173
C15D C 0.37098(10) 0.5170(3) 0.54043(8)
H12D H 0.3902 0.5937 0.5668
C16D C 0.30443(10) 0.5175(3) 0.53157(9)
H13D H 0.2776 0.5942 0.5521
C17D C 0.27642(10) 0.4067(2) 0.49287(10)
H14D H 0.2304 0.4068 0.4874
C18D C 0.31494(9) 0.2962(2) 0.46212(9)
H15D H 0.2955 0.2224 0.4350
Pt1 Pt 0.5000 1.0000 0.5000
P1 P 0.56393(2) 0.85263(6) 0.56595(2)
O1 O 0.37835(7) 0.95288(17) 0.55651(6)
O2 O 0.43972(7) 1.13385(18) 0.59875(6)
N1 N 0.42955(8) 1.03158(18) 0.55940(7)
C1 C 0.52158(9) 0.7282(2) 0.62035(8)
C2 C 0.48497(9) 0.8078(2) 0.66265(8)
H1 H 0.4821 0.9270 0.6630
C3 C 0.45281(11) 0.7160(3) 0.70417(9)
H2 H 0.4274 0.7719 0.7325
C4 C 0.45744(11) 0.5422(3) 0.70467(9)
H3 H 0.4355 0.4789 0.7334
C5 C 0.49403(12) 0.4615(2) 0.66335(9)
H4 H 0.4974 0.3424 0.6637
C6 C 0.52600(10) 0.5534(2) 0.62121(9)
H5 H 0.5510 0.4969 0.5928
C7 C 0.61430(8) 0.9959(3) 0.60718(7)
C8 C 0.62447(9) 1.1594(2) 0.58842(8)
H6 H 0.6052 1.1964 0.5535
C9 C 0.66263(10) 1.2692(3) 0.62033(9)
H7 H 0.6698 1.3807 0.6071
C10 C 0.69008(10) 1.2167(3) 0.67105(10)
H8 H 0.7153 1.2928 0.6933
C11 C 0.68118(10) 1.0537(3) 0.68997(9)
H9 H 0.7013 1.0174 0.7246
C12 C 0.64311(10) 0.9431(2) 0.65873(8)
H10 H 0.6365 0.8316 0.6722
C13 C 0.61789(9) 0.7072(2) 0.52916(8)
C14 C 0.59034(10) 0.5961(2) 0.48938(8)
H11 H 0.5446 0.5982 0.4827
C15 C 0.62902(10) 0.4830(3) 0.45957(8)
H12 H 0.6098 0.4063 0.4332
C16 C 0.69557(10) 0.4825(3) 0.46843(9)
H13 H 0.7224 0.4058 0.4479
C17 C 0.72358(10) 0.5933(2) 0.50713(10)
H14 H 0.7696 0.5932 0.5126
C18 C 0.68506(9) 0.7038(2) 0.53788(9)
H15 H 0.7045 0.7776 0.5650
P1D P 0.43607(2) 1.14737(6) 0.43405(2)
O1D O 0.62165(7) 1.04712(17) 0.44349(6)
O2D O 0.56028(7) 0.86615(18) 0.40125(6)
N1D N 0.57045(8) 0.96842(18) 0.44060(7)
C1D C 0.47842(9) 1.2718(2) 0.37965(8)
C2D C 0.51503(9) 1.1922(2) 0.33735(8)
H1D H 0.5179 1.0730 0.3370
C3D C 0.54719(11) 1.2840(3) 0.29583(9)
H2D H 0.5726 1.2281 0.2675
C4D C 0.54256(11) 1.4578(3) 0.29533(9)
H3D H 0.5645 1.5211 0.2666
C5D C 0.50597(12) 1.5385(2) 0.33665(9)
H4D H 0.5026 1.6576 0.3363
C6D C 0.47400(10) 1.4466(2) 0.37879(9)
H5D H 0.4490 1.5031 0.4072
C7D C 0.38570(8) 1.0041(3) 0.39282(7)
C8D C 0.37553(9) 0.8406(2) 0.41158(8)
H6D H 0.3948 0.8036 0.4465
C9D C 0.33737(10) 0.7308(3) 0.37967(9)
H7D H 0.3302 0.6193 0.3929
C10D C 0.30992(10) 0.7833(3) 0.32895(10)
H8D H 0.2847 0.7072 0.3067
C11D C 0.31882(10) 0.9463(3) 0.31003(9)
H9D H 0.2987 0.9826 0.2754
C12D C 0.35689(10) 1.0569(2) 0.34127(8)
H10D H 0.3635 1.1684 0.3278
C13D C 0.38211(9) 1.2928(2) 0.47084(8)
C14D C 0.40966(10) 1.4039(2) 0.51062(8)
H11D H 0.4554 1.4018 0.5173
C15D C 0.37098(10) 1.5170(3) 0.54043(8)
H12D H 0.3902 1.5937 0.5668
C16D C 0.30443(10) 1.5175(3) 0.53157(9)
H13D H 0.2776 1.5942 0.5521
C17D C 0.27642(10) 1.4067(2) 0.49287(10)
H14D H 0.2304 1.4068 0.4874
C18D C 0.31494(9) 1.2962(2) 0.46212(9)
H15D H 0.2955 1.2224 0.4350
Pt1 Pt 0.0000 0.0000 0.0000
P1 P -0.06393(2) 0.14737(6) 0.06595(2)
O1 O 0.12165(7) 0.04712(17) 0.05651(6)
O2 O 0.06028(7) -0.13385(18) 0.09875(6)
N1 N 0.07045(8) -0.03158(18) 0.05940(7)
C1 C -0.02158(9) 0.2718(2) 0.12035(8)
C2 C 0.01503(9) 0.1922(2) 0.16265(8)
H1 H 0.0179 0.0730 0.1630
C3 C 0.04719(11) 0.2840(3) 0.20417(9)
H2 H 0.0726 0.2281 0.2325
C4 C 0.04256(11) 0.4578(3) 0.20467(9)
H3 H 0.0645 0.5211 0.2334
C5 C 0.00597(12) 0.5385(2) 0.16335(9)
H4 H 0.0026 0.6576 0.1637
C6 C -0.02600(10) 0.4466(2) 0.12121(9)
H5 H -0.0510 0.5031 0.0928
C7 C -0.11430(8) 0.0041(3) 0.10718(7)
C8 C -0.12447(9) -0.1594(2) 0.08842(8)
H6 H -0.1052 -0.1964 0.0535
C9 C -0.16263(10) -0.2692(3) 0.12033(9)
H7 H -0.1698 -0.3807 0.1071
C10 C -0.19008(10) -0.2167(3) 0.17105(10)
H8 H -0.2153 -0.2928 0.1933
C11 C -0.18118(10) -0.0537(3) 0.18997(9)
H9 H -0.2013 -0.0174 0.2246
C12 C -0.14311(10) 0.0569(2) 0.15873(8)
H10 H -0.1365 0.1684 0.1722
C13 C -0.11789(9) 0.2928(2) 0.02916(8)
C14 C -0.09034(10) 0.4039(2) -0.01062(8)
H11 H -0.0446 0.4018 -0.0173
C15 C -0.12902(10) 0.5170(3) -0.04043(8)
H12 H -0.1098 0.5937 -0.0668
C16 C -0.19557(10) 0.5175(3) -0.03157(9)
H13 H -0.2224 0.5942 -0.0521
C17 C -0.22358(10) 0.4067(2) 0.00713(10)
H14 H -0.2696 0.4068 0.0126
C18 C -0.18506(9) 0.2962(2) 0.03788(9)
H15 H -0.2045 0.2224 0.0650
P1D P 0.06393(2) -0.14737(6) -0.06595(2)
O1D O -0.12165(7) -0.04712(17) -0.05651(6)
O2D O -0.06028(7) 0.13385(18) -0.09875(6)
N1D N -0.07045(8) 0.03158(18) -0.05940(7)
C1D C 0.02158(9) -0.2718(2) -0.12035(8)
C2D C -0.01503(9) -0.1922(2) -0.16265(8)
H1D H -0.0179 -0.0730 -0.1630
C3D C -0.04719(11) -0.2840(3) -0.20417(9)
H2D H -0.0726 -0.2281 -0.2325
C4D C -0.04256(11) -0.4578(3) -0.20467(9)
H3D H -0.0645 -0.5211 -0.2334
C5D C -0.00597(12) -0.5385(2) -0.16335(9)
H4D H -0.0026 -0.6576 -0.1637
C6D C 0.02600(10) -0.4466(2) -0.12121(9)
H5D H 0.0510 -0.5031 -0.0928
C7D C 0.11430(8) -0.0041(3) -0.10718(7)
C8D C 0.12447(9) 0.1594(2) -0.08842(8)
H6D H 0.1052 0.1964 -0.0535
C9D C 0.16263(10) 0.2692(3) -0.12033(9)
H7D H 0.1698 0.3807 -0.1071
C10D C 0.19008(10) 0.2167(3) -0.17105(10)
H8D H 0.2153 0.2928 -0.1933
C11D C 0.18118(10) 0.0537(3) -0.18997(9)
H9D H 0.2013 0.0174 -0.2246
C12D C 0.14311(10) -0.0569(2) -0.15873(8)
H10D H 0.1365 -0.1684 -0.1722
C13D C 0.11789(9) -0.2928(2) -0.02916(8)
C14D C 0.09034(10) -0.4039(2) 0.01062(8)
H11D H 0.0446 -0.4018 0.0173
C15D C 0.12902(10) -0.5170(3) 0.04043(8)
H12D H 0.1098 -0.5937 0.0668
C16D C 0.19557(10) -0.5175(3) 0.03157(9)
H13D H 0.2224 -0.5942 0.0521
C17D C 0.22358(10) -0.4067(2) -0.00713(10)
H14D H 0.2696 -0.4068 -0.0126
C18D C 0.18506(9) -0.2962(2) -0.03788(9)
H15D H 0.2045 -0.2224 -0.0650
Pt1 Pt 0.0000 0.0000 1.0000
P1 P -0.06393(2) 0.14737(6) 1.06595(2)
O1 O 0.12165(7) 0.04712(17) 1.05651(6)
O2 O 0.06028(7) -0.13385(18) 1.09875(6)
N1 N 0.07045(8) -0.03158(18) 1.05940(7)
C1 C -0.02158(9) 0.2718(2) 1.12035(8)
C2 C 0.01503(9) 0.1922(2) 1.16265(8)
H1 H 0.0179 0.0730 1.1630
C3 C 0.04719(11) 0.2840(3) 1.20417(9)
H2 H 0.0726 0.2281 1.2325
C4 C 0.04256(11) 0.4578(3) 1.20467(9)
H3 H 0.0645 0.5211 1.2334
C5 C 0.00597(12) 0.5385(2) 1.16335(9)
H4 H 0.0026 0.6576 1.1637
C6 C -0.02600(10) 0.4466(2) 1.12121(9)
H5 H -0.0510 0.5031 1.0928
C7 C -0.11430(8) 0.0041(3) 1.10718(7)
C8 C -0.12447(9) -0.1594(2) 1.08842(8)
H6 H -0.1052 -0.1964 1.0535
C9 C -0.16263(10) -0.2692(3) 1.12033(9)
H7 H -0.1698 -0.3807 1.1071
C10 C -0.19008(10) -0.2167(3) 1.17105(10)
H8 H -0.2153 -0.2928 1.1933
C11 C -0.18118(10) -0.0537(3) 1.18997(9)
H9 H -0.2013 -0.0174 1.2246
C12 C -0.14311(10) 0.0569(2) 1.15873(8)
H10 H -0.1365 0.1684 1.1722
C13 C -0.11789(9) 0.2928(2) 1.02916(8)
C14 C -0.09034(10) 0.4039(2) 0.98938(8)
H11 H -0.0446 0.4018 0.9827
C15 C -0.12902(10) 0.5170(3) 0.95957(8)
H12 H -0.1098 0.5937 0.9332
C16 C -0.19557(10) 0.5175(3) 0.96843(9)
H13 H -0.2224 0.5942 0.9479
C17 C -0.22358(10) 0.4067(2) 1.00713(10)
H14 H -0.2696 0.4068 1.0126
C18 C -0.18506(9) 0.2962(2) 1.03788(9)
H15 H -0.2045 0.2224 1.0650
P1D P 0.06393(2) -0.14737(6) 0.93405(2)
O1D O -0.12165(7) -0.04712(17) 0.94349(6)
O2D O -0.06028(7) 0.13385(18) 0.90125(6)
N1D N -0.07045(8) 0.03158(18) 0.94060(7)
C1D C 0.02158(9) -0.2718(2) 0.87965(8)
C2D C -0.01503(9) -0.1922(2) 0.83735(8)
H1D H -0.0179 -0.0730 0.8370
C3D C -0.04719(11) -0.2840(3) 0.79583(9)
H2D H -0.0726 -0.2281 0.7675
C4D C -0.04256(11) -0.4578(3) 0.79533(9)
H3D H -0.0645 -0.5211 0.7666
C5D C -0.00597(12) -0.5385(2) 0.83665(9)
H4D H -0.0026 -0.6576 0.8363
C6D C 0.02600(10) -0.4466(2) 0.87879(9)
H5D H 0.0510 -0.5031 0.9072
C7D C 0.11430(8) -0.0041(3) 0.89282(7)
C8D C 0.12447(9) 0.1594(2) 0.91158(8)
H6D H 0.1052 0.1964 0.9465
C9D C 0.16263(10) 0.2692(3) 0.87967(9)
H7D H 0.1698 0.3807 0.8929
C10D C 0.19008(10) 0.2167(3) 0.82895(10)
H8D H 0.2153 0.2928 0.8067
C11D C 0.18118(10) 0.0537(3) 0.81003(9)
H9D H 0.2013 0.0174 0.7754
C12D C 0.14311(10) -0.0569(2) 0.84127(8)
H10D H 0.1365 -0.1684 0.8278
C13D C 0.11789(9) -0.2928(2) 0.97084(8)
C14D C 0.09034(10) -0.4039(2) 1.01062(8)
H11D H 0.0446 -0.4018 1.0173
C15D C 0.12902(10) -0.5170(3) 1.04043(8)
H12D H 0.1098 -0.5937 1.0668
C16D C 0.19557(10) -0.5175(3) 1.03157(9)
H13D H 0.2224 -0.5942 1.0521
C17D C 0.22358(10) -0.4067(2) 0.99287(10)
H14D H 0.2696 -0.4068 0.9874
C18D C 0.18506(9) -0.2962(2) 0.96212(9)
H15D H 0.2045 -0.2224 0.9350
Pt1 Pt 0.0000 1.0000 0.0000
P1 P -0.06393(2) 1.14737(6) 0.06595(2)
O1 O 0.12165(7) 1.04712(17) 0.05651(6)
O2 O 0.06028(7) 0.86615(18) 0.09875(6)
N1 N 0.07045(8) 0.96842(18) 0.05940(7)
C1 C -0.02158(9) 1.2718(2) 0.12035(8)
C2 C 0.01503(9) 1.1922(2) 0.16265(8)
H1 H 0.0179 1.0730 0.1630
C3 C 0.04719(11) 1.2840(3) 0.20417(9)
H2 H 0.0726 1.2281 0.2325
C4 C 0.04256(11) 1.4578(3) 0.20467(9)
H3 H 0.0645 1.5211 0.2334
C5 C 0.00597(12) 1.5385(2) 0.16335(9)
H4 H 0.0026 1.6576 0.1637
C6 C -0.02600(10) 1.4466(2) 0.12121(9)
H5 H -0.0510 1.5031 0.0928
C7 C -0.11430(8) 1.0041(3) 0.10718(7)
C8 C -0.12447(9) 0.8406(2) 0.08842(8)
H6 H -0.1052 0.8036 0.0535
C9 C -0.16263(10) 0.7308(3) 0.12033(9)
H7 H -0.1698 0.6193 0.1071
C10 C -0.19008(10) 0.7833(3) 0.17105(10)
H8 H -0.2153 0.7072 0.1933
C11 C -0.18118(10) 0.9463(3) 0.18997(9)
H9 H -0.2013 0.9826 0.2246
C12 C -0.14311(10) 1.0569(2) 0.15873(8)
H10 H -0.1365 1.1684 0.1722
C13 C -0.11789(9) 1.2928(2) 0.02916(8)
C14 C -0.09034(10) 1.4039(2) -0.01062(8)
H11 H -0.0446 1.4018 -0.0173
C15 C -0.12902(10) 1.5170(3) -0.04043(8)
H12 H -0.1098 1.5937 -0.0668
C16 C -0.19557(10) 1.5175(3) -0.03157(9)
H13 H -0.2224 1.5942 -0.0521
C17 C -0.22358(10) 1.4067(2) 0.00713(10)
H14 H -0.2696 1.4068 0.0126
C18 C -0.18506(9) 1.2962(2) 0.03788(9)
H15 H -0.2045 1.2224 0.0650
P1D P 0.06393(2) 0.85263(6) -0.06595(2)
O1D O -0.12165(7) 0.95288(17) -0.05651(6)
O2D O -0.06028(7) 1.13385(18) -0.09875(6)
N1D N -0.07045(8) 1.03158(18) -0.05940(7)
C1D C 0.02158(9) 0.7282(2) -0.12035(8)
C2D C -0.01503(9) 0.8078(2) -0.16265(8)
H1D H -0.0179 0.9270 -0.1630
C3D C -0.04719(11) 0.7160(3) -0.20417(9)
H2D H -0.0726 0.7719 -0.2325
C4D C -0.04256(11) 0.5422(3) -0.20467(9)
H3D H -0.0645 0.4789 -0.2334
C5D C -0.00597(12) 0.4615(2) -0.16335(9)
H4D H -0.0026 0.3424 -0.1637
C6D C 0.02600(10) 0.5534(2) -0.12121(9)
H5D H 0.0510 0.4969 -0.0928
C7D C 0.11430(8) 0.9959(3) -0.10718(7)
C8D C 0.12447(9) 1.1594(2) -0.08842(8)
H6D H 0.1052 1.1964 -0.0535
C9D C 0.16263(10) 1.2692(3) -0.12033(9)
H7D H 0.1698 1.3807 -0.1071
C10D C 0.19008(10) 1.2167(3) -0.17105(10)
H8D H 0.2153 1.2928 -0.1933
C11D C 0.18118(10) 1.0537(3) -0.18997(9)
H9D H 0.2013 1.0174 -0.2246
C12D C 0.14311(10) 0.9431(2) -0.15873(8)
H10D H 0.1365 0.8316 -0.1722
C13D C 0.11789(9) 0.7072(2) -0.02916(8)
C14D C 0.09034(10) 0.5961(2) 0.01062(8)
H11D H 0.0446 0.5982 0.0173
C15D C 0.12902(10) 0.4830(3) 0.04043(8)
H12D H 0.1098 0.4063 0.0668
C16D C 0.19557(10) 0.4825(3) 0.03157(9)
H13D H 0.2224 0.4058 0.0521
C17D C 0.22358(10) 0.5933(2) -0.00713(10)
H14D H 0.2696 0.5932 -0.0126
C18D C 0.18506(9) 0.7038(2) -0.03788(9)
H15D H 0.2045 0.7776 -0.0650
Pt1 Pt 0.0000 1.0000 1.0000
P1 P -0.06393(2) 1.14737(6) 1.06595(2)
O1 O 0.12165(7) 1.04712(17) 1.05651(6)
O2 O 0.06028(7) 0.86615(18) 1.09875(6)
N1 N 0.07045(8) 0.96842(18) 1.05940(7)
C1 C -0.02158(9) 1.2718(2) 1.12035(8)
C2 C 0.01503(9) 1.1922(2) 1.16265(8)
H1 H 0.0179 1.0730 1.1630
C3 C 0.04719(11) 1.2840(3) 1.20417(9)
H2 H 0.0726 1.2281 1.2325
C4 C 0.04256(11) 1.4578(3) 1.20467(9)
H3 H 0.0645 1.5211 1.2334
C5 C 0.00597(12) 1.5385(2) 1.16335(9)
H4 H 0.0026 1.6576 1.1637
C6 C -0.02600(10) 1.4466(2) 1.12121(9)
H5 H -0.0510 1.5031 1.0928
C7 C -0.11430(8) 1.0041(3) 1.10718(7)
C8 C -0.12447(9) 0.8406(2) 1.08842(8)
H6 H -0.1052 0.8036 1.0535
C9 C -0.16263(10) 0.7308(3) 1.12033(9)
H7 H -0.1698 0.6193 1.1071
C10 C -0.19008(10) 0.7833(3) 1.17105(10)
H8 H -0.2153 0.7072 1.1933
C11 C -0.18118(10) 0.9463(3) 1.18997(9)
H9 H -0.2013 0.9826 1.2246
C12 C -0.14311(10) 1.0569(2) 1.15873(8)
H10 H -0.1365 1.1684 1.1722
C13 C -0.11789(9) 1.2928(2) 1.02916(8)
C14 C -0.09034(10) 1.4039(2) 0.98938(8)
H11 H -0.0446 1.4018 0.9827
C15 C -0.12902(10) 1.5170(3) 0.95957(8)
H12 H -0.1098 1.5937 0.9332
C16 C -0.19557(10) 1.5175(3) 0.96843(9)
H13 H -0.2224 1.5942 0.9479
C17 C -0.22358(10) 1.4067(2) 1.00713(10)
H14 H -0.2696 1.4068 1.0126
C18 C -0.18506(9) 1.2962(2) 1.03788(9)
H15 H -0.2045 1.2224 1.0650
P1D P 0.06393(2) 0.85263(6) 0.93405(2)
O1D O -0.12165(7) 0.95288(17) 0.94349(6)
O2D O -0.06028(7) 1.13385(18) 0.90125(6)
N1D N -0.07045(8) 1.03158(18) 0.94060(7)
C1D C 0.02158(9) 0.7282(2) 0.87965(8)
C2D C -0.01503(9) 0.8078(2) 0.83735(8)
H1D H -0.0179 0.9270 0.8370
C3D C -0.04719(11) 0.7160(3) 0.79583(9)
H2D H -0.0726 0.7719 0.7675
C4D C -0.04256(11) 0.5422(3) 0.79533(9)
H3D H -0.0645 0.4789 0.7666
C5D C -0.00597(12) 0.4615(2) 0.83665(9)
H4D H -0.0026 0.3424 0.8363
C6D C 0.02600(10) 0.5534(2) 0.87879(9)
H5D H 0.0510 0.4969 0.9072
C7D C 0.11430(8) 0.9959(3) 0.89282(7)
C8D C 0.12447(9) 1.1594(2) 0.91158(8)
H6D H 0.1052 1.1964 0.9465
C9D C 0.16263(10) 1.2692(3) 0.87967(9)
H7D H 0.1698 1.3807 0.8929
C10D C 0.19008(10) 1.2167(3) 0.82895(10)
H8D H 0.2153 1.2928 0.8067
C11D C 0.18118(10) 1.0537(3) 0.81003(9)
H9D H 0.2013 1.0174 0.7754
C12D C 0.14311(10) 0.9431(2) 0.84127(8)
H10D H 0.1365 0.8316 0.8278
C13D C 0.11789(9) 0.7072(2) 0.97084(8)
C14D C 0.09034(10) 0.5961(2) 1.01062(8)
H11D H 0.0446 0.5982 1.0173
C15D C 0.12902(10) 0.4830(3) 1.04043(8)
H12D H 0.1098 0.4063 1.0668
C16D C 0.19557(10) 0.4825(3) 1.03157(9)
H13D H 0.2224 0.4058 1.0521
C17D C 0.22358(10) 0.5933(2) 0.99287(10)
H14D H 0.2696 0.5932 0.9874
C18D C 0.18506(9) 0.7038(2) 0.96212(9)
H15D H 0.2045 0.7776 0.9350
Pt1 Pt 1.0000 0.0000 0.0000
P1 P 0.93607(2) 0.14737(6) 0.06595(2)
O1 O 1.12165(7) 0.04712(17) 0.05651(6)
O2 O 1.06028(7) -0.13385(18) 0.09875(6)
N1 N 1.07045(8) -0.03158(18) 0.05940(7)
C1 C 0.97842(9) 0.2718(2) 0.12035(8)
C2 C 1.01503(9) 0.1922(2) 0.16265(8)
H1 H 1.0179 0.0730 0.1630
C3 C 1.04719(11) 0.2840(3) 0.20417(9)
H2 H 1.0726 0.2281 0.2325
C4 C 1.04256(11) 0.4578(3) 0.20467(9)
H3 H 1.0645 0.5211 0.2334
C5 C 1.00597(12) 0.5385(2) 0.16335(9)
H4 H 1.0026 0.6576 0.1637
C6 C 0.97400(10) 0.4466(2) 0.12121(9)
H5 H 0.9490 0.5031 0.0928
C7 C 0.88570(8) 0.0041(3) 0.10718(7)
C8 C 0.87553(9) -0.1594(2) 0.08842(8)
H6 H 0.8948 -0.1964 0.0535
C9 C 0.83737(10) -0.2692(3) 0.12033(9)
H7 H 0.8302 -0.3807 0.1071
C10 C 0.80992(10) -0.2167(3) 0.17105(10)
H8 H 0.7847 -0.2928 0.1933
C11 C 0.81882(10) -0.0537(3) 0.18997(9)
H9 H 0.7987 -0.0174 0.2246
C12 C 0.85689(10) 0.0569(2) 0.15873(8)
H10 H 0.8635 0.1684 0.1722
C13 C 0.88211(9) 0.2928(2) 0.02916(8)
C14 C 0.90966(10) 0.4039(2) -0.01062(8)
H11 H 0.9554 0.4018 -0.0173
C15 C 0.87098(10) 0.5170(3) -0.04043(8)
H12 H 0.8902 0.5937 -0.0668
C16 C 0.80443(10) 0.5175(3) -0.03157(9)
H13 H 0.7776 0.5942 -0.0521
C17 C 0.77642(10) 0.4067(2) 0.00713(10)
H14 H 0.7304 0.4068 0.0126
C18 C 0.81494(9) 0.2962(2) 0.03788(9)
H15 H 0.7955 0.2224 0.0650
P1D P 1.06393(2) -0.14737(6) -0.06595(2)
O1D O 0.87835(7) -0.04712(17) -0.05651(6)
O2D O 0.93972(7) 0.13385(18) -0.09875(6)
N1D N 0.92955(8) 0.03158(18) -0.05940(7)
C1D C 1.02158(9) -0.2718(2) -0.12035(8)
C2D C 0.98497(9) -0.1922(2) -0.16265(8)
H1D H 0.9821 -0.0730 -0.1630
C3D C 0.95281(11) -0.2840(3) -0.20417(9)
H2D H 0.9274 -0.2281 -0.2325
C4D C 0.95744(11) -0.4578(3) -0.20467(9)
H3D H 0.9355 -0.5211 -0.2334
C5D C 0.99403(12) -0.5385(2) -0.16335(9)
H4D H 0.9974 -0.6576 -0.1637
C6D C 1.02600(10) -0.4466(2) -0.12121(9)
H5D H 1.0510 -0.5031 -0.0928
C7D C 1.11430(8) -0.0041(3) -0.10718(7)
C8D C 1.12447(9) 0.1594(2) -0.08842(8)
H6D H 1.1052 0.1964 -0.0535
C9D C 1.16263(10) 0.2692(3) -0.12033(9)
H7D H 1.1698 0.3807 -0.1071
C10D C 1.19008(10) 0.2167(3) -0.17105(10)
H8D H 1.2153 0.2928 -0.1933
C11D C 1.18118(10) 0.0537(3) -0.18997(9)
H9D H 1.2013 0.0174 -0.2246
C12D C 1.14311(10) -0.0569(2) -0.15873(8)
H10D H 1.1365 -0.1684 -0.1722
C13D C 1.11789(9) -0.2928(2) -0.02916(8)
C14D C 1.09034(10) -0.4039(2) 0.01062(8)
H11D H 1.0446 -0.4018 0.0173
C15D C 1.12902(10) -0.5170(3) 0.04043(8)
H12D H 1.1098 -0.5937 0.0668
C16D C 1.19557(10) -0.5175(3) 0.03157(9)
H13D H 1.2224 -0.5942 0.0521
C17D C 1.22358(10) -0.4067(2) -0.00713(10)
H14D H 1.2696 -0.4068 -0.0126
C18D C 1.18506(9) -0.2962(2) -0.03788(9)
H15D H 1.2045 -0.2224 -0.0650
Pt1 Pt 1.0000 0.0000 1.0000
P1 P 0.93607(2) 0.14737(6) 1.06595(2)
O1 O 1.12165(7) 0.04712(17) 1.05651(6)
O2 O 1.06028(7) -0.13385(18) 1.09875(6)
N1 N 1.07045(8) -0.03158(18) 1.05940(7)
C1 C 0.97842(9) 0.2718(2) 1.12035(8)
C2 C 1.01503(9) 0.1922(2) 1.16265(8)
H1 H 1.0179 0.0730 1.1630
C3 C 1.04719(11) 0.2840(3) 1.20417(9)
H2 H 1.0726 0.2281 1.2325
C4 C 1.04256(11) 0.4578(3) 1.20467(9)
H3 H 1.0645 0.5211 1.2334
C5 C 1.00597(12) 0.5385(2) 1.16335(9)
H4 H 1.0026 0.6576 1.1637
C6 C 0.97400(10) 0.4466(2) 1.12121(9)
H5 H 0.9490 0.5031 1.0928
C7 C 0.88570(8) 0.0041(3) 1.10718(7)
C8 C 0.87553(9) -0.1594(2) 1.08842(8)
H6 H 0.8948 -0.1964 1.0535
C9 C 0.83737(10) -0.2692(3) 1.12033(9)
H7 H 0.8302 -0.3807 1.1071
C10 C 0.80992(10) -0.2167(3) 1.17105(10)
H8 H 0.7847 -0.2928 1.1933
C11 C 0.81882(10) -0.0537(3) 1.18997(9)
H9 H 0.7987 -0.0174 1.2246
C12 C 0.85689(10) 0.0569(2) 1.15873(8)
H10 H 0.8635 0.1684 1.1722
C13 C 0.88211(9) 0.2928(2) 1.02916(8)
C14 C 0.90966(10) 0.4039(2) 0.98938(8)
H11 H 0.9554 0.4018 0.9827
C15 C 0.87098(10) 0.5170(3) 0.95957(8)
H12 H 0.8902 0.5937 0.9332
C16 C 0.80443(10) 0.5175(3) 0.96843(9)
H13 H 0.7776 0.5942 0.9479
C17 C 0.77642(10) 0.4067(2) 1.00713(10)
H14 H 0.7304 0.4068 1.0126
C18 C 0.81494(9) 0.2962(2) 1.03788(9)
H15 H 0.7955 0.2224 1.0650
P1D P 1.06393(2) -0.14737(6) 0.93405(2)
O1D O 0.87835(7) -0.04712(17) 0.94349(6)
O2D O 0.93972(7) 0.13385(18) 0.90125(6)
N1D N 0.92955(8) 0.03158(18) 0.94060(7)
C1D C 1.02158(9) -0.2718(2) 0.87965(8)
C2D C 0.98497(9) -0.1922(2) 0.83735(8)
H1D H 0.9821 -0.0730 0.8370
C3D C 0.95281(11) -0.2840(3) 0.79583(9)
H2D H 0.9274 -0.2281 0.7675
C4D C 0.95744(11) -0.4578(3) 0.79533(9)
H3D H 0.9355 -0.5211 0.7666
C5D C 0.99403(12) -0.5385(2) 0.83665(9)
H4D H 0.9974 -0.6576 0.8363
C6D C 1.02600(10) -0.4466(2) 0.87879(9)
H5D H 1.0510 -0.5031 0.9072
C7D C 1.11430(8) -0.0041(3) 0.89282(7)
C8D C 1.12447(9) 0.1594(2) 0.91158(8)
H6D H 1.1052 0.1964 0.9465
C9D C 1.16263(10) 0.2692(3) 0.87967(9)
H7D H 1.1698 0.3807 0.8929
C10D C 1.19008(10) 0.2167(3) 0.82895(10)
H8D H 1.2153 0.2928 0.8067
C11D C 1.18118(10) 0.0537(3) 0.81003(9)
H9D H 1.2013 0.0174 0.7754
C12D C 1.14311(10) -0.0569(2) 0.84127(8)
H10D H 1.1365 -0.1684 0.8278
C13D C 1.11789(9) -0.2928(2) 0.97084(8)
C14D C 1.09034(10) -0.4039(2) 1.01062(8)
H11D H 1.0446 -0.4018 1.0173
C15D C 1.12902(10) -0.5170(3) 1.04043(8)
H12D H 1.1098 -0.5937 1.0668
C16D C 1.19557(10) -0.5175(3) 1.03157(9)
H13D H 1.2224 -0.5942 1.0521
C17D C 1.22358(10) -0.4067(2) 0.99287(10)
H14D H 1.2696 -0.4068 0.9874
C18D C 1.18506(9) -0.2962(2) 0.96212(9)
H15D H 1.2045 -0.2224 0.9350
Pt1 Pt 1.0000 1.0000 0.0000
P1 P 0.93607(2) 1.14737(6) 0.06595(2)
O1 O 1.12165(7) 1.04712(17) 0.05651(6)
O2 O 1.06028(7) 0.86615(18) 0.09875(6)
N1 N 1.07045(8) 0.96842(18) 0.05940(7)
C1 C 0.97842(9) 1.2718(2) 0.12035(8)
C2 C 1.01503(9) 1.1922(2) 0.16265(8)
H1 H 1.0179 1.0730 0.1630
C3 C 1.04719(11) 1.2840(3) 0.20417(9)
H2 H 1.0726 1.2281 0.2325
C4 C 1.04256(11) 1.4578(3) 0.20467(9)
H3 H 1.0645 1.5211 0.2334
C5 C 1.00597(12) 1.5385(2) 0.16335(9)
H4 H 1.0026 1.6576 0.1637
C6 C 0.97400(10) 1.4466(2) 0.12121(9)
H5 H 0.9490 1.5031 0.0928
C7 C 0.88570(8) 1.0041(3) 0.10718(7)
C8 C 0.87553(9) 0.8406(2) 0.08842(8)
H6 H 0.8948 0.8036 0.0535
C9 C 0.83737(10) 0.7308(3) 0.12033(9)
H7 H 0.8302 0.6193 0.1071
C10 C 0.80992(10) 0.7833(3) 0.17105(10)
H8 H 0.7847 0.7072 0.1933
C11 C 0.81882(10) 0.9463(3) 0.18997(9)
H9 H 0.7987 0.9826 0.2246
C12 C 0.85689(10) 1.0569(2) 0.15873(8)
H10 H 0.8635 1.1684 0.1722
C13 C 0.88211(9) 1.2928(2) 0.02916(8)
C14 C 0.90966(10) 1.4039(2) -0.01062(8)
H11 H 0.9554 1.4018 -0.0173
C15 C 0.87098(10) 1.5170(3) -0.04043(8)
H12 H 0.8902 1.5937 -0.0668
C16 C 0.80443(10) 1.5175(3) -0.03157(9)
H13 H 0.7776 1.5942 -0.0521
C17 C 0.77642(10) 1.4067(2) 0.00713(10)
H14 H 0.7304 1.4068 0.0126
C18 C 0.81494(9) 1.2962(2) 0.03788(9)
H15 H 0.7955 1.2224 0.0650
P1D P 1.06393(2) 0.85263(6) -0.06595(2)
O1D O 0.87835(7) 0.95288(17) -0.05651(6)
O2D O 0.93972(7) 1.13385(18) -0.09875(6)
N1D N 0.92955(8) 1.03158(18) -0.05940(7)
C1D C 1.02158(9) 0.7282(2) -0.12035(8)
C2D C 0.98497(9) 0.8078(2) -0.16265(8)
H1D H 0.9821 0.9270 -0.1630
C3D C 0.95281(11) 0.7160(3) -0.20417(9)
H2D H 0.9274 0.7719 -0.2325
C4D C 0.95744(11) 0.5422(3) -0.20467(9)
H3D H 0.9355 0.4789 -0.2334
C5D C 0.99403(12) 0.4615(2) -0.16335(9)
H4D H 0.9974 0.3424 -0.1637
C6D C 1.02600(10) 0.5534(2) -0.12121(9)
H5D H 1.0510 0.4969 -0.0928
C7D C 1.11430(8) 0.9959(3) -0.10718(7)
C8D C 1.12447(9) 1.1594(2) -0.08842(8)
H6D H 1.1052 1.1964 -0.0535
C9D C 1.16263(10) 1.2692(3) -0.12033(9)
H7D H 1.1698 1.3807 -0.1071
C10D C 1.19008(10) 1.2167(3) -0.17105(10)
H8D H 1.2153 1.2928 -0.1933
C11D C 1.18118(10) 1.0537(3) -0.18997(9)
H9D H 1.2013 1.0174 -0.2246
C12D C 1.14311(10) 0.9431(2) -0.15873(8)
H10D H 1.1365 0.8316 -0.1722
C13D C 1.11789(9) 0.7072(2) -0.02916(8)
C14D C 1.09034(10) 0.5961(2) 0.01062(8)
H11D H 1.0446 0.5982 0.0173
C15D C 1.12902(10) 0.4830(3) 0.04043(8)
H12D H 1.1098 0.4063 0.0668
C16D C 1.19557(10) 0.4825(3) 0.03157(9)
H13D H 1.2224 0.4058 0.0521
C17D C 1.22358(10) 0.5933(2) -0.00713(10)
H14D H 1.2696 0.5932 -0.0126
C18D C 1.18506(9) 0.7038(2) -0.03788(9)
H15D H 1.2045 0.7776 -0.0650
Pt1 Pt 1.0000 1.0000 1.0000
P1 P 0.93607(2) 1.14737(6) 1.06595(2)
O1 O 1.12165(7) 1.04712(17) 1.05651(6)
O2 O 1.06028(7) 0.86615(18) 1.09875(6)
N1 N 1.07045(8) 0.96842(18) 1.05940(7)
C1 C 0.97842(9) 1.2718(2) 1.12035(8)
C2 C 1.01503(9) 1.1922(2) 1.16265(8)
H1 H 1.0179 1.0730 1.1630
C3 C 1.04719(11) 1.2840(3) 1.20417(9)
H2 H 1.0726 1.2281 1.2325
C4 C 1.04256(11) 1.4578(3) 1.20467(9)
H3 H 1.0645 1.5211 1.2334
C5 C 1.00597(12) 1.5385(2) 1.16335(9)
H4 H 1.0026 1.6576 1.1637
C6 C 0.97400(10) 1.4466(2) 1.12121(9)
H5 H 0.9490 1.5031 1.0928
C7 C 0.88570(8) 1.0041(3) 1.10718(7)
C8 C 0.87553(9) 0.8406(2) 1.08842(8)
H6 H 0.8948 0.8036 1.0535
C9 C 0.83737(10) 0.7308(3) 1.12033(9)
H7 H 0.8302 0.6193 1.1071
C10 C 0.80992(10) 0.7833(3) 1.17105(10)
H8 H 0.7847 0.7072 1.1933
C11 C 0.81882(10) 0.9463(3) 1.18997(9)
H9 H 0.7987 0.9826 1.2246
C12 C 0.85689(10) 1.0569(2) 1.15873(8)
H10 H 0.8635 1.1684 1.1722
C13 C 0.88211(9) 1.2928(2) 1.02916(8)
C14 C 0.90966(10) 1.4039(2) 0.98938(8)
H11 H 0.9554 1.4018 0.9827
C15 C 0.87098(10) 1.5170(3) 0.95957(8)
H12 H 0.8902 1.5937 0.9332
C16 C 0.80443(10) 1.5175(3) 0.96843(9)
H13 H 0.7776 1.5942 0.9479
C17 C 0.77642(10) 1.4067(2) 1.00713(10)
H14 H 0.7304 1.4068 1.0126
C18 C 0.81494(9) 1.2962(2) 1.03788(9)
H15 H 0.7955 1.2224 1.0650
P1D P 1.06393(2) 0.85263(6) 0.93405(2)
O1D O 0.87835(7) 0.95288(17) 0.94349(6)
O2D O 0.93972(7) 1.13385(18) 0.90125(6)
N1D N 0.92955(8) 1.03158(18) 0.94060(7)
C1D C 1.02158(9) 0.7282(2) 0.87965(8)
C2D C 0.98497(9) 0.8078(2) 0.83735(8)
H1D H 0.9821 0.9270 0.8370
C3D C 0.95281(11) 0.7160(3) 0.79583(9)
H2D H 0.9274 0.7719 0.7675
C4D C 0.95744(11) 0.5422(3) 0.79533(9)
H3D H 0.9355 0.4789 0.7666
C5D C 0.99403(12) 0.4615(2) 0.83665(9)
H4D H 0.9974 0.3424 0.8363
C6D C 1.02600(10) 0.5534(2) 0.87879(9)
H5D H 1.0510 0.4969 0.9072
C7D C 1.11430(8) 0.9959(3) 0.89282(7)
C8D C 1.12447(9) 1.1594(2) 0.91158(8)
H6D H 1.1052 1.1964 0.9465
C9D C 1.16263(10) 1.2692(3) 0.87967(9)
H7D H 1.1698 1.3807 0.8929
C10D C 1.19008(10) 1.2167(3) 0.82895(10)
H8D H 1.2153 1.2928 0.8067
C11D C 1.18118(10) 1.0537(3) 0.81003(9)
H9D H 1.2013 1.0174 0.7754
C12D C 1.14311(10) 0.9431(2) 0.84127(8)
H10D H 1.1365 0.8316 0.8278
C13D C 1.11789(9) 0.7072(2) 0.97084(8)
C14D C 1.09034(10) 0.5961(2) 1.01062(8)
H11D H 1.0446 0.5982 1.0173
C15D C 1.12902(10) 0.4830(3) 1.04043(8)
H12D H 1.1098 0.4063 1.0668
C16D C 1.19557(10) 0.4825(3) 1.03157(9)
H13D H 1.2224 0.4058 1.0521
C17D C 1.22358(10) 0.5933(2) 0.99287(10)
H14D H 1.2696 0.5932 0.9874
C18D C 1.18506(9) 0.7038(2) 0.96212(9)
H15D H 1.2045 0.7776 0.9350
Pt1 Pt 0.0000 0.5000 0.5000
P1 P 0.06393(2) 0.64737(6) 0.43405(2)
O1 O -0.12165(7) 0.54712(17) 0.44349(6)
O2 O -0.06028(7) 0.36615(18) 0.40125(6)
N1 N -0.07045(8) 0.46842(18) 0.44060(7)
C1 C 0.02158(9) 0.7718(2) 0.37965(8)
C2 C -0.01503(9) 0.6922(2) 0.33735(8)
H1 H -0.0179 0.5730 0.3370
C3 C -0.04719(11) 0.7840(3) 0.29583(9)
H2 H -0.0726 0.7281 0.2675
C4 C -0.04256(11) 0.9578(3) 0.29533(9)
H3 H -0.0645 1.0211 0.2666
C5 C -0.00597(12) 1.0385(2) 0.33665(9)
H4 H -0.0026 1.1576 0.3363
C6 C 0.02600(10) 0.9466(2) 0.37879(9)
H5 H 0.0510 1.0031 0.4072
C7 C 0.11430(8) 0.5041(3) 0.39282(7)
C8 C 0.12447(9) 0.3406(2) 0.41158(8)
H6 H 0.1052 0.3036 0.4465
C9 C 0.16263(10) 0.2308(3) 0.37967(9)
H7 H 0.1698 0.1193 0.3929
C10 C 0.19008(10) 0.2833(3) 0.32895(10)
H8 H 0.2153 0.2072 0.3067
C11 C 0.18118(10) 0.4463(3) 0.31003(9)
H9 H 0.2013 0.4826 0.2754
C12 C 0.14311(10) 0.5569(2) 0.34127(8)
H10 H 0.1365 0.6684 0.3278
C13 C 0.11789(9) 0.7928(2) 0.47084(8)
C14 C 0.09034(10) 0.9039(2) 0.51062(8)
H11 H 0.0446 0.9018 0.5173
C15 C 0.12902(10) 1.0170(3) 0.54043(8)
H12 H 0.1098 1.0937 0.5668
C16 C 0.19557(10) 1.0175(3) 0.53157(9)
H13 H 0.2224 1.0942 0.5521
C17 C 0.22358(10) 0.9067(2) 0.49287(10)
H14 H 0.2696 0.9068 0.4874
C18 C 0.18506(9) 0.7962(2) 0.46212(9)
H15 H 0.2045 0.7224 0.4350
P1D P -0.06393(2) 0.35263(6) 0.56595(2)
O1D O 0.12165(7) 0.45288(17) 0.55651(6)
O2D O 0.06028(7) 0.63385(18) 0.59875(6)
N1D N 0.07045(8) 0.53158(18) 0.55940(7)
C1D C -0.02158(9) 0.2282(2) 0.62035(8)
C2D C 0.01503(9) 0.3078(2) 0.66265(8)
H1D H 0.0179 0.4270 0.6630
C3D C 0.04719(11) 0.2160(3) 0.70417(9)
H2D H 0.0726 0.2719 0.7325
C4D C 0.04256(11) 0.0422(3) 0.70467(9)
H3D H 0.0645 -0.0211 0.7334
C5D C 0.00597(12) -0.0385(2) 0.66335(9)
H4D H 0.0026 -0.1576 0.6637
C6D C -0.02600(10) 0.0534(2) 0.62121(9)
H5D H -0.0510 -0.0031 0.5928
C7D C -0.11430(8) 0.4959(3) 0.60718(7)
C8D C -0.12447(9) 0.6594(2) 0.58842(8)
H6D H -0.1052 0.6964 0.5535
C9D C -0.16263(10) 0.7692(3) 0.62033(9)
H7D H -0.1698 0.8807 0.6071
C10D C -0.19008(10) 0.7167(3) 0.67105(10)
H8D H -0.2153 0.7928 0.6933
C11D C -0.18118(10) 0.5537(3) 0.68997(9)
H9D H -0.2013 0.5174 0.7246
C12D C -0.14311(10) 0.4431(2) 0.65873(8)
H10D H -0.1365 0.3316 0.6722
C13D C -0.11789(9) 0.2072(2) 0.52916(8)
C14D C -0.09034(10) 0.0961(2) 0.48938(8)
H11D H -0.0446 0.0982 0.4827
C15D C -0.12902(10) -0.0170(3) 0.45957(8)
H12D H -0.1098 -0.0937 0.4332
C16D C -0.19557(10) -0.0175(3) 0.46843(9)
H13D H -0.2224 -0.0942 0.4479
C17D C -0.22358(10) 0.0933(2) 0.50713(10)
H14D H -0.2696 0.0932 0.5126
C18D C -0.18506(9) 0.2038(2) 0.53788(9)
H15D H -0.2045 0.2776 0.5650
Pt1 Pt 1.0000 0.5000 0.5000
P1 P 1.06393(2) 0.64737(6) 0.43405(2)
O1 O 0.87835(7) 0.54712(17) 0.44349(6)
O2 O 0.93972(7) 0.36615(18) 0.40125(6)
N1 N 0.92955(8) 0.46842(18) 0.44060(7)
C1 C 1.02158(9) 0.7718(2) 0.37965(8)
C2 C 0.98497(9) 0.6922(2) 0.33735(8)
H1 H 0.9821 0.5730 0.3370
C3 C 0.95281(11) 0.7840(3) 0.29583(9)
H2 H 0.9274 0.7281 0.2675
C4 C 0.95744(11) 0.9578(3) 0.29533(9)
H3 H 0.9355 1.0211 0.2666
C5 C 0.99403(12) 1.0385(2) 0.33665(9)
H4 H 0.9974 1.1576 0.3363
C6 C 1.02600(10) 0.9466(2) 0.37879(9)
H5 H 1.0510 1.0031 0.4072
C7 C 1.11430(8) 0.5041(3) 0.39282(7)
C8 C 1.12447(9) 0.3406(2) 0.41158(8)
H6 H 1.1052 0.3036 0.4465
C9 C 1.16263(10) 0.2308(3) 0.37967(9)
H7 H 1.1698 0.1193 0.3929
C10 C 1.19008(10) 0.2833(3) 0.32895(10)
H8 H 1.2153 0.2072 0.3067
C11 C 1.18118(10) 0.4463(3) 0.31003(9)
H9 H 1.2013 0.4826 0.2754
C12 C 1.14311(10) 0.5569(2) 0.34127(8)
H10 H 1.1365 0.6684 0.3278
C13 C 1.11789(9) 0.7928(2) 0.47084(8)
C14 C 1.09034(10) 0.9039(2) 0.51062(8)
H11 H 1.0446 0.9018 0.5173
C15 C 1.12902(10) 1.0170(3) 0.54043(8)
H12 H 1.1098 1.0937 0.5668
C16 C 1.19557(10) 1.0175(3) 0.53157(9)
H13 H 1.2224 1.0942 0.5521
C17 C 1.22358(10) 0.9067(2) 0.49287(10)
H14 H 1.2696 0.9068 0.4874
C18 C 1.18506(9) 0.7962(2) 0.46212(9)
H15 H 1.2045 0.7224 0.4350
P1D P 0.93607(2) 0.35263(6) 0.56595(2)
O1D O 1.12165(7) 0.45288(17) 0.55651(6)
O2D O 1.06028(7) 0.63385(18) 0.59875(6)
N1D N 1.07045(8) 0.53158(18) 0.55940(7)
C1D C 0.97842(9) 0.2282(2) 0.62035(8)
C2D C 1.01503(9) 0.3078(2) 0.66265(8)
H1D H 1.0179 0.4270 0.6630
C3D C 1.04719(11) 0.2160(3) 0.70417(9)
H2D H 1.0726 0.2719 0.7325
C4D C 1.04256(11) 0.0422(3) 0.70467(9)
H3D H 1.0645 -0.0211 0.7334
C5D C 1.00597(12) -0.0385(2) 0.66335(9)
H4D H 1.0026 -0.1576 0.6637
C6D C 0.97400(10) 0.0534(2) 0.62121(9)
H5D H 0.9490 -0.0031 0.5928
C7D C 0.88570(8) 0.4959(3) 0.60718(7)
C8D C 0.87553(9) 0.6594(2) 0.58842(8)
H6D H 0.8948 0.6964 0.5535
C9D C 0.83737(10) 0.7692(3) 0.62033(9)
H7D H 0.8302 0.8807 0.6071
C10D C 0.80992(10) 0.7167(3) 0.67105(10)
H8D H 0.7847 0.7928 0.6933
C11D C 0.81882(10) 0.5537(3) 0.68997(9)
H9D H 0.7987 0.5174 0.7246
C12D C 0.85689(10) 0.4431(2) 0.65873(8)
H10D H 0.8635 0.3316 0.6722
C13D C 0.88211(9) 0.2072(2) 0.52916(8)
C14D C 0.90966(10) 0.0961(2) 0.48938(8)
H11D H 0.9554 0.0982 0.4827
C15D C 0.87098(10) -0.0170(3) 0.45957(8)
H12D H 0.8902 -0.0937 0.4332
C16D C 0.80443(10) -0.0175(3) 0.46843(9)
H13D H 0.7776 -0.0942 0.4479
C17D C 0.77642(10) 0.0933(2) 0.50713(10)
H14D H 0.7304 0.0932 0.5126
C18D C 0.81494(9) 0.2038(2) 0.53788(9)
H15D H 0.7955 0.2776 0.5650
Pt1 Pt 0.5000 0.5000 0.0000
P1 P 0.43607(2) 0.35263(6) -0.06595(2)
O1 O 0.62165(7) 0.45288(17) -0.05651(6)
O2 O 0.56028(7) 0.63385(18) -0.09875(6)
N1 N 0.57045(8) 0.53158(18) -0.05940(7)
C1 C 0.47842(9) 0.2282(2) -0.12035(8)
C2 C 0.51503(9) 0.3078(2) -0.16265(8)
H1 H 0.5179 0.4270 -0.1630
C3 C 0.54719(11) 0.2160(3) -0.20417(9)
H2 H 0.5726 0.2719 -0.2325
C4 C 0.54256(11) 0.0422(3) -0.20467(9)
H3 H 0.5645 -0.0211 -0.2334
C5 C 0.50597(12) -0.0385(2) -0.16335(9)
H4 H 0.5026 -0.1576 -0.1637
C6 C 0.47400(10) 0.0534(2) -0.12121(9)
H5 H 0.4490 -0.0031 -0.0928
C7 C 0.38570(8) 0.4959(3) -0.10718(7)
C8 C 0.37553(9) 0.6594(2) -0.08842(8)
H6 H 0.3948 0.6964 -0.0535
C9 C 0.33737(10) 0.7692(3) -0.12033(9)
H7 H 0.3302 0.8807 -0.1071
C10 C 0.30992(10) 0.7167(3) -0.17105(10)
H8 H 0.2847 0.7928 -0.1933
C11 C 0.31882(10) 0.5537(3) -0.18997(9)
H9 H 0.2987 0.5174 -0.2246
C12 C 0.35689(10) 0.4431(2) -0.15873(8)
H10 H 0.3635 0.3316 -0.1722
C13 C 0.38211(9) 0.2072(2) -0.02916(8)
C14 C 0.40966(10) 0.0961(2) 0.01062(8)
H11 H 0.4554 0.0982 0.0173
C15 C 0.37098(10) -0.0170(3) 0.04043(8)
H12 H 0.3902 -0.0937 0.0668
C16 C 0.30443(10) -0.0175(3) 0.03157(9)
H13 H 0.2776 -0.0942 0.0521
C17 C 0.27642(10) 0.0933(2) -0.00713(10)
H14 H 0.2304 0.0932 -0.0126
C18 C 0.31494(9) 0.2038(2) -0.03788(9)
H15 H 0.2955 0.2776 -0.0650
P1D P 0.56393(2) 0.64737(6) 0.06595(2)
O1D O 0.37835(7) 0.54712(17) 0.05651(6)
O2D O 0.43972(7) 0.36615(18) 0.09875(6)
N1D N 0.42955(8) 0.46842(18) 0.05940(7)
C1D C 0.52158(9) 0.7718(2) 0.12035(8)
C2D C 0.48497(9) 0.6922(2) 0.16265(8)
H1D H 0.4821 0.5730 0.1630
C3D C 0.45281(11) 0.7840(3) 0.20417(9)
H2D H 0.4274 0.7281 0.2325
C4D C 0.45744(11) 0.9578(3) 0.20467(9)
H3D H 0.4355 1.0211 0.2334
C5D C 0.49403(12) 1.0385(2) 0.16335(9)
H4D H 0.4974 1.1576 0.1637
C6D C 0.52600(10) 0.9466(2) 0.12121(9)
H5D H 0.5510 1.0031 0.0928
C7D C 0.61430(8) 0.5041(3) 0.10718(7)
C8D C 0.62447(9) 0.3406(2) 0.08842(8)
H6D H 0.6052 0.3036 0.0535
C9D C 0.66263(10) 0.2308(3) 0.12033(9)
H7D H 0.6698 0.1193 0.1071
C10D C 0.69008(10) 0.2833(3) 0.17105(10)
H8D H 0.7153 0.2072 0.1933
C11D C 0.68118(10) 0.4463(3) 0.18997(9)
H9D H 0.7013 0.4826 0.2246
C12D C 0.64311(10) 0.5569(2) 0.15873(8)
H10D H 0.6365 0.6684 0.1722
C13D C 0.61789(9) 0.7928(2) 0.02916(8)
C14D C 0.59034(10) 0.9039(2) -0.01062(8)
H11D H 0.5446 0.9018 -0.0173
C15D C 0.62902(10) 1.0170(3) -0.04043(8)
H12D H 0.6098 1.0937 -0.0668
C16D C 0.69557(10) 1.0175(3) -0.03157(9)
H13D H 0.7224 1.0942 -0.0521
C17D C 0.72358(10) 0.9067(2) 0.00713(10)
H14D H 0.7696 0.9068 0.0126
C18D C 0.68506(9) 0.7962(2) 0.03788(9)
H15D H 0.7045 0.7224 0.0650
Pt1 Pt 0.5000 0.5000 1.0000
P1 P 0.43607(2) 0.35263(6) 0.93405(2)
O1 O 0.62165(7) 0.45288(17) 0.94349(6)
O2 O 0.56028(7) 0.63385(18) 0.90125(6)
N1 N 0.57045(8) 0.53158(18) 0.94060(7)
C1 C 0.47842(9) 0.2282(2) 0.87965(8)
C2 C 0.51503(9) 0.3078(2) 0.83735(8)
H1 H 0.5179 0.4270 0.8370
C3 C 0.54719(11) 0.2160(3) 0.79583(9)
H2 H 0.5726 0.2719 0.7675
C4 C 0.54256(11) 0.0422(3) 0.79533(9)
H3 H 0.5645 -0.0211 0.7666
C5 C 0.50597(12) -0.0385(2) 0.83665(9)
H4 H 0.5026 -0.1576 0.8363
C6 C 0.47400(10) 0.0534(2) 0.87879(9)
H5 H 0.4490 -0.0031 0.9072
C7 C 0.38570(8) 0.4959(3) 0.89282(7)
C8 C 0.37553(9) 0.6594(2) 0.91158(8)
H6 H 0.3948 0.6964 0.9465
C9 C 0.33737(10) 0.7692(3) 0.87967(9)
H7 H 0.3302 0.8807 0.8929
C10 C 0.30992(10) 0.7167(3) 0.82895(10)
H8 H 0.2847 0.7928 0.8067
C11 C 0.31882(10) 0.5537(3) 0.81003(9)
H9 H 0.2987 0.5174 0.7754
C12 C 0.35689(10) 0.4431(2) 0.84127(8)
H10 H 0.3635 0.3316 0.8278
C13 C 0.38211(9) 0.2072(2) 0.97084(8)
C14 C 0.40966(10) 0.0961(2) 1.01062(8)
H11 H 0.4554 0.0982 1.0173
C15 C 0.37098(10) -0.0170(3) 1.04043(8)
H12 H 0.3902 -0.0937 1.0668
C16 C 0.30443(10) -0.0175(3) 1.03157(9)
H13 H 0.2776 -0.0942 1.0521
C17 C 0.27642(10) 0.0933(2) 0.99287(10)
H14 H 0.2304 0.0932 0.9874
C18 C 0.31494(9) 0.2038(2) 0.96212(9)
H15 H 0.2955 0.2776 0.9350
P1D P 0.56393(2) 0.64737(6) 1.06595(2)
O1D O 0.37835(7) 0.54712(17) 1.05651(6)
O2D O 0.43972(7) 0.36615(18) 1.09875(6)
N1D N 0.42955(8) 0.46842(18) 1.05940(7)
C1D C 0.52158(9) 0.7718(2) 1.12035(8)
C2D C 0.48497(9) 0.6922(2) 1.16265(8)
H1D H 0.4821 0.5730 1.1630
C3D C 0.45281(11) 0.7840(3) 1.20417(9)
H2D H 0.4274 0.7281 1.2325
C4D C 0.45744(11) 0.9578(3) 1.20467(9)
H3D H 0.4355 1.0211 1.2334
C5D C 0.49403(12) 1.0385(2) 1.16335(9)
H4D H 0.4974 1.1576 1.1637
C6D C 0.52600(10) 0.9466(2) 1.12121(9)
H5D H 0.5510 1.0031 1.0928
C7D C 0.61430(8) 0.5041(3) 1.10718(7)
C8D C 0.62447(9) 0.3406(2) 1.08842(8)
H6D H 0.6052 0.3036 1.0535
C9D C 0.66263(10) 0.2308(3) 1.12033(9)
H7D H 0.6698 0.1193 1.1071
C10D C 0.69008(10) 0.2833(3) 1.17105(10)
H8D H 0.7153 0.2072 1.1933
C11D C 0.68118(10) 0.4463(3) 1.18997(9)
H9D H 0.7013 0.4826 1.2246
C12D C 0.64311(10) 0.5569(2) 1.15873(8)
H10D H 0.6365 0.6684 1.1722
C13D C 0.61789(9) 0.7928(2) 1.02916(8)
C14D C 0.59034(10) 0.9039(2) 0.98938(8)
H11D H 0.5446 0.9018 0.9827
C15D C 0.62902(10) 1.0170(3) 0.95957(8)
H12D H 0.6098 1.0937 0.9332
C16D C 0.69557(10) 1.0175(3) 0.96843(9)
H13D H 0.7224 1.0942 0.9479
C17D C 0.72358(10) 0.9067(2) 1.00713(10)
H14D H 0.7696 0.9068 1.0126
C18D C 0.68506(9) 0.7962(2) 1.03788(9)
H15D H 0.7045 0.7224 1.0650
Cl1 Cl 0.23152(3) 0.24708(9) 0.17150(3)
Cl2 Cl 0.35151(3) 0.36565(8) 0.22591(3)
C19 C 0.31448(12) 0.2974(3) 0.16158(10)
H16 H 0.3182 0.3871 0.1323
H17 H 0.3379 0.1972 0.1470
Cl1 Cl 0.26848(3) 0.75292(9) 0.67150(3)
Cl2 Cl 0.14849(3) 0.63435(8) 0.72591(3)
C19 C 0.18552(12) 0.7026(3) 0.66158(10)
H16 H 0.1818 0.6129 0.6323
H17 H 0.1621 0.8028 0.6470
Cl1 Cl 0.73152(3) 0.25292(9) 0.82850(3)
Cl2 Cl 0.85151(3) 0.13435(8) 0.77409(3)
C19 C 0.81448(12) 0.2026(3) 0.83842(10)
H16 H 0.8182 0.1129 0.8677
H17 H 0.8379 0.3028 0.8530
Cl1 Cl 0.76848(3) 0.74708(9) 0.32850(3)
Cl2 Cl 0.64849(3) 0.86565(8) 0.27409(3)
C19 C 0.68552(12) 0.7974(3) 0.33842(10)
H16 H 0.6818 0.8871 0.3677
H17 H 0.6621 0.6972 0.3530
Cl1 Cl 0.76848(3) 0.75292(9) 0.82850(3)
Cl2 Cl 0.64849(3) 0.63435(8) 0.77409(3)
C19 C 0.68552(12) 0.7026(3) 0.83842(10)
H16 H 0.6818 0.6129 0.8677
H17 H 0.6621 0.8028 0.8530
Cl1 Cl 0.73152(3) 0.24708(9) 0.32850(3)
Cl2 Cl 0.85151(3) 0.36565(8) 0.27409(3)
C19 C 0.81448(12) 0.2974(3) 0.33842(10)
H16 H 0.8182 0.3871 0.3677
H17 H 0.8379 0.1972 0.3530
Cl1 Cl 0.26848(3) 0.74708(9) 0.17150(3)
Cl2 Cl 0.14849(3) 0.86565(8) 0.22591(3)
C19 C 0.18552(12) 0.7974(3) 0.16158(10)
H16 H 0.1818 0.8871 0.1323
H17 H 0.1621 0.6972 0.1470
Cl1 Cl 0.23152(3) 0.25292(9) 0.67150(3)
Cl2 Cl 0.35151(3) 0.13435(8) 0.72591(3)
C19 C 0.31448(12) 0.2026(3) 0.66158(10)
H16 H 0.3182 0.1129 0.6323
H17 H 0.3379 0.3028 0.6470

#END
