./ACOYOG01_from_POSCAR.cif_generated_by_CrystalShift
_symmetry_cell_setting triclinic
_symmetry_space_group_name_H-M 'P 1'
loop_
_symmetry_equiv_pos_site_id
_symmetry_equiv_pos_as_xyz
1 x,y,z
_cell_length_a 10.192700
_cell_length_b 7.161000
_cell_length_c 20.255900
_cell_angle_alpha 90.000000
_cell_angle_beta 94.162400
_cell_angle_gamma 90.000000
_cell_volume 1474.576874
loop_
_atom_site_label
_atom_site_type_symbol
_atom_site_fract_x
_atom_site_fract_y
_atom_site_fract_z
H1 H 0.190400 0.320800 0.754100
H2 H 0.415500 0.383000 0.751300
H3 H 0.307600 0.567500 0.925500
H4 H -0.014500 0.679700 0.951000
H5 H 0.494100 0.676900 0.795800
H6 H 0.084500 0.883000 0.748700
H7 H 0.309600 0.820800 0.745900
H8 H 0.809600 0.679200 0.245900
H9 H 0.584500 0.617000 0.248700
H10 H 0.471000 0.703100 0.340500
H11 H 0.807600 0.932500 0.425500
H12 H 0.485500 0.820300 0.451000
H13 H 0.515400 0.159800 0.342400
H14 H 0.363300 0.147700 0.422400
H15 H 0.105300 0.421000 0.295000
H16 H 0.265000 0.426600 0.220000
H17 H -0.016000 0.222900 0.527100
H18 H -0.190300 0.191300 0.593900
H19 H -0.437900 0.397400 0.455400
H20 H -0.271500 0.434000 0.384100
H21 H 0.994100 0.823100 0.295800
H22 H 0.149100 0.342900 0.457900
H23 H 0.107000 0.145500 0.432900
H24 H 0.690400 0.179200 0.254100
H25 H -0.010700 0.477100 0.388000
H26 H -0.049700 0.282700 0.358900
H27 H 0.529000 0.296900 0.659500
H28 H 0.192400 0.067500 0.574500
H29 H 0.915500 0.117000 0.251300
H30 H 1.029000 0.203100 0.159500
H31 H 0.692400 0.432500 0.074500
H32 H 1.014500 0.320300 0.049000
H33 H 0.505900 0.323100 0.204200
H34 H 0.450300 0.217300 0.858900
H35 H 0.489300 0.022900 0.888000
H36 H 0.607000 0.354500 0.932900
H37 H 0.649100 0.157100 0.957900
H38 H 0.228500 0.066000 0.884100
H39 H -0.015400 0.659800 0.157600
H40 H 0.136700 0.647700 0.077600
H41 H 0.394700 0.921000 0.205000
H42 H 0.235000 0.926600 0.280000
H43 H 0.516000 0.722900 -0.027100
H44 H 0.690300 0.691300 -0.093900
H45 H 0.937900 0.897400 0.044600
H46 H 0.771500 0.934000 0.115900
H47 H 0.062100 0.102600 0.955400
H48 H 0.350900 0.842900 0.042100
H49 H 0.393000 0.645500 0.067100
H50 H 0.309700 0.308700 1.093900
H51 H 0.510700 0.977100 0.112000
H52 H 0.549700 0.782700 0.141100
H53 H 0.514500 0.179700 0.549000
H54 H 0.005900 0.176900 0.704200
H55 H 0.484000 0.277100 1.027100
H56 H 0.765000 0.073400 0.720000
H57 H 0.605300 0.079000 0.795000
H58 H 0.863300 0.352300 0.922400
H59 H 1.015400 0.340200 0.842400
H60 H 1.049700 0.717300 0.641100
H61 H 1.010700 0.522900 0.612000
H62 H 0.893000 0.854500 0.567100
H63 H 0.850900 0.657100 0.542100
H64 H -0.029000 0.796900 0.840500
H65 H 0.484600 0.840200 0.657600
H66 H 0.636700 0.852300 0.577600
H67 H 0.894700 0.579000 0.705000
H68 H 0.735000 0.573400 0.780000
H69 H 1.016000 0.777100 0.472900
H70 H 1.190300 0.808700 0.406100
H71 H 1.437900 0.602600 0.544600
H72 H 1.271500 0.566000 0.615900
C73 C 1.252400 0.617300 0.573030
C74 C 1.351100 0.639700 0.530120
C75 C 1.207200 0.759600 0.449500
C76 C 1.020000 0.651700 0.602040
C77 C 1.102200 0.741700 0.489120
C78 C 0.715300 0.632200 0.738390
C79 C 0.236500 0.282100 0.717370
C80 C 0.370100 0.321000 0.715030
C81 C 0.715000 0.216700 0.868250
C82 C 0.376300 0.171100 0.947050
C83 C 0.930700 0.287300 0.832820
C84 C 0.840400 0.294500 0.880950
C85 C 0.688900 0.133400 0.806290
C86 C 0.784700 0.132200 0.761610
C87 C 0.397800 0.241700 1.010880
C88 C 0.292800 0.259600 1.050500
C89 C 0.148900 0.139700 0.969880
C90 C 0.247600 0.117300 0.926970
C91 C 0.811100 0.633400 0.693710
C92 C 0.659600 0.794500 0.619050
C93 C 0.569300 0.787300 0.667180
C94 C 1.123700 0.671100 0.552950
C95 C 0.785000 0.716700 0.631750
C96 C 0.520000 0.848300 0.102040
C97 C 0.383900 0.772500 0.079460
C98 C 0.752400 0.882700 0.073030
C99 C 0.616100 0.227500 0.920540
C100 C 0.851100 0.860300 0.030120
C101 C 0.707200 0.740400 -0.050500
C102 C 0.480000 0.151700 0.897960
C103 C 0.602200 0.758300 -0.010880
C104 C 0.215300 0.867800 0.238390
C105 C 0.670200 0.312200 0.164810
C106 C 0.870600 0.324000 0.108130
C107 C 0.438100 0.269100 0.660840
C108 C 0.237200 0.133000 0.610210
C109 C 0.737200 0.367000 0.110210
C110 C 0.938100 0.230900 0.160840
C111 C 0.870100 0.179000 0.215030
C112 C 0.736500 0.217900 0.217370
C113 C 0.311100 0.866600 0.193710
C114 C 0.159600 0.705500 0.119050
C115 C 0.069300 0.712700 0.167180
C116 C 0.623700 0.828900 0.052950
C117 C 0.285000 0.783300 0.131750
C118 C -0.020000 0.348300 0.397960
C119 C 0.829800 0.812200 0.335190
C120 C 0.629400 0.824000 0.391870
C121 C 0.370600 0.176000 0.608130
C122 C 0.170200 0.187800 0.664810
C123 C 0.762800 0.867000 0.389790
C124 C 0.561900 0.730900 0.339160
C125 C 0.629900 0.679000 0.284970
C126 C 0.763500 0.717900 0.282630
C127 C 0.116100 0.272500 0.420540
C128 C -0.252400 0.382700 0.426970
C129 C -0.351100 0.360300 0.469880
C130 C -0.207200 0.240400 0.550500
C131 C -0.102200 0.258300 0.510880
C132 C 0.284700 0.367800 0.261610
C133 C 0.329800 0.687800 0.835190
C134 C 0.129400 0.676000 0.891870
C135 C 0.188900 0.366600 0.306290
C136 C 0.340400 0.205500 0.380950
C137 C 0.262800 0.633000 0.889790
C138 C 0.061900 0.769100 0.839160
C139 C 0.129900 0.821000 0.784970
C140 C 0.263500 0.782100 0.782630
C141 C 0.430700 0.212700 0.332820
C142 C -0.123700 0.328900 0.447050
C143 C 0.215000 0.283300 0.368250
C144 C 0.883900 0.727500 0.579460
N145 N 0.168440 0.212500 1.031270
N146 N -0.331560 0.287500 0.531270
N147 N 0.095240 0.791800 0.226900
N148 N 0.831560 0.787500 -0.031270
N149 N 0.595240 0.708200 0.726900
N150 N 1.331560 0.712500 0.468730
N151 N 0.904760 0.208200 0.773100
N152 N 0.404760 0.291800 0.273100
O153 O 0.930610 0.377800 0.052700
O154 O 0.430610 0.122200 0.552700
O155 O 0.038460 0.146700 0.662920
O156 O 0.961540 0.853300 0.337080
O157 O 0.569390 0.877800 0.447300
O158 O 0.461540 0.646700 0.837080
O159 O 0.069390 0.622200 0.947300
O160 O 0.538460 0.353300 0.162920

#END
