
#######################################################################
#
#                 Cambridge Crystallographic Data Centre
#                                CCDC 
#
#######################################################################
#
# If this CIF has been generated from an entry in the Cambridge 
# Structural Database, then it will include bibliographic, chemical, 
# crystal, experimental, refinement or atomic coordinate data resulting 
# from the CCDC's data processing and validation procedures.
#
#######################################################################

data_HIMWIJ01
_symmetry_cell_setting           monoclinic
_symmetry_space_group_name_H-M   'C 2/c'
_symmetry_Int_Tables_number      15
_space_group_name_Hall           '-C 2yn'
loop_
_symmetry_equiv_pos_site_id
_symmetry_equiv_pos_as_xyz
1 x,y,z
2 -x,y,1/2-z
3 1/2+x,1/2+y,z
4 1/2-x,1/2+y,1/2-z
5 -x,-y,-z
6 x,-y,1/2+z
7 1/2-x,1/2-y,-z
8 1/2+x,1/2-y,1/2+z
_cell_length_a                   18.788(2)
_cell_length_b                   6.6945(5)
_cell_length_c                   21.013(2)
_cell_angle_alpha                90
_cell_angle_beta                 90.761(6)
_cell_angle_gamma                90
_cell_volume                     2642.7
loop_
_atom_site_label
_atom_site_type_symbol
_atom_site_fract_x
_atom_site_fract_y
_atom_site_fract_z
C1 C 0.1955(1) 1.1265(4) 0.3414(1)
C2 C 0.2214(2) 0.9330(4) 0.3329(1)
C3 C 0.1905(2) 0.8077(5) 0.2883(1)
C4 C 0.1343(2) 0.8698(5) 0.2561(1)
C5 C 0.1088(2) 1.0643(6) 0.2599(1)
C6 C 0.1400(2) 1.1953(5) 0.3054(1)
C7 C 0.1010(2) 0.7502(5) 0.2053(2)
C8 C 0.0449(2) 0.7581(5) 0.1728(2)
C9 C 0.0081(2) 0.6195(5) 0.1284(1)
C10 C 0.0292(2) 0.4247(1) 0.1155(1)
C11 C -0.0091(2) 0.3031(5) 0.0744(1)
C12 C -0.0694(1) 0.3812(5) 0.0456(1)
C13 C -0.0917(2) 0.5719(5) 0.0568(1)
C14 C -0.0538(2) 0.6909(5) 0.0979(1)
N1 N -0.1110(2) 0.2580(5) 0.0016(1)
O1 O -0.0951(2) 0.0822(5) -0.0036(1)
O2 O -0.1597(1) 0.3354(5) -0.0278(1)
O3 O 0.2249(1) 1.2495(3) 0.3861(1)
O4 O 0.2780(1) 0.8832(3) 0.3709(1)
C15 C 0.2879(2) 0.6854(5) 0.3887(2)
C1 C 0.8045(1) 1.1265(4) 0.1586(1)
C2 C 0.7786(2) 0.9330(4) 0.1671(1)
C3 C 0.8095(2) 0.8077(5) 0.2117(1)
C4 C 0.8657(2) 0.8698(5) 0.2439(1)
C5 C 0.8912(2) 1.0643(6) 0.2401(1)
C6 C 0.8600(2) 1.1953(5) 0.1946(1)
C7 C 0.8990(2) 0.7502(5) 0.2947(2)
C8 C 0.9551(2) 0.7581(5) 0.3272(2)
C9 C 0.9919(2) 0.6195(5) 0.3716(1)
C10 C 0.9708(2) 0.4247(1) 0.3845(1)
C11 C 1.0091(2) 0.3031(5) 0.4256(1)
C12 C 1.0694(1) 0.3812(5) 0.4544(1)
C13 C 1.0917(2) 0.5719(5) 0.4432(1)
C14 C 1.0538(2) 0.6909(5) 0.4021(1)
N1 N 1.1110(2) 0.2580(5) 0.4984(1)
O1 O 1.0951(2) 0.0822(5) 0.5036(1)
O2 O 1.1597(1) 0.3354(5) 0.5278(1)
O3 O 0.7751(1) 1.2495(3) 0.1139(1)
O4 O 0.7220(1) 0.8832(3) 0.1291(1)
C15 C 0.7121(2) 0.6854(5) 0.1113(2)
C1 C 0.6955(1) 0.6265(4) 0.3414(1)
C2 C 0.7214(2) 0.4330(4) 0.3329(1)
C3 C 0.6905(2) 0.3077(5) 0.2883(1)
C4 C 0.6343(2) 0.3698(5) 0.2561(1)
C5 C 0.6088(2) 0.5643(6) 0.2599(1)
C6 C 0.6400(2) 0.6953(5) 0.3054(1)
C7 C 0.6010(2) 0.2502(5) 0.2053(2)
C8 C 0.5449(2) 0.2581(5) 0.1728(2)
C9 C 0.5081(2) 0.1195(5) 0.1284(1)
C10 C 0.5292(2) -0.0753(1) 0.1155(1)
C11 C 0.4909(2) -0.1969(5) 0.0744(1)
C12 C 0.4306(1) -0.1188(5) 0.0456(1)
C13 C 0.4083(2) 0.0719(5) 0.0568(1)
C14 C 0.4462(2) 0.1909(5) 0.0979(1)
N1 N 0.3890(2) -0.2420(5) 0.0016(1)
O1 O 0.4049(2) -0.4178(5) -0.0036(1)
O2 O 0.3403(1) -0.1646(5) -0.0278(1)
O3 O 0.7249(1) 0.7495(3) 0.3861(1)
O4 O 0.7780(1) 0.3832(3) 0.3709(1)
C15 C 0.7879(2) 0.1854(5) 0.3887(2)
C1 C 0.3045(1) 0.6265(4) 0.1586(1)
C2 C 0.2786(2) 0.4330(4) 0.1671(1)
C3 C 0.3095(2) 0.3077(5) 0.2117(1)
C4 C 0.3657(2) 0.3698(5) 0.2439(1)
C5 C 0.3912(2) 0.5643(6) 0.2401(1)
C6 C 0.3600(2) 0.6953(5) 0.1946(1)
C7 C 0.3990(2) 0.2502(5) 0.2947(2)
C8 C 0.4551(2) 0.2581(5) 0.3272(2)
C9 C 0.4919(2) 0.1195(5) 0.3716(1)
C10 C 0.4708(2) -0.0753(1) 0.3845(1)
C11 C 0.5091(2) -0.1969(5) 0.4256(1)
C12 C 0.5694(1) -0.1188(5) 0.4544(1)
C13 C 0.5917(2) 0.0719(5) 0.4432(1)
C14 C 0.5538(2) 0.1909(5) 0.4021(1)
N1 N 0.6110(2) -0.2420(5) 0.4984(1)
O1 O 0.5951(2) -0.4178(5) 0.5036(1)
O2 O 0.6597(1) -0.1646(5) 0.5278(1)
O3 O 0.2751(1) 0.7495(3) 0.1139(1)
O4 O 0.2220(1) 0.3832(3) 0.1291(1)
C15 C 0.2121(2) 0.1854(5) 0.1113(2)
C1 C 0.8045(1) -0.1265(4) 0.6586(1)
C2 C 0.7786(2) 0.0670(4) 0.6671(1)
C3 C 0.8095(2) 0.1923(5) 0.7117(1)
C4 C 0.8657(2) 0.1302(5) 0.7439(1)
C5 C 0.8912(2) -0.0643(6) 0.7401(1)
C6 C 0.8600(2) -0.1953(5) 0.6946(1)
C7 C 0.8990(2) 0.2498(5) 0.7947(2)
C8 C 0.9551(2) 0.2419(5) 0.8272(2)
C9 C 0.9919(2) 0.3805(5) 0.8716(1)
C10 C 0.9708(2) 0.5753(1) 0.8845(1)
C11 C 1.0091(2) 0.6969(5) 0.9256(1)
C12 C 1.0694(1) 0.6188(5) 0.9544(1)
C13 C 1.0917(2) 0.4281(5) 0.9432(1)
C14 C 1.0538(2) 0.3091(5) 0.9021(1)
N1 N 1.1110(2) 0.7420(5) 0.9984(1)
O1 O 1.0951(2) 0.9178(5) 1.0036(1)
O2 O 1.1597(1) 0.6646(5) 1.0278(1)
O3 O 0.7751(1) -0.2495(3) 0.6139(1)
O4 O 0.7220(1) 0.1168(3) 0.6291(1)
C15 C 0.7121(2) 0.3146(5) 0.6113(2)
C1 C 0.1955(1) -0.1265(4) 0.8414(1)
C2 C 0.2214(2) 0.0670(4) 0.8329(1)
C3 C 0.1905(2) 0.1923(5) 0.7883(1)
C4 C 0.1343(2) 0.1302(5) 0.7561(1)
C5 C 0.1088(2) -0.0643(6) 0.7599(1)
C6 C 0.1400(2) -0.1953(5) 0.8054(1)
C7 C 0.1010(2) 0.2498(5) 0.7053(2)
C8 C 0.0449(2) 0.2419(5) 0.6728(2)
C9 C 0.0081(2) 0.3805(5) 0.6284(1)
C10 C 0.0292(2) 0.5753(1) 0.6155(1)
C11 C -0.0091(2) 0.6969(5) 0.5744(1)
C12 C -0.0694(1) 0.6188(5) 0.5456(1)
C13 C -0.0917(2) 0.4281(5) 0.5568(1)
C14 C -0.0538(2) 0.3091(5) 0.5979(1)
N1 N -0.1110(2) 0.7420(5) 0.5016(1)
O1 O -0.0951(2) 0.9178(5) 0.4964(1)
O2 O -0.1597(1) 0.6646(5) 0.4722(1)
O3 O 0.2249(1) -0.2495(3) 0.8861(1)
O4 O 0.2780(1) 0.1168(3) 0.8709(1)
C15 C 0.2879(2) 0.3146(5) 0.8887(2)
C1 C 0.3045(1) 0.3735(4) 0.6586(1)
C2 C 0.2786(2) 0.5670(4) 0.6671(1)
C3 C 0.3095(2) 0.6923(5) 0.7117(1)
C4 C 0.3657(2) 0.6302(5) 0.7439(1)
C5 C 0.3912(2) 0.4357(6) 0.7401(1)
C6 C 0.3600(2) 0.3047(5) 0.6946(1)
C7 C 0.3990(2) 0.7498(5) 0.7947(2)
C8 C 0.4551(2) 0.7419(5) 0.8272(2)
C9 C 0.4919(2) 0.8805(5) 0.8716(1)
C10 C 0.4708(2) 1.0753(1) 0.8845(1)
C11 C 0.5091(2) 1.1969(5) 0.9256(1)
C12 C 0.5694(1) 1.1188(5) 0.9544(1)
C13 C 0.5917(2) 0.9281(5) 0.9432(1)
C14 C 0.5538(2) 0.8091(5) 0.9021(1)
N1 N 0.6110(2) 1.2420(5) 0.9984(1)
O1 O 0.5951(2) 1.4178(5) 1.0036(1)
O2 O 0.6597(1) 1.1646(5) 1.0278(1)
O3 O 0.2751(1) 0.2505(3) 0.6139(1)
O4 O 0.2220(1) 0.6168(3) 0.6291(1)
C15 C 0.2121(2) 0.8146(5) 0.6113(2)
C1 C 0.6955(1) 0.3735(4) 0.8414(1)
C2 C 0.7214(2) 0.5670(4) 0.8329(1)
C3 C 0.6905(2) 0.6923(5) 0.7883(1)
C4 C 0.6343(2) 0.6302(5) 0.7561(1)
C5 C 0.6088(2) 0.4357(6) 0.7599(1)
C6 C 0.6400(2) 0.3047(5) 0.8054(1)
C7 C 0.6010(2) 0.7498(5) 0.7053(2)
C8 C 0.5449(2) 0.7419(5) 0.6728(2)
C9 C 0.5081(2) 0.8805(5) 0.6284(1)
C10 C 0.5292(2) 1.0753(1) 0.6155(1)
C11 C 0.4909(2) 1.1969(5) 0.5744(1)
C12 C 0.4306(1) 1.1188(5) 0.5456(1)
C13 C 0.4083(2) 0.9281(5) 0.5568(1)
C14 C 0.4462(2) 0.8091(5) 0.5979(1)
N1 N 0.3890(2) 1.2420(5) 0.5016(1)
O1 O 0.4049(2) 1.4178(5) 0.4964(1)
O2 O 0.3403(1) 1.1646(5) 0.4722(1)
O3 O 0.7249(1) 0.2505(3) 0.8861(1)
O4 O 0.7780(1) 0.6168(3) 0.8709(1)
C15 C 0.7879(2) 0.8146(5) 0.8887(2)

#END
