
#######################################################################
#
#                 Cambridge Crystallographic Data Centre
#                                CCDC 
#
#######################################################################
#
# If this CIF has been generated from an entry in the Cambridge 
# Structural Database, then it will include bibliographic, chemical, 
# crystal, experimental, refinement or atomic coordinate data resulting 
# from the CCDC's data processing and validation procedures.
#
#######################################################################

data_UCECAG02
_symmetry_cell_setting           monoclinic
_symmetry_space_group_name_H-M   'P 21'
_symmetry_Int_Tables_number      4
_space_group_name_Hall           'P 2yb'
loop_
_symmetry_equiv_pos_site_id
_symmetry_equiv_pos_as_xyz
1 x,y,z
2 -x,1/2+y,-z
_cell_length_a                   8.1619(18)
_cell_length_b                   3.6646(8)
_cell_length_c                   13.278(3)
_cell_angle_alpha                90
_cell_angle_beta                 91.310(3)
_cell_angle_gamma                90
_cell_volume                     397.042
loop_
_atom_site_label
_atom_site_type_symbol
_atom_site_fract_x
_atom_site_fract_y
_atom_site_fract_z
C1 C 0.8357(3) 0.8047(7) 0.7116(2)
C2 C 0.7135(3) 0.6519(7) 0.6466(2)
C3 C 0.5638(3) 0.5344(7) 0.68156(19)
C4 C 0.5320(3) 0.5651(6) 0.7808(2)
C5 C 0.6467(3) 0.7065(8) 0.8494(2)
C6 C 0.7937(3) 0.8201(7) 0.8147(2)
Cl1 Cl 0.93843(7) 0.99266(17) 0.89833(4)
N1 N 0.9809(3) 0.9268(7) 0.68336(19)
N2 N 0.7409(3) 0.6038(6) 0.54078(17)
N3 N 0.3760(3) 0.4395(7) 0.81747(16)
O1 O 0.8620(2) 0.7495(6) 0.50430(15)
O2 O 0.6451(2) 0.4201(6) 0.49102(14)
O3 O 0.2800(2) 0.2969(7) 0.75642(16)
O4 O 0.3476(2) 0.4736(9) 0.90674(14)
H1 H 1.048(3) 0.996(11) 0.731(2)
H2 H 1.006(4) 0.911(10) 0.619(2)
H3 H 0.4860 0.4355 0.6372
H4 H 0.6233 0.7230 0.9175
C1 C 0.1643(3) 0.3047(7) 0.2884(2)
C2 C 0.2865(3) 0.1519(7) 0.3534(2)
C3 C 0.4362(3) 0.0344(7) 0.31844(19)
C4 C 0.4680(3) 0.0651(6) 0.2192(2)
C5 C 0.3533(3) 0.2065(8) 0.1506(2)
C6 C 0.2063(3) 0.3201(7) 0.1853(2)
Cl1 Cl 0.06157(7) 0.49266(17) 0.10167(4)
N1 N 0.0191(3) 0.4268(7) 0.31664(19)
N2 N 0.2591(3) 0.1038(6) 0.45922(17)
N3 N 0.6240(3) -0.0605(7) 0.18253(16)
O1 O 0.1380(2) 0.2495(6) 0.49570(15)
O2 O 0.3549(2) -0.0799(6) 0.50898(14)
O3 O 0.7200(2) -0.2031(7) 0.24358(16)
O4 O 0.6524(2) -0.0264(9) 0.09326(14)
H1 H -0.048(3) 0.496(11) 0.269(2)
H2 H -0.006(4) 0.411(10) 0.381(2)
H3 H 0.5140 -0.0645 0.3628
H4 H 0.3767 0.2230 0.0825

#END
