
#######################################################################
#
#                 Cambridge Crystallographic Data Centre
#                                CCDC 
#
#######################################################################
#
# If this CIF has been generated from an entry in the Cambridge 
# Structural Database, then it will include bibliographic, chemical, 
# crystal, experimental, refinement or atomic coordinate data resulting 
# from the CCDC's data processing and validation procedures.
#
#######################################################################

data_UCECAG03
_symmetry_cell_setting           triclinic
_symmetry_space_group_name_H-M   'P -1'
_symmetry_Int_Tables_number      2
_space_group_name_Hall           '-P 1'
loop_
_symmetry_equiv_pos_site_id
_symmetry_equiv_pos_as_xyz
1 x,y,z
2 -x,-y,-z
_cell_length_a                   7.9465(12)
_cell_length_b                   8.917(3)
_cell_length_c                   12.980(4)
_cell_angle_alpha                89.35(3)
_cell_angle_beta                 85.575(19)
_cell_angle_gamma                63.978(15)
_cell_volume                     823.786
loop_
_atom_site_label
_atom_site_type_symbol
_atom_site_fract_x
_atom_site_fract_y
_atom_site_fract_z
C1 C 1.0112(3) 0.7405(3) 0.00577(16)
C2 C 0.9272(3) 0.7565(3) 0.10887(16)
C3 C 0.7675(3) 0.8911(3) 0.14401(17)
C4 C 0.6781(3) 1.0180(3) 0.07722(17)
C5 C 0.7482(3) 1.0108(3) -0.02276(17)
C6 C 0.9113(3) 0.8747(3) -0.05752(15)
Cl1 Cl 1.03881(10) 0.59752(9) 0.19136(5)
N1 N 1.1707(3) 0.6076(3) -0.0220(2)
N2 N 0.5065(3) 1.1612(2) 0.11374(17)
N3 N 0.9801(3) 0.8782(3) -0.16393(15)
O1 O 0.4453(3) 1.1634(2) 0.20298(16)
O2 O 0.4300(3) 1.2708(2) 0.05310(16)
O3 O 0.8901(3) 0.9952(3) -0.21570(15)
O4 O 1.1303(3) 0.7669(3) -0.19640(14)
H1 H 1.219(4) 0.529(4) 0.028(2)
H2 H 1.216(4) 0.604(4) -0.078(3)
H3 H 0.718(3) 0.898(3) 0.214(2)
H4 H 0.687(3) 1.094(3) -0.0627(18)
C1 C -0.0112(3) 0.2595(3) 0.99423(16)
C2 C 0.0728(3) 0.2435(3) 0.89113(16)
C3 C 0.2325(3) 0.1089(3) 0.85599(17)
C4 C 0.3219(3) -0.0180(3) 0.92278(17)
C5 C 0.2518(3) -0.0108(3) 1.02276(17)
C6 C 0.0887(3) 0.1253(3) 1.05752(15)
Cl1 Cl -0.03881(10) 0.40248(9) 0.80864(5)
N1 N -0.1707(3) 0.3924(3) 1.0220(2)
N2 N 0.4935(3) -0.1612(2) 0.88626(17)
N3 N 0.0199(3) 0.1218(3) 1.16393(15)
O1 O 0.5547(3) -0.1634(2) 0.79702(16)
O2 O 0.5700(3) -0.2708(2) 0.94690(16)
O3 O 0.1099(3) 0.0048(3) 1.21570(15)
O4 O -0.1303(3) 0.2331(3) 1.19640(14)
H1 H -0.219(4) 0.471(4) 0.972(2)
H2 H -0.216(4) 0.396(4) 1.078(3)
H3 H 0.282(3) 0.102(3) 0.786(2)
H4 H 0.313(3) -0.094(3) 1.0627(18)
C7 C 0.3135(3) 0.5806(2) 0.41406(15)
C8 C 0.2273(3) 0.6521(3) 0.51302(15)
C9 C 0.2072(3) 0.8025(3) 0.54684(17)
C10 C 0.2730(3) 0.8922(2) 0.48204(16)
C11 C 0.3590(3) 0.8326(3) 0.38586(17)
C12 C 0.3788(3) 0.6789(2) 0.35329(15)
Cl2 Cl 0.14781(9) 0.53674(8) 0.59309(4)
N4 N 0.3293(3) 0.4320(2) 0.38607(19)
N5 N 0.2537(3) 1.0535(2) 0.51656(16)
N6 N 0.4751(3) 0.6207(2) 0.25145(14)
O5 O 0.1821(3) 1.1043(2) 0.60296(15)
O6 O 0.3095(3) 1.1312(2) 0.45699(16)
O7 O 0.5346(3) 0.7072(2) 0.20318(14)
O8 O 0.4954(3) 0.4869(2) 0.21737(15)
H5 H 0.290(4) 0.383(3) 0.427(2)
H6 H 0.385(4) 0.388(4) 0.326(2)
H7 H 0.152(3) 0.841(3) 0.6106(18)
H8 H 0.408(3) 0.890(3) 0.3425(19)
C7 C 0.6865(3) 0.4194(2) 0.58594(15)
C8 C 0.7727(3) 0.3479(3) 0.48698(15)
C9 C 0.7928(3) 0.1975(3) 0.45316(17)
C10 C 0.7270(3) 0.1078(2) 0.51796(16)
C11 C 0.6410(3) 0.1674(3) 0.61414(17)
C12 C 0.6212(3) 0.3211(2) 0.64671(15)
Cl2 Cl 0.85219(9) 0.46326(8) 0.40691(4)
N4 N 0.6707(3) 0.5680(2) 0.61393(19)
N5 N 0.7463(3) -0.0535(2) 0.48344(16)
N6 N 0.5249(3) 0.3793(2) 0.74855(14)
O5 O 0.8179(3) -0.1043(2) 0.39704(15)
O6 O 0.6905(3) -0.1312(2) 0.54301(16)
O7 O 0.4654(3) 0.2928(2) 0.79682(14)
O8 O 0.5046(3) 0.5131(2) 0.78263(15)
H5 H 0.710(4) 0.617(3) 0.573(2)
H6 H 0.615(4) 0.612(4) 0.674(2)
H7 H 0.848(3) 0.159(3) 0.3894(18)
H8 H 0.592(3) 0.110(3) 0.6575(19)

#END
