
#######################################################################
#
#                 Cambridge Crystallographic Data Centre
#                                CCDC 
#
#######################################################################
#
# If this CIF has been generated from an entry in the Cambridge 
# Structural Database, then it will include bibliographic, chemical, 
# crystal, experimental, refinement or atomic coordinate data resulting 
# from the CCDC's data processing and validation procedures.
#
#######################################################################

data_AACFAZ10
_symmetry_cell_setting           orthorhombic
_symmetry_space_group_name_H-M   'P b c n'
_symmetry_Int_Tables_number      60
_space_group_name_Hall           '-P 2n 2ab'
loop_
_symmetry_equiv_pos_site_id
_symmetry_equiv_pos_as_xyz
1 x,y,z
2 1/2-x,1/2-y,1/2+z
3 1/2+x,1/2-y,-z
4 -x,y,1/2-z
5 -x,-y,-z
6 1/2+x,1/2+y,1/2-z
7 1/2-x,1/2+y,z
8 x,-y,1/2+z
_cell_length_a                   20.132(4)
_cell_length_b                   6.162(1)
_cell_length_c                   19.954(3)
_cell_angle_alpha                90
_cell_angle_beta                 90
_cell_angle_gamma                90
_cell_volume                     2475.36
loop_
_atom_site_label
_atom_site_type_symbol
_atom_site_fract_x
_atom_site_fract_y
_atom_site_fract_z
Cl1 Cl 0.47060 1.02730 0.33580
C1 C 0.41150 0.82580 0.34520
C2 C 0.37970 0.79280 0.40600
C3 C 0.33310 0.63010 0.41020
C4 C 0.31860 0.49900 0.35580
C5 C 0.35250 0.53030 0.29640
C6 C 0.39960 0.69530 0.29050
C7 C 0.39690 0.93120 0.46620
C8 C 0.39710 0.81720 0.53280
C9 C 0.44000 0.63090 0.54410
N1 N 0.48000 0.58940 0.49490
C10 C 0.43510 0.50330 0.60740
C11 C 0.35500 0.92050 0.57370
C12 C 0.32330 1.10060 0.53700
C13 C 0.29810 0.99400 0.67690
O1 O 0.34430 0.87220 0.63850
O2 O 0.28360 1.23460 0.55520
O3 O 0.34650 1.10000 0.47370
H1 H 0.30700 0.60000 0.45500
H2 H 0.28200 0.38400 0.35800
H3 H 0.34300 0.43000 0.25700
H4 H 0.42800 0.72500 0.24500
H5 H 0.44100 1.00900 0.45800
H6 H 0.45500 0.35900 0.60400
H7 H 0.44100 0.57700 0.65100
H8 H 0.39400 0.50000 0.62500
H9 H 0.29700 0.94100 0.72500
H10 H 0.30900 1.15100 0.68400
H11 H 0.25300 1.00900 0.65300
N1D N 0.52000 0.41060 0.50510
C9D C 0.56000 0.36910 0.45590
C8D C 0.60290 0.18280 0.46720
C10D C 0.56490 0.49670 0.39260
C7D C 0.60310 0.06880 0.53380
C11D C 0.64500 0.07950 0.42630
H6D H 0.54500 0.64100 0.39600
H7D H 0.55900 0.42300 0.34900
H8D H 0.60600 0.50000 0.37500
C2D C 0.62030 0.20720 0.59400
O3D O 0.65350 -0.10000 0.52630
H5D H 0.55900 -0.00900 0.54200
C12D C 0.67670 -0.10060 0.46300
O1D O 0.65570 0.12780 0.36150
C1D C 0.58850 0.17420 0.65480
C3D C 0.66690 0.36990 0.58980
O2D O 0.71640 -0.23460 0.44480
C13D C 0.70190 0.00600 0.32310
Cl1D Cl 0.52940 -0.02730 0.66420
C6D C 0.60040 0.30470 0.70950
C4D C 0.68140 0.50100 0.64420
H1D H 0.69300 0.40000 0.54500
H9D H 0.70300 0.05900 0.27500
H10D H 0.69100 -0.15100 0.31600
H11D H 0.74700 -0.00900 0.34700
C5D C 0.64750 0.46970 0.70360
H4D H 0.57200 0.27500 0.75500
H2D H 0.71800 0.61600 0.64200
H3D H 0.65700 0.57000 0.74300
Cl1 Cl 0.02940 -0.52730 -0.16420
C1 C 0.08850 -0.32580 -0.15480
C2 C 0.12030 -0.29280 -0.09400
C3 C 0.16690 -0.13010 -0.08980
C4 C 0.18140 0.00100 -0.14420
C5 C 0.14750 -0.03030 -0.20360
C6 C 0.10040 -0.19530 -0.20950
C7 C 0.10310 -0.43120 -0.03380
C8 C 0.10290 -0.31720 0.03280
C9 C 0.06000 -0.13090 0.04410
N1 N 0.02000 -0.08940 -0.00510
C10 C 0.06490 -0.00330 0.10740
C11 C 0.14500 -0.42050 0.07370
C12 C 0.17670 -0.60060 0.03700
C13 C 0.20190 -0.49400 0.17690
O1 O 0.15570 -0.37220 0.13850
O2 O 0.21640 -0.73460 0.05520
O3 O 0.15350 -0.60000 -0.02630
H1 H 0.19300 -0.10000 -0.04500
H2 H 0.21800 0.11600 -0.14200
H3 H 0.15700 0.07000 -0.24300
H4 H 0.07200 -0.22500 -0.25500
H5 H 0.05900 -0.50900 -0.04200
H6 H 0.04500 0.14100 0.10400
H7 H 0.05900 -0.07700 0.15100
H8 H 0.10600 0.00000 0.12500
H9 H 0.20300 -0.44100 0.22500
H10 H 0.19100 -0.65100 0.18400
H11 H 0.24700 -0.50900 0.15300
N1D N -0.02000 0.08940 0.00510
C9D C -0.06000 0.13090 -0.04410
C8D C -0.10290 0.31720 -0.03280
C10D C -0.06490 0.00330 -0.10740
C7D C -0.10310 0.43120 0.03380
C11D C -0.14500 0.42050 -0.07370
H6D H -0.04500 -0.14100 -0.10400
H7D H -0.05900 0.07700 -0.15100
H8D H -0.10600 0.00000 -0.12500
C2D C -0.12030 0.29280 0.09400
O3D O -0.15350 0.60000 0.02630
H5D H -0.05900 0.50900 0.04200
C12D C -0.17670 0.60060 -0.03700
O1D O -0.15570 0.37220 -0.13850
C1D C -0.08850 0.32580 0.15480
C3D C -0.16690 0.13010 0.08980
O2D O -0.21640 0.73460 -0.05520
C13D C -0.20190 0.49400 -0.17690
Cl1D Cl -0.02940 0.52730 0.16420
C6D C -0.10040 0.19530 0.20950
C4D C -0.18140 -0.00100 0.14420
H1D H -0.19300 0.10000 0.04500
H9D H -0.20300 0.44100 -0.22500
H10D H -0.19100 0.65100 -0.18400
H11D H -0.24700 0.50900 -0.15300
C5D C -0.14750 0.03030 0.20360
H4D H -0.07200 0.22500 0.25500
H2D H -0.21800 -0.11600 0.14200
H3D H -0.15700 -0.07000 0.24300
Cl1 Cl 0.02940 -0.52730 0.83580
C1 C 0.08850 -0.32580 0.84520
C2 C 0.12030 -0.29280 0.90600
C3 C 0.16690 -0.13010 0.91020
C4 C 0.18140 0.00100 0.85580
C5 C 0.14750 -0.03030 0.79640
C6 C 0.10040 -0.19530 0.79050
C7 C 0.10310 -0.43120 0.96620
C8 C 0.10290 -0.31720 1.03280
C9 C 0.06000 -0.13090 1.04410
N1 N 0.02000 -0.08940 0.99490
C10 C 0.06490 -0.00330 1.10740
C11 C 0.14500 -0.42050 1.07370
C12 C 0.17670 -0.60060 1.03700
C13 C 0.20190 -0.49400 1.17690
O1 O 0.15570 -0.37220 1.13850
O2 O 0.21640 -0.73460 1.05520
O3 O 0.15350 -0.60000 0.97370
H1 H 0.19300 -0.10000 0.95500
H2 H 0.21800 0.11600 0.85800
H3 H 0.15700 0.07000 0.75700
H4 H 0.07200 -0.22500 0.74500
H5 H 0.05900 -0.50900 0.95800
H6 H 0.04500 0.14100 1.10400
H7 H 0.05900 -0.07700 1.15100
H8 H 0.10600 0.00000 1.12500
H9 H 0.20300 -0.44100 1.22500
H10 H 0.19100 -0.65100 1.18400
H11 H 0.24700 -0.50900 1.15300
N1D N -0.02000 0.08940 1.00510
C9D C -0.06000 0.13090 0.95590
C8D C -0.10290 0.31720 0.96720
C10D C -0.06490 0.00330 0.89260
C7D C -0.10310 0.43120 1.03380
C11D C -0.14500 0.42050 0.92630
H6D H -0.04500 -0.14100 0.89600
H7D H -0.05900 0.07700 0.84900
H8D H -0.10600 0.00000 0.87500
C2D C -0.12030 0.29280 1.09400
O3D O -0.15350 0.60000 1.02630
H5D H -0.05900 0.50900 1.04200
C12D C -0.17670 0.60060 0.96300
O1D O -0.15570 0.37220 0.86150
C1D C -0.08850 0.32580 1.15480
C3D C -0.16690 0.13010 1.08980
O2D O -0.21640 0.73460 0.94480
C13D C -0.20190 0.49400 0.82310
Cl1D Cl -0.02940 0.52730 1.16420
C6D C -0.10040 0.19530 1.20950
C4D C -0.18140 -0.00100 1.14420
H1D H -0.19300 0.10000 1.04500
H9D H -0.20300 0.44100 0.77500
H10D H -0.19100 0.65100 0.81600
H11D H -0.24700 0.50900 0.84700
C5D C -0.14750 0.03030 1.20360
H4D H -0.07200 0.22500 1.25500
H2D H -0.21800 -0.11600 1.14200
H3D H -0.15700 -0.07000 1.24300
Cl1 Cl 0.02940 0.47270 -0.16420
C1 C 0.08850 0.67420 -0.15480
C2 C 0.12030 0.70720 -0.09400
C3 C 0.16690 0.86990 -0.08980
C4 C 0.18140 1.00100 -0.14420
C5 C 0.14750 0.96970 -0.20360
C6 C 0.10040 0.80470 -0.20950
C7 C 0.10310 0.56880 -0.03380
C8 C 0.10290 0.68280 0.03280
C9 C 0.06000 0.86910 0.04410
N1 N 0.02000 0.91060 -0.00510
C10 C 0.06490 0.99670 0.10740
C11 C 0.14500 0.57950 0.07370
C12 C 0.17670 0.39940 0.03700
C13 C 0.20190 0.50600 0.17690
O1 O 0.15570 0.62780 0.13850
O2 O 0.21640 0.26540 0.05520
O3 O 0.15350 0.40000 -0.02630
H1 H 0.19300 0.90000 -0.04500
H2 H 0.21800 1.11600 -0.14200
H3 H 0.15700 1.07000 -0.24300
H4 H 0.07200 0.77500 -0.25500
H5 H 0.05900 0.49100 -0.04200
H6 H 0.04500 1.14100 0.10400
H7 H 0.05900 0.92300 0.15100
H8 H 0.10600 1.00000 0.12500
H9 H 0.20300 0.55900 0.22500
H10 H 0.19100 0.34900 0.18400
H11 H 0.24700 0.49100 0.15300
N1D N -0.02000 1.08940 0.00510
C9D C -0.06000 1.13090 -0.04410
C8D C -0.10290 1.31720 -0.03280
C10D C -0.06490 1.00330 -0.10740
C7D C -0.10310 1.43120 0.03380
C11D C -0.14500 1.42050 -0.07370
H6D H -0.04500 0.85900 -0.10400
H7D H -0.05900 1.07700 -0.15100
H8D H -0.10600 1.00000 -0.12500
C2D C -0.12030 1.29280 0.09400
O3D O -0.15350 1.60000 0.02630
H5D H -0.05900 1.50900 0.04200
C12D C -0.17670 1.60060 -0.03700
O1D O -0.15570 1.37220 -0.13850
C1D C -0.08850 1.32580 0.15480
C3D C -0.16690 1.13010 0.08980
O2D O -0.21640 1.73460 -0.05520
C13D C -0.20190 1.49400 -0.17690
Cl1D Cl -0.02940 1.52730 0.16420
C6D C -0.10040 1.19530 0.20950
C4D C -0.18140 0.99900 0.14420
H1D H -0.19300 1.10000 0.04500
H9D H -0.20300 1.44100 -0.22500
H10D H -0.19100 1.65100 -0.18400
H11D H -0.24700 1.50900 -0.15300
C5D C -0.14750 1.03030 0.20360
H4D H -0.07200 1.22500 0.25500
H2D H -0.21800 0.88400 0.14200
H3D H -0.15700 0.93000 0.24300
Cl1 Cl 0.02940 0.47270 0.83580
C1 C 0.08850 0.67420 0.84520
C2 C 0.12030 0.70720 0.90600
C3 C 0.16690 0.86990 0.91020
C4 C 0.18140 1.00100 0.85580
C5 C 0.14750 0.96970 0.79640
C6 C 0.10040 0.80470 0.79050
C7 C 0.10310 0.56880 0.96620
C8 C 0.10290 0.68280 1.03280
C9 C 0.06000 0.86910 1.04410
N1 N 0.02000 0.91060 0.99490
C10 C 0.06490 0.99670 1.10740
C11 C 0.14500 0.57950 1.07370
C12 C 0.17670 0.39940 1.03700
C13 C 0.20190 0.50600 1.17690
O1 O 0.15570 0.62780 1.13850
O2 O 0.21640 0.26540 1.05520
O3 O 0.15350 0.40000 0.97370
H1 H 0.19300 0.90000 0.95500
H2 H 0.21800 1.11600 0.85800
H3 H 0.15700 1.07000 0.75700
H4 H 0.07200 0.77500 0.74500
H5 H 0.05900 0.49100 0.95800
H6 H 0.04500 1.14100 1.10400
H7 H 0.05900 0.92300 1.15100
H8 H 0.10600 1.00000 1.12500
H9 H 0.20300 0.55900 1.22500
H10 H 0.19100 0.34900 1.18400
H11 H 0.24700 0.49100 1.15300
N1D N -0.02000 1.08940 1.00510
C9D C -0.06000 1.13090 0.95590
C8D C -0.10290 1.31720 0.96720
C10D C -0.06490 1.00330 0.89260
C7D C -0.10310 1.43120 1.03380
C11D C -0.14500 1.42050 0.92630
H6D H -0.04500 0.85900 0.89600
H7D H -0.05900 1.07700 0.84900
H8D H -0.10600 1.00000 0.87500
C2D C -0.12030 1.29280 1.09400
O3D O -0.15350 1.60000 1.02630
H5D H -0.05900 1.50900 1.04200
C12D C -0.17670 1.60060 0.96300
O1D O -0.15570 1.37220 0.86150
C1D C -0.08850 1.32580 1.15480
C3D C -0.16690 1.13010 1.08980
O2D O -0.21640 1.73460 0.94480
C13D C -0.20190 1.49400 0.82310
Cl1D Cl -0.02940 1.52730 1.16420
C6D C -0.10040 1.19530 1.20950
C4D C -0.18140 0.99900 1.14420
H1D H -0.19300 1.10000 1.04500
H9D H -0.20300 1.44100 0.77500
H10D H -0.19100 1.65100 0.81600
H11D H -0.24700 1.50900 0.84700
C5D C -0.14750 1.03030 1.20360
H4D H -0.07200 1.22500 1.25500
H2D H -0.21800 0.88400 1.14200
H3D H -0.15700 0.93000 1.24300
Cl1 Cl 1.02940 -0.52730 -0.16420
C1 C 1.08850 -0.32580 -0.15480
C2 C 1.12030 -0.29280 -0.09400
C3 C 1.16690 -0.13010 -0.08980
C4 C 1.18140 0.00100 -0.14420
C5 C 1.14750 -0.03030 -0.20360
C6 C 1.10040 -0.19530 -0.20950
C7 C 1.10310 -0.43120 -0.03380
C8 C 1.10290 -0.31720 0.03280
C9 C 1.06000 -0.13090 0.04410
N1 N 1.02000 -0.08940 -0.00510
C10 C 1.06490 -0.00330 0.10740
C11 C 1.14500 -0.42050 0.07370
C12 C 1.17670 -0.60060 0.03700
C13 C 1.20190 -0.49400 0.17690
O1 O 1.15570 -0.37220 0.13850
O2 O 1.21640 -0.73460 0.05520
O3 O 1.15350 -0.60000 -0.02630
H1 H 1.19300 -0.10000 -0.04500
H2 H 1.21800 0.11600 -0.14200
H3 H 1.15700 0.07000 -0.24300
H4 H 1.07200 -0.22500 -0.25500
H5 H 1.05900 -0.50900 -0.04200
H6 H 1.04500 0.14100 0.10400
H7 H 1.05900 -0.07700 0.15100
H8 H 1.10600 0.00000 0.12500
H9 H 1.20300 -0.44100 0.22500
H10 H 1.19100 -0.65100 0.18400
H11 H 1.24700 -0.50900 0.15300
N1D N 0.98000 0.08940 0.00510
C9D C 0.94000 0.13090 -0.04410
C8D C 0.89710 0.31720 -0.03280
C10D C 0.93510 0.00330 -0.10740
C7D C 0.89690 0.43120 0.03380
C11D C 0.85500 0.42050 -0.07370
H6D H 0.95500 -0.14100 -0.10400
H7D H 0.94100 0.07700 -0.15100
H8D H 0.89400 0.00000 -0.12500
C2D C 0.87970 0.29280 0.09400
O3D O 0.84650 0.60000 0.02630
H5D H 0.94100 0.50900 0.04200
C12D C 0.82330 0.60060 -0.03700
O1D O 0.84430 0.37220 -0.13850
C1D C 0.91150 0.32580 0.15480
C3D C 0.83310 0.13010 0.08980
O2D O 0.78360 0.73460 -0.05520
C13D C 0.79810 0.49400 -0.17690
Cl1D Cl 0.97060 0.52730 0.16420
C6D C 0.89960 0.19530 0.20950
C4D C 0.81860 -0.00100 0.14420
H1D H 0.80700 0.10000 0.04500
H9D H 0.79700 0.44100 -0.22500
H10D H 0.80900 0.65100 -0.18400
H11D H 0.75300 0.50900 -0.15300
C5D C 0.85250 0.03030 0.20360
H4D H 0.92800 0.22500 0.25500
H2D H 0.78200 -0.11600 0.14200
H3D H 0.84300 -0.07000 0.24300
Cl1 Cl 1.02940 -0.52730 0.83580
C1 C 1.08850 -0.32580 0.84520
C2 C 1.12030 -0.29280 0.90600
C3 C 1.16690 -0.13010 0.91020
C4 C 1.18140 0.00100 0.85580
C5 C 1.14750 -0.03030 0.79640
C6 C 1.10040 -0.19530 0.79050
C7 C 1.10310 -0.43120 0.96620
C8 C 1.10290 -0.31720 1.03280
C9 C 1.06000 -0.13090 1.04410
N1 N 1.02000 -0.08940 0.99490
C10 C 1.06490 -0.00330 1.10740
C11 C 1.14500 -0.42050 1.07370
C12 C 1.17670 -0.60060 1.03700
C13 C 1.20190 -0.49400 1.17690
O1 O 1.15570 -0.37220 1.13850
O2 O 1.21640 -0.73460 1.05520
O3 O 1.15350 -0.60000 0.97370
H1 H 1.19300 -0.10000 0.95500
H2 H 1.21800 0.11600 0.85800
H3 H 1.15700 0.07000 0.75700
H4 H 1.07200 -0.22500 0.74500
H5 H 1.05900 -0.50900 0.95800
H6 H 1.04500 0.14100 1.10400
H7 H 1.05900 -0.07700 1.15100
H8 H 1.10600 0.00000 1.12500
H9 H 1.20300 -0.44100 1.22500
H10 H 1.19100 -0.65100 1.18400
H11 H 1.24700 -0.50900 1.15300
N1D N 0.98000 0.08940 1.00510
C9D C 0.94000 0.13090 0.95590
C8D C 0.89710 0.31720 0.96720
C10D C 0.93510 0.00330 0.89260
C7D C 0.89690 0.43120 1.03380
C11D C 0.85500 0.42050 0.92630
H6D H 0.95500 -0.14100 0.89600
H7D H 0.94100 0.07700 0.84900
H8D H 0.89400 0.00000 0.87500
C2D C 0.87970 0.29280 1.09400
O3D O 0.84650 0.60000 1.02630
H5D H 0.94100 0.50900 1.04200
C12D C 0.82330 0.60060 0.96300
O1D O 0.84430 0.37220 0.86150
C1D C 0.91150 0.32580 1.15480
C3D C 0.83310 0.13010 1.08980
O2D O 0.78360 0.73460 0.94480
C13D C 0.79810 0.49400 0.82310
Cl1D Cl 0.97060 0.52730 1.16420
C6D C 0.89960 0.19530 1.20950
C4D C 0.81860 -0.00100 1.14420
H1D H 0.80700 0.10000 1.04500
H9D H 0.79700 0.44100 0.77500
H10D H 0.80900 0.65100 0.81600
H11D H 0.75300 0.50900 0.84700
C5D C 0.85250 0.03030 1.20360
H4D H 0.92800 0.22500 1.25500
H2D H 0.78200 -0.11600 1.14200
H3D H 0.84300 -0.07000 1.24300
Cl1 Cl 1.02940 0.47270 -0.16420
C1 C 1.08850 0.67420 -0.15480
C2 C 1.12030 0.70720 -0.09400
C3 C 1.16690 0.86990 -0.08980
C4 C 1.18140 1.00100 -0.14420
C5 C 1.14750 0.96970 -0.20360
C6 C 1.10040 0.80470 -0.20950
C7 C 1.10310 0.56880 -0.03380
C8 C 1.10290 0.68280 0.03280
C9 C 1.06000 0.86910 0.04410
N1 N 1.02000 0.91060 -0.00510
C10 C 1.06490 0.99670 0.10740
C11 C 1.14500 0.57950 0.07370
C12 C 1.17670 0.39940 0.03700
C13 C 1.20190 0.50600 0.17690
O1 O 1.15570 0.62780 0.13850
O2 O 1.21640 0.26540 0.05520
O3 O 1.15350 0.40000 -0.02630
H1 H 1.19300 0.90000 -0.04500
H2 H 1.21800 1.11600 -0.14200
H3 H 1.15700 1.07000 -0.24300
H4 H 1.07200 0.77500 -0.25500
H5 H 1.05900 0.49100 -0.04200
H6 H 1.04500 1.14100 0.10400
H7 H 1.05900 0.92300 0.15100
H8 H 1.10600 1.00000 0.12500
H9 H 1.20300 0.55900 0.22500
H10 H 1.19100 0.34900 0.18400
H11 H 1.24700 0.49100 0.15300
N1D N 0.98000 1.08940 0.00510
C9D C 0.94000 1.13090 -0.04410
C8D C 0.89710 1.31720 -0.03280
C10D C 0.93510 1.00330 -0.10740
C7D C 0.89690 1.43120 0.03380
C11D C 0.85500 1.42050 -0.07370
H6D H 0.95500 0.85900 -0.10400
H7D H 0.94100 1.07700 -0.15100
H8D H 0.89400 1.00000 -0.12500
C2D C 0.87970 1.29280 0.09400
O3D O 0.84650 1.60000 0.02630
H5D H 0.94100 1.50900 0.04200
C12D C 0.82330 1.60060 -0.03700
O1D O 0.84430 1.37220 -0.13850
C1D C 0.91150 1.32580 0.15480
C3D C 0.83310 1.13010 0.08980
O2D O 0.78360 1.73460 -0.05520
C13D C 0.79810 1.49400 -0.17690
Cl1D Cl 0.97060 1.52730 0.16420
C6D C 0.89960 1.19530 0.20950
C4D C 0.81860 0.99900 0.14420
H1D H 0.80700 1.10000 0.04500
H9D H 0.79700 1.44100 -0.22500
H10D H 0.80900 1.65100 -0.18400
H11D H 0.75300 1.50900 -0.15300
C5D C 0.85250 1.03030 0.20360
H4D H 0.92800 1.22500 0.25500
H2D H 0.78200 0.88400 0.14200
H3D H 0.84300 0.93000 0.24300
Cl1 Cl 1.02940 0.47270 0.83580
C1 C 1.08850 0.67420 0.84520
C2 C 1.12030 0.70720 0.90600
C3 C 1.16690 0.86990 0.91020
C4 C 1.18140 1.00100 0.85580
C5 C 1.14750 0.96970 0.79640
C6 C 1.10040 0.80470 0.79050
C7 C 1.10310 0.56880 0.96620
C8 C 1.10290 0.68280 1.03280
C9 C 1.06000 0.86910 1.04410
N1 N 1.02000 0.91060 0.99490
C10 C 1.06490 0.99670 1.10740
C11 C 1.14500 0.57950 1.07370
C12 C 1.17670 0.39940 1.03700
C13 C 1.20190 0.50600 1.17690
O1 O 1.15570 0.62780 1.13850
O2 O 1.21640 0.26540 1.05520
O3 O 1.15350 0.40000 0.97370
H1 H 1.19300 0.90000 0.95500
H2 H 1.21800 1.11600 0.85800
H3 H 1.15700 1.07000 0.75700
H4 H 1.07200 0.77500 0.74500
H5 H 1.05900 0.49100 0.95800
H6 H 1.04500 1.14100 1.10400
H7 H 1.05900 0.92300 1.15100
H8 H 1.10600 1.00000 1.12500
H9 H 1.20300 0.55900 1.22500
H10 H 1.19100 0.34900 1.18400
H11 H 1.24700 0.49100 1.15300
N1D N 0.98000 1.08940 1.00510
C9D C 0.94000 1.13090 0.95590
C8D C 0.89710 1.31720 0.96720
C10D C 0.93510 1.00330 0.89260
C7D C 0.89690 1.43120 1.03380
C11D C 0.85500 1.42050 0.92630
H6D H 0.95500 0.85900 0.89600
H7D H 0.94100 1.07700 0.84900
H8D H 0.89400 1.00000 0.87500
C2D C 0.87970 1.29280 1.09400
O3D O 0.84650 1.60000 1.02630
H5D H 0.94100 1.50900 1.04200
C12D C 0.82330 1.60060 0.96300
O1D O 0.84430 1.37220 0.86150
C1D C 0.91150 1.32580 1.15480
C3D C 0.83310 1.13010 1.08980
O2D O 0.78360 1.73460 0.94480
C13D C 0.79810 1.49400 0.82310
Cl1D Cl 0.97060 1.52730 1.16420
C6D C 0.89960 1.19530 1.20950
C4D C 0.81860 0.99900 1.14420
H1D H 0.80700 1.10000 1.04500
H9D H 0.79700 1.44100 0.77500
H10D H 0.80900 1.65100 0.81600
H11D H 0.75300 1.50900 0.84700
C5D C 0.85250 1.03030 1.20360
H4D H 0.92800 1.22500 1.25500
H2D H 0.78200 0.88400 1.14200
H3D H 0.84300 0.93000 1.24300
Cl1 Cl -0.02940 -0.52730 0.66420
C1 C -0.08850 -0.32580 0.65480
C2 C -0.12030 -0.29280 0.59400
C3 C -0.16690 -0.13010 0.58980
C4 C -0.18140 0.00100 0.64420
C5 C -0.14750 -0.03030 0.70360
C6 C -0.10040 -0.19530 0.70950
C7 C -0.10310 -0.43120 0.53380
C8 C -0.10290 -0.31720 0.46720
C9 C -0.06000 -0.13090 0.45590
N1 N -0.02000 -0.08940 0.50510
C10 C -0.06490 -0.00330 0.39260
C11 C -0.14500 -0.42050 0.42630
C12 C -0.17670 -0.60060 0.46300
C13 C -0.20190 -0.49400 0.32310
O1 O -0.15570 -0.37220 0.36150
O2 O -0.21640 -0.73460 0.44480
O3 O -0.15350 -0.60000 0.52630
H1 H -0.19300 -0.10000 0.54500
H2 H -0.21800 0.11600 0.64200
H3 H -0.15700 0.07000 0.74300
H4 H -0.07200 -0.22500 0.75500
H5 H -0.05900 -0.50900 0.54200
H6 H -0.04500 0.14100 0.39600
H7 H -0.05900 -0.07700 0.34900
H8 H -0.10600 0.00000 0.37500
H9 H -0.20300 -0.44100 0.27500
H10 H -0.19100 -0.65100 0.31600
H11 H -0.24700 -0.50900 0.34700
N1D N 0.02000 0.08940 0.49490
C9D C 0.06000 0.13090 0.54410
C8D C 0.10290 0.31720 0.53280
C10D C 0.06490 0.00330 0.60740
C7D C 0.10310 0.43120 0.46620
C11D C 0.14500 0.42050 0.57370
H6D H 0.04500 -0.14100 0.60400
H7D H 0.05900 0.07700 0.65100
H8D H 0.10600 0.00000 0.62500
C2D C 0.12030 0.29280 0.40600
O3D O 0.15350 0.60000 0.47370
H5D H 0.05900 0.50900 0.45800
C12D C 0.17670 0.60060 0.53700
O1D O 0.15570 0.37220 0.63850
C1D C 0.08850 0.32580 0.34520
C3D C 0.16690 0.13010 0.41020
O2D O 0.21640 0.73460 0.55520
C13D C 0.20190 0.49400 0.67690
Cl1D Cl 0.02940 0.52730 0.33580
C6D C 0.10040 0.19530 0.29050
C4D C 0.18140 -0.00100 0.35580
H1D H 0.19300 0.10000 0.45500
H9D H 0.20300 0.44100 0.72500
H10D H 0.19100 0.65100 0.68400
H11D H 0.24700 0.50900 0.65300
C5D C 0.14750 0.03030 0.29640
H4D H 0.07200 0.22500 0.24500
H2D H 0.21800 -0.11600 0.35800
H3D H 0.15700 -0.07000 0.25700
Cl1 Cl -0.02940 0.47270 0.66420
C1 C -0.08850 0.67420 0.65480
C2 C -0.12030 0.70720 0.59400
C3 C -0.16690 0.86990 0.58980
C4 C -0.18140 1.00100 0.64420
C5 C -0.14750 0.96970 0.70360
C6 C -0.10040 0.80470 0.70950
C7 C -0.10310 0.56880 0.53380
C8 C -0.10290 0.68280 0.46720
C9 C -0.06000 0.86910 0.45590
N1 N -0.02000 0.91060 0.50510
C10 C -0.06490 0.99670 0.39260
C11 C -0.14500 0.57950 0.42630
C12 C -0.17670 0.39940 0.46300
C13 C -0.20190 0.50600 0.32310
O1 O -0.15570 0.62780 0.36150
O2 O -0.21640 0.26540 0.44480
O3 O -0.15350 0.40000 0.52630
H1 H -0.19300 0.90000 0.54500
H2 H -0.21800 1.11600 0.64200
H3 H -0.15700 1.07000 0.74300
H4 H -0.07200 0.77500 0.75500
H5 H -0.05900 0.49100 0.54200
H6 H -0.04500 1.14100 0.39600
H7 H -0.05900 0.92300 0.34900
H8 H -0.10600 1.00000 0.37500
H9 H -0.20300 0.55900 0.27500
H10 H -0.19100 0.34900 0.31600
H11 H -0.24700 0.49100 0.34700
N1D N 0.02000 1.08940 0.49490
C9D C 0.06000 1.13090 0.54410
C8D C 0.10290 1.31720 0.53280
C10D C 0.06490 1.00330 0.60740
C7D C 0.10310 1.43120 0.46620
C11D C 0.14500 1.42050 0.57370
H6D H 0.04500 0.85900 0.60400
H7D H 0.05900 1.07700 0.65100
H8D H 0.10600 1.00000 0.62500
C2D C 0.12030 1.29280 0.40600
O3D O 0.15350 1.60000 0.47370
H5D H 0.05900 1.50900 0.45800
C12D C 0.17670 1.60060 0.53700
O1D O 0.15570 1.37220 0.63850
C1D C 0.08850 1.32580 0.34520
C3D C 0.16690 1.13010 0.41020
O2D O 0.21640 1.73460 0.55520
C13D C 0.20190 1.49400 0.67690
Cl1D Cl 0.02940 1.52730 0.33580
C6D C 0.10040 1.19530 0.29050
C4D C 0.18140 0.99900 0.35580
H1D H 0.19300 1.10000 0.45500
H9D H 0.20300 1.44100 0.72500
H10D H 0.19100 1.65100 0.68400
H11D H 0.24700 1.50900 0.65300
C5D C 0.14750 1.03030 0.29640
H4D H 0.07200 1.22500 0.24500
H2D H 0.21800 0.88400 0.35800
H3D H 0.15700 0.93000 0.25700
Cl1 Cl 0.97060 -0.52730 0.66420
C1 C 0.91150 -0.32580 0.65480
C2 C 0.87970 -0.29280 0.59400
C3 C 0.83310 -0.13010 0.58980
C4 C 0.81860 0.00100 0.64420
C5 C 0.85250 -0.03030 0.70360
C6 C 0.89960 -0.19530 0.70950
C7 C 0.89690 -0.43120 0.53380
C8 C 0.89710 -0.31720 0.46720
C9 C 0.94000 -0.13090 0.45590
N1 N 0.98000 -0.08940 0.50510
C10 C 0.93510 -0.00330 0.39260
C11 C 0.85500 -0.42050 0.42630
C12 C 0.82330 -0.60060 0.46300
C13 C 0.79810 -0.49400 0.32310
O1 O 0.84430 -0.37220 0.36150
O2 O 0.78360 -0.73460 0.44480
O3 O 0.84650 -0.60000 0.52630
H1 H 0.80700 -0.10000 0.54500
H2 H 0.78200 0.11600 0.64200
H3 H 0.84300 0.07000 0.74300
H4 H 0.92800 -0.22500 0.75500
H5 H 0.94100 -0.50900 0.54200
H6 H 0.95500 0.14100 0.39600
H7 H 0.94100 -0.07700 0.34900
H8 H 0.89400 0.00000 0.37500
H9 H 0.79700 -0.44100 0.27500
H10 H 0.80900 -0.65100 0.31600
H11 H 0.75300 -0.50900 0.34700
N1D N 1.02000 0.08940 0.49490
C9D C 1.06000 0.13090 0.54410
C8D C 1.10290 0.31720 0.53280
C10D C 1.06490 0.00330 0.60740
C7D C 1.10310 0.43120 0.46620
C11D C 1.14500 0.42050 0.57370
H6D H 1.04500 -0.14100 0.60400
H7D H 1.05900 0.07700 0.65100
H8D H 1.10600 0.00000 0.62500
C2D C 1.12030 0.29280 0.40600
O3D O 1.15350 0.60000 0.47370
H5D H 1.05900 0.50900 0.45800
C12D C 1.17670 0.60060 0.53700
O1D O 1.15570 0.37220 0.63850
C1D C 1.08850 0.32580 0.34520
C3D C 1.16690 0.13010 0.41020
O2D O 1.21640 0.73460 0.55520
C13D C 1.20190 0.49400 0.67690
Cl1D Cl 1.02940 0.52730 0.33580
C6D C 1.10040 0.19530 0.29050
C4D C 1.18140 -0.00100 0.35580
H1D H 1.19300 0.10000 0.45500
H9D H 1.20300 0.44100 0.72500
H10D H 1.19100 0.65100 0.68400
H11D H 1.24700 0.50900 0.65300
C5D C 1.14750 0.03030 0.29640
H4D H 1.07200 0.22500 0.24500
H2D H 1.21800 -0.11600 0.35800
H3D H 1.15700 -0.07000 0.25700
Cl1 Cl 0.97060 0.47270 0.66420
C1 C 0.91150 0.67420 0.65480
C2 C 0.87970 0.70720 0.59400
C3 C 0.83310 0.86990 0.58980
C4 C 0.81860 1.00100 0.64420
C5 C 0.85250 0.96970 0.70360
C6 C 0.89960 0.80470 0.70950
C7 C 0.89690 0.56880 0.53380
C8 C 0.89710 0.68280 0.46720
C9 C 0.94000 0.86910 0.45590
N1 N 0.98000 0.91060 0.50510
C10 C 0.93510 0.99670 0.39260
C11 C 0.85500 0.57950 0.42630
C12 C 0.82330 0.39940 0.46300
C13 C 0.79810 0.50600 0.32310
O1 O 0.84430 0.62780 0.36150
O2 O 0.78360 0.26540 0.44480
O3 O 0.84650 0.40000 0.52630
H1 H 0.80700 0.90000 0.54500
H2 H 0.78200 1.11600 0.64200
H3 H 0.84300 1.07000 0.74300
H4 H 0.92800 0.77500 0.75500
H5 H 0.94100 0.49100 0.54200
H6 H 0.95500 1.14100 0.39600
H7 H 0.94100 0.92300 0.34900
H8 H 0.89400 1.00000 0.37500
H9 H 0.79700 0.55900 0.27500
H10 H 0.80900 0.34900 0.31600
H11 H 0.75300 0.49100 0.34700
N1D N 1.02000 1.08940 0.49490
C9D C 1.06000 1.13090 0.54410
C8D C 1.10290 1.31720 0.53280
C10D C 1.06490 1.00330 0.60740
C7D C 1.10310 1.43120 0.46620
C11D C 1.14500 1.42050 0.57370
H6D H 1.04500 0.85900 0.60400
H7D H 1.05900 1.07700 0.65100
H8D H 1.10600 1.00000 0.62500
C2D C 1.12030 1.29280 0.40600
O3D O 1.15350 1.60000 0.47370
H5D H 1.05900 1.50900 0.45800
C12D C 1.17670 1.60060 0.53700
O1D O 1.15570 1.37220 0.63850
C1D C 1.08850 1.32580 0.34520
C3D C 1.16690 1.13010 0.41020
O2D O 1.21640 1.73460 0.55520
C13D C 1.20190 1.49400 0.67690
Cl1D Cl 1.02940 1.52730 0.33580
C6D C 1.10040 1.19530 0.29050
C4D C 1.18140 0.99900 0.35580
H1D H 1.19300 1.10000 0.45500
H9D H 1.20300 1.44100 0.72500
H10D H 1.19100 1.65100 0.68400
H11D H 1.24700 1.50900 0.65300
C5D C 1.14750 1.03030 0.29640
H4D H 1.07200 1.22500 0.24500
H2D H 1.21800 0.88400 0.35800
H3D H 1.15700 0.93000 0.25700
Cl1 Cl 0.52940 1.02730 0.16420
C1 C 0.58850 0.82580 0.15480
C2 C 0.62030 0.79280 0.09400
C3 C 0.66690 0.63010 0.08980
C4 C 0.68140 0.49900 0.14420
C5 C 0.64750 0.53030 0.20360
C6 C 0.60040 0.69530 0.20950
C7 C 0.60310 0.93120 0.03380
C8 C 0.60290 0.81720 -0.03280
C9 C 0.56000 0.63090 -0.04410
N1 N 0.52000 0.58940 0.00510
C10 C 0.56490 0.50330 -0.10740
C11 C 0.64500 0.92050 -0.07370
C12 C 0.67670 1.10060 -0.03700
C13 C 0.70190 0.99400 -0.17690
O1 O 0.65570 0.87220 -0.13850
O2 O 0.71640 1.23460 -0.05520
O3 O 0.65350 1.10000 0.02630
H1 H 0.69300 0.60000 0.04500
H2 H 0.71800 0.38400 0.14200
H3 H 0.65700 0.43000 0.24300
H4 H 0.57200 0.72500 0.25500
H5 H 0.55900 1.00900 0.04200
H6 H 0.54500 0.35900 -0.10400
H7 H 0.55900 0.57700 -0.15100
H8 H 0.60600 0.50000 -0.12500
H9 H 0.70300 0.94100 -0.22500
H10 H 0.69100 1.15100 -0.18400
H11 H 0.74700 1.00900 -0.15300
N1D N 0.48000 0.41060 -0.00510
C9D C 0.44000 0.36910 0.04410
C8D C 0.39710 0.18280 0.03280
C10D C 0.43510 0.49670 0.10740
C7D C 0.39690 0.06880 -0.03380
C11D C 0.35500 0.07950 0.07370
H6D H 0.45500 0.64100 0.10400
H7D H 0.44100 0.42300 0.15100
H8D H 0.39400 0.50000 0.12500
C2D C 0.37970 0.20720 -0.09400
O3D O 0.34650 -0.10000 -0.02630
H5D H 0.44100 -0.00900 -0.04200
C12D C 0.32330 -0.10060 0.03700
O1D O 0.34430 0.12780 0.13850
C1D C 0.41150 0.17420 -0.15480
C3D C 0.33310 0.36990 -0.08980
O2D O 0.28360 -0.23460 0.05520
C13D C 0.29810 0.00600 0.17690
Cl1D Cl 0.47060 -0.02730 -0.16420
C6D C 0.39960 0.30470 -0.20950
C4D C 0.31860 0.50100 -0.14420
H1D H 0.30700 0.40000 -0.04500
H9D H 0.29700 0.05900 0.22500
H10D H 0.30900 -0.15100 0.18400
H11D H 0.25300 -0.00900 0.15300
C5D C 0.35250 0.46970 -0.20360
H4D H 0.42800 0.27500 -0.25500
H2D H 0.28200 0.61600 -0.14200
H3D H 0.34300 0.57000 -0.24300
Cl1 Cl 0.52940 1.02730 1.16420
C1 C 0.58850 0.82580 1.15480
C2 C 0.62030 0.79280 1.09400
C3 C 0.66690 0.63010 1.08980
C4 C 0.68140 0.49900 1.14420
C5 C 0.64750 0.53030 1.20360
C6 C 0.60040 0.69530 1.20950
C7 C 0.60310 0.93120 1.03380
C8 C 0.60290 0.81720 0.96720
C9 C 0.56000 0.63090 0.95590
N1 N 0.52000 0.58940 1.00510
C10 C 0.56490 0.50330 0.89260
C11 C 0.64500 0.92050 0.92630
C12 C 0.67670 1.10060 0.96300
C13 C 0.70190 0.99400 0.82310
O1 O 0.65570 0.87220 0.86150
O2 O 0.71640 1.23460 0.94480
O3 O 0.65350 1.10000 1.02630
H1 H 0.69300 0.60000 1.04500
H2 H 0.71800 0.38400 1.14200
H3 H 0.65700 0.43000 1.24300
H4 H 0.57200 0.72500 1.25500
H5 H 0.55900 1.00900 1.04200
H6 H 0.54500 0.35900 0.89600
H7 H 0.55900 0.57700 0.84900
H8 H 0.60600 0.50000 0.87500
H9 H 0.70300 0.94100 0.77500
H10 H 0.69100 1.15100 0.81600
H11 H 0.74700 1.00900 0.84700
N1D N 0.48000 0.41060 0.99490
C9D C 0.44000 0.36910 1.04410
C8D C 0.39710 0.18280 1.03280
C10D C 0.43510 0.49670 1.10740
C7D C 0.39690 0.06880 0.96620
C11D C 0.35500 0.07950 1.07370
H6D H 0.45500 0.64100 1.10400
H7D H 0.44100 0.42300 1.15100
H8D H 0.39400 0.50000 1.12500
C2D C 0.37970 0.20720 0.90600
O3D O 0.34650 -0.10000 0.97370
H5D H 0.44100 -0.00900 0.95800
C12D C 0.32330 -0.10060 1.03700
O1D O 0.34430 0.12780 1.13850
C1D C 0.41150 0.17420 0.84520
C3D C 0.33310 0.36990 0.91020
O2D O 0.28360 -0.23460 1.05520
C13D C 0.29810 0.00600 1.17690
Cl1D Cl 0.47060 -0.02730 0.83580
C6D C 0.39960 0.30470 0.79050
C4D C 0.31860 0.50100 0.85580
H1D H 0.30700 0.40000 0.95500
H9D H 0.29700 0.05900 1.22500
H10D H 0.30900 -0.15100 1.18400
H11D H 0.25300 -0.00900 1.15300
C5D C 0.35250 0.46970 0.79640
H4D H 0.42800 0.27500 0.74500
H2D H 0.28200 0.61600 0.85800
H3D H 0.34300 0.57000 0.75700

#END
