./AACFAZ10_from_xyz.cif_generated_by_CrystalShift
_symmetry_cell_setting triclinic
_symmetry_space_group_name_H-M 'P 1'
loop_
_symmetry_equiv_pos_site_id
_symmetry_equiv_pos_as_xyz
1 x,y,z
_cell_length_a 20.132000
_cell_length_b 6.162000
_cell_length_c 19.954000
_cell_angle_alpha 90.000000
_cell_angle_beta 90.000000
_cell_angle_gamma 90.000000
_cell_volume 2475.361224
loop_
_atom_site_label
_atom_site_type_symbol
_atom_site_fract_x
_atom_site_fract_y
_atom_site_fract_z
Cl1 Cl 0.470600 1.027300 0.335800
C2 C 0.411500 0.825800 0.345200
C3 C 0.379700 0.792800 0.406000
C4 C 0.333100 0.630100 0.410200
C5 C 0.318600 0.499000 0.355800
C6 C 0.352500 0.530300 0.296400
C7 C 0.399600 0.695300 0.290500
C8 C 0.396900 0.931200 0.466200
C9 C 0.397100 0.817200 0.532800
C10 C 0.440000 0.630900 0.544100
N11 N 0.480000 0.589400 0.494900
C12 C 0.435100 0.503300 0.607400
C13 C 0.355000 0.920500 0.573700
C14 C 0.323300 1.100600 0.537000
C15 C 0.298100 0.994000 0.676900
O16 O 0.344300 0.872200 0.638500
O17 O 0.283600 1.234600 0.555200
O18 O 0.346500 1.100000 0.473700
H19 H 0.307000 0.600000 0.455000
H20 H 0.282000 0.384000 0.358000
H21 H 0.343000 0.430000 0.257000
H22 H 0.428000 0.725000 0.245000
H23 H 0.441000 1.009000 0.458000
H24 H 0.455000 0.359000 0.604000
H25 H 0.441000 0.577000 0.651000
H26 H 0.394000 0.500000 0.625000
H27 H 0.297000 0.941000 0.725000
H28 H 0.309000 1.151000 0.684000
H29 H 0.253000 1.009000 0.653000
N30 N 0.520000 0.410600 0.505100
C31 C 0.560000 0.369100 0.455900
C32 C 0.602900 0.182800 0.467200
C33 C 0.564900 0.496700 0.392600
C34 C 0.603100 0.068800 0.533800
C35 C 0.645000 0.079500 0.426300
H36 H 0.545000 0.641000 0.396000
H37 H 0.559000 0.423000 0.349000
H38 H 0.606000 0.500000 0.375000
C39 C 0.620300 0.207200 0.594000
O40 O 0.653500 -0.100000 0.526300
H41 H 0.559000 -0.009000 0.542000
C42 C 0.676700 -0.100600 0.463000
O43 O 0.655700 0.127800 0.361500
C44 C 0.588500 0.174200 0.654800
C45 C 0.666900 0.369900 0.589800
O46 O 0.716400 -0.234600 0.444800
C47 C 0.701900 0.006000 0.323100
Cl48 Cl 0.529400 -0.027300 0.664200
C49 C 0.600400 0.304700 0.709500
C50 C 0.681400 0.501000 0.644200
H51 H 0.693000 0.400000 0.545000
H52 H 0.703000 0.059000 0.275000
H53 H 0.691000 -0.151000 0.316000
H54 H 0.747000 -0.009000 0.347000
C55 C 0.647500 0.469700 0.703600
H56 H 0.572000 0.275000 0.755000
H57 H 0.718000 0.616000 0.642000
H58 H 0.657000 0.570000 0.743000
Cl59 Cl 0.029400 -0.527300 -0.164200
C60 C 0.088500 -0.325800 -0.154800
C61 C 0.120300 -0.292800 -0.094000
C62 C 0.166900 -0.130100 -0.089800
C63 C 0.181400 0.001000 -0.144200
C64 C 0.147500 -0.030300 -0.203600
C65 C 0.100400 -0.195300 -0.209500
C66 C 0.103100 -0.431200 -0.033800
C67 C 0.102900 -0.317200 0.032800
C68 C 0.060000 -0.130900 0.044100
N69 N 0.020000 -0.089400 -0.005100
C70 C 0.064900 -0.003300 0.107400
C71 C 0.145000 -0.420500 0.073700
C72 C 0.176700 -0.600600 0.037000
C73 C 0.201900 -0.494000 0.176900
O74 O 0.155700 -0.372200 0.138500
O75 O 0.216400 -0.734600 0.055200
O76 O 0.153500 -0.600000 -0.026300
H77 H 0.193000 -0.100000 -0.045000
H78 H 0.218000 0.116000 -0.142000
H79 H 0.157000 0.070000 -0.243000
H80 H 0.072000 -0.225000 -0.255000
H81 H 0.059000 -0.509000 -0.042000
H82 H 0.045000 0.141000 0.104000
H83 H 0.059000 -0.077000 0.151000
H84 H 0.106000 0.000000 0.125000
H85 H 0.203000 -0.441000 0.225000
H86 H 0.191000 -0.651000 0.184000
H87 H 0.247000 -0.509000 0.153000
N88 N -0.020000 0.089400 0.005100
C89 C -0.060000 0.130900 -0.044100
C90 C -0.102900 0.317200 -0.032800
C91 C -0.064900 0.003300 -0.107400
C92 C -0.103100 0.431200 0.033800
C93 C -0.145000 0.420500 -0.073700
H94 H -0.045000 -0.141000 -0.104000
H95 H -0.059000 0.077000 -0.151000
H96 H -0.106000 -0.000000 -0.125000
C97 C -0.120300 0.292800 0.094000
O98 O -0.153500 0.600000 0.026300
H99 H -0.059000 0.509000 0.042000
C100 C -0.176700 0.600600 -0.037000
O101 O -0.155700 0.372200 -0.138500
C102 C -0.088500 0.325800 0.154800
C103 C -0.166900 0.130100 0.089800
O104 O -0.216400 0.734600 -0.055200
C105 C -0.201900 0.494000 -0.176900
Cl106 Cl -0.029400 0.527300 0.164200
C107 C -0.100400 0.195300 0.209500
C108 C -0.181400 -0.001000 0.144200
H109 H -0.193000 0.100000 0.045000
H110 H -0.203000 0.441000 -0.225000
H111 H -0.191000 0.651000 -0.184000
H112 H -0.247000 0.509000 -0.153000
C113 C -0.147500 0.030300 0.203600
H114 H -0.072000 0.225000 0.255000
H115 H -0.218000 -0.116000 0.142000
H116 H -0.157000 -0.070000 0.243000
Cl117 Cl 0.029400 -0.527300 0.835800
C118 C 0.088500 -0.325800 0.845200
C119 C 0.120300 -0.292800 0.906000
C120 C 0.166900 -0.130100 0.910200
C121 C 0.181400 0.001000 0.855800
C122 C 0.147500 -0.030300 0.796400
C123 C 0.100400 -0.195300 0.790500
C124 C 0.103100 -0.431200 0.966200
C125 C 0.102900 -0.317200 1.032800
C126 C 0.060000 -0.130900 1.044100
N127 N 0.020000 -0.089400 0.994900
C128 C 0.064900 -0.003300 1.107400
C129 C 0.145000 -0.420500 1.073700
C130 C 0.176700 -0.600600 1.037000
C131 C 0.201900 -0.494000 1.176900
O132 O 0.155700 -0.372200 1.138500
O133 O 0.216400 -0.734600 1.055200
O134 O 0.153500 -0.600000 0.973700
H135 H 0.193000 -0.100000 0.955000
H136 H 0.218000 0.116000 0.858000
H137 H 0.157000 0.070000 0.757000
H138 H 0.072000 -0.225000 0.745000
H139 H 0.059000 -0.509000 0.958000
H140 H 0.045000 0.141000 1.104000
H141 H 0.059000 -0.077000 1.151000
H142 H 0.106000 0.000000 1.125000
H143 H 0.203000 -0.441000 1.225000
H144 H 0.191000 -0.651000 1.184000
H145 H 0.247000 -0.509000 1.153000
N146 N -0.020000 0.089400 1.005100
C147 C -0.060000 0.130900 0.955900
C148 C -0.102900 0.317200 0.967200
C149 C -0.064900 0.003300 0.892600
C150 C -0.103100 0.431200 1.033800
C151 C -0.145000 0.420500 0.926300
H152 H -0.045000 -0.141000 0.896000
H153 H -0.059000 0.077000 0.849000
H154 H -0.106000 0.000000 0.875000
C155 C -0.120300 0.292800 1.094000
O156 O -0.153500 0.600000 1.026300
H157 H -0.059000 0.509000 1.042000
C158 C -0.176700 0.600600 0.963000
O159 O -0.155700 0.372200 0.861500
C160 C -0.088500 0.325800 1.154800
C161 C -0.166900 0.130100 1.089800
O162 O -0.216400 0.734600 0.944800
C163 C -0.201900 0.494000 0.823100
Cl164 Cl -0.029400 0.527300 1.164200
C165 C -0.100400 0.195300 1.209500
C166 C -0.181400 -0.001000 1.144200
H167 H -0.193000 0.100000 1.045000
H168 H -0.203000 0.441000 0.775000
H169 H -0.191000 0.651000 0.816000
H170 H -0.247000 0.509000 0.847000
C171 C -0.147500 0.030300 1.203600
H172 H -0.072000 0.225000 1.255000
H173 H -0.218000 -0.116000 1.142000
H174 H -0.157000 -0.070000 1.243000
Cl175 Cl 0.029400 0.472700 -0.164200
C176 C 0.088500 0.674200 -0.154800
C177 C 0.120300 0.707200 -0.094000
C178 C 0.166900 0.869900 -0.089800
C179 C 0.181400 1.001000 -0.144200
C180 C 0.147500 0.969700 -0.203600
C181 C 0.100400 0.804700 -0.209500
C182 C 0.103100 0.568800 -0.033800
C183 C 0.102900 0.682800 0.032800
C184 C 0.060000 0.869100 0.044100
N185 N 0.020000 0.910600 -0.005100
C186 C 0.064900 0.996700 0.107400
C187 C 0.145000 0.579500 0.073700
C188 C 0.176700 0.399400 0.037000
C189 C 0.201900 0.506000 0.176900
O190 O 0.155700 0.627800 0.138500
O191 O 0.216400 0.265400 0.055200
O192 O 0.153500 0.400000 -0.026300
H193 H 0.193000 0.900000 -0.045000
H194 H 0.218000 1.116000 -0.142000
H195 H 0.157000 1.070000 -0.243000
H196 H 0.072000 0.775000 -0.255000
H197 H 0.059000 0.491000 -0.042000
H198 H 0.045000 1.141000 0.104000
H199 H 0.059000 0.923000 0.151000
H200 H 0.106000 1.000000 0.125000
H201 H 0.203000 0.559000 0.225000
H202 H 0.191000 0.349000 0.184000
H203 H 0.247000 0.491000 0.153000
N204 N -0.020000 1.089400 0.005100
C205 C -0.060000 1.130900 -0.044100
C206 C -0.102900 1.317200 -0.032800
C207 C -0.064900 1.003300 -0.107400
C208 C -0.103100 1.431200 0.033800
C209 C -0.145000 1.420500 -0.073700
H210 H -0.045000 0.859000 -0.104000
H211 H -0.059000 1.077000 -0.151000
H212 H -0.106000 1.000000 -0.125000
C213 C -0.120300 1.292800 0.094000
O214 O -0.153500 1.600000 0.026300
H215 H -0.059000 1.509000 0.042000
C216 C -0.176700 1.600600 -0.037000
O217 O -0.155700 1.372200 -0.138500
C218 C -0.088500 1.325800 0.154800
C219 C -0.166900 1.130100 0.089800
O220 O -0.216400 1.734600 -0.055200
C221 C -0.201900 1.494000 -0.176900
Cl222 Cl -0.029400 1.527300 0.164200
C223 C -0.100400 1.195300 0.209500
C224 C -0.181400 0.999000 0.144200
H225 H -0.193000 1.100000 0.045000
H226 H -0.203000 1.441000 -0.225000
H227 H -0.191000 1.651000 -0.184000
H228 H -0.247000 1.509000 -0.153000
C229 C -0.147500 1.030300 0.203600
H230 H -0.072000 1.225000 0.255000
H231 H -0.218000 0.884000 0.142000
H232 H -0.157000 0.930000 0.243000
Cl233 Cl 0.029400 0.472700 0.835800
C234 C 0.088500 0.674200 0.845200
C235 C 0.120300 0.707200 0.906000
C236 C 0.166900 0.869900 0.910200
C237 C 0.181400 1.001000 0.855800
C238 C 0.147500 0.969700 0.796400
C239 C 0.100400 0.804700 0.790500
C240 C 0.103100 0.568800 0.966200
C241 C 0.102900 0.682800 1.032800
C242 C 0.060000 0.869100 1.044100
N243 N 0.020000 0.910600 0.994900
C244 C 0.064900 0.996700 1.107400
C245 C 0.145000 0.579500 1.073700
C246 C 0.176700 0.399400 1.037000
C247 C 0.201900 0.506000 1.176900
O248 O 0.155700 0.627800 1.138500
O249 O 0.216400 0.265400 1.055200
O250 O 0.153500 0.400000 0.973700
H251 H 0.193000 0.900000 0.955000
H252 H 0.218000 1.116000 0.858000
H253 H 0.157000 1.070000 0.757000
H254 H 0.072000 0.775000 0.745000
H255 H 0.059000 0.491000 0.958000
H256 H 0.045000 1.141000 1.104000
H257 H 0.059000 0.923000 1.151000
H258 H 0.106000 1.000000 1.125000
H259 H 0.203000 0.559000 1.225000
H260 H 0.191000 0.349000 1.184000
H261 H 0.247000 0.491000 1.153000
N262 N -0.020000 1.089400 1.005100
C263 C -0.060000 1.130900 0.955900
C264 C -0.102900 1.317200 0.967200
C265 C -0.064900 1.003300 0.892600
C266 C -0.103100 1.431200 1.033800
C267 C -0.145000 1.420500 0.926300
H268 H -0.045000 0.859000 0.896000
H269 H -0.059000 1.077000 0.849000
H270 H -0.106000 1.000000 0.875000
C271 C -0.120300 1.292800 1.094000
O272 O -0.153500 1.600000 1.026300
H273 H -0.059000 1.509000 1.042000
C274 C -0.176700 1.600600 0.963000
O275 O -0.155700 1.372200 0.861500
C276 C -0.088500 1.325800 1.154800
C277 C -0.166900 1.130100 1.089800
O278 O -0.216400 1.734600 0.944800
C279 C -0.201900 1.494000 0.823100
Cl280 Cl -0.029400 1.527300 1.164200
C281 C -0.100400 1.195300 1.209500
C282 C -0.181400 0.999000 1.144200
H283 H -0.193000 1.100000 1.045000
H284 H -0.203000 1.441000 0.775000
H285 H -0.191000 1.651000 0.816000
H286 H -0.247000 1.509000 0.847000
C287 C -0.147500 1.030300 1.203600
H288 H -0.072000 1.225000 1.255000
H289 H -0.218000 0.884000 1.142000
H290 H -0.157000 0.930000 1.243000
Cl291 Cl 1.029400 -0.527300 -0.164200
C292 C 1.088500 -0.325800 -0.154800
C293 C 1.120300 -0.292800 -0.094000
C294 C 1.166900 -0.130100 -0.089800
C295 C 1.181400 0.001000 -0.144200
C296 C 1.147500 -0.030300 -0.203600
C297 C 1.100400 -0.195300 -0.209500
C298 C 1.103100 -0.431200 -0.033800
C299 C 1.102900 -0.317200 0.032800
C300 C 1.060000 -0.130900 0.044100
N301 N 1.020000 -0.089400 -0.005100
C302 C 1.064900 -0.003300 0.107400
C303 C 1.145000 -0.420500 0.073700
C304 C 1.176700 -0.600600 0.037000
C305 C 1.201900 -0.494000 0.176900
O306 O 1.155700 -0.372200 0.138500
O307 O 1.216400 -0.734600 0.055200
O308 O 1.153500 -0.600000 -0.026300
H309 H 1.193000 -0.100000 -0.045000
H310 H 1.218000 0.116000 -0.142000
H311 H 1.157000 0.070000 -0.243000
H312 H 1.072000 -0.225000 -0.255000
H313 H 1.059000 -0.509000 -0.042000
H314 H 1.045000 0.141000 0.104000
H315 H 1.059000 -0.077000 0.151000
H316 H 1.106000 0.000000 0.125000
H317 H 1.203000 -0.441000 0.225000
H318 H 1.191000 -0.651000 0.184000
H319 H 1.247000 -0.509000 0.153000
N320 N 0.980000 0.089400 0.005100
C321 C 0.940000 0.130900 -0.044100
C322 C 0.897100 0.317200 -0.032800
C323 C 0.935100 0.003300 -0.107400
C324 C 0.896900 0.431200 0.033800
C325 C 0.855000 0.420500 -0.073700
H326 H 0.955000 -0.141000 -0.104000
H327 H 0.941000 0.077000 -0.151000
H328 H 0.894000 0.000000 -0.125000
C329 C 0.879700 0.292800 0.094000
O330 O 0.846500 0.600000 0.026300
H331 H 0.941000 0.509000 0.042000
C332 C 0.823300 0.600600 -0.037000
O333 O 0.844300 0.372200 -0.138500
C334 C 0.911500 0.325800 0.154800
C335 C 0.833100 0.130100 0.089800
O336 O 0.783600 0.734600 -0.055200
C337 C 0.798100 0.494000 -0.176900
Cl338 Cl 0.970600 0.527300 0.164200
C339 C 0.899600 0.195300 0.209500
C340 C 0.818600 -0.001000 0.144200
H341 H 0.807000 0.100000 0.045000
H342 H 0.797000 0.441000 -0.225000
H343 H 0.809000 0.651000 -0.184000
H344 H 0.753000 0.509000 -0.153000
C345 C 0.852500 0.030300 0.203600
H346 H 0.928000 0.225000 0.255000
H347 H 0.782000 -0.116000 0.142000
H348 H 0.843000 -0.070000 0.243000
Cl349 Cl 1.029400 -0.527300 0.835800
C350 C 1.088500 -0.325800 0.845200
C351 C 1.120300 -0.292800 0.906000
C352 C 1.166900 -0.130100 0.910200
C353 C 1.181400 0.001000 0.855800
C354 C 1.147500 -0.030300 0.796400
C355 C 1.100400 -0.195300 0.790500
C356 C 1.103100 -0.431200 0.966200
C357 C 1.102900 -0.317200 1.032800
C358 C 1.060000 -0.130900 1.044100
N359 N 1.020000 -0.089400 0.994900
C360 C 1.064900 -0.003300 1.107400
C361 C 1.145000 -0.420500 1.073700
C362 C 1.176700 -0.600600 1.037000
C363 C 1.201900 -0.494000 1.176900
O364 O 1.155700 -0.372200 1.138500
O365 O 1.216400 -0.734600 1.055200
O366 O 1.153500 -0.600000 0.973700
H367 H 1.193000 -0.100000 0.955000
H368 H 1.218000 0.116000 0.858000
H369 H 1.157000 0.070000 0.757000
H370 H 1.072000 -0.225000 0.745000
H371 H 1.059000 -0.509000 0.958000
H372 H 1.045000 0.141000 1.104000
H373 H 1.059000 -0.077000 1.151000
H374 H 1.106000 0.000000 1.125000
H375 H 1.203000 -0.441000 1.225000
H376 H 1.191000 -0.651000 1.184000
H377 H 1.247000 -0.509000 1.153000
N378 N 0.980000 0.089400 1.005100
C379 C 0.940000 0.130900 0.955900
C380 C 0.897100 0.317200 0.967200
C381 C 0.935100 0.003300 0.892600
C382 C 0.896900 0.431200 1.033800
C383 C 0.855000 0.420500 0.926300
H384 H 0.955000 -0.141000 0.896000
H385 H 0.941000 0.077000 0.849000
H386 H 0.894000 0.000000 0.875000
C387 C 0.879700 0.292800 1.094000
O388 O 0.846500 0.600000 1.026300
H389 H 0.941000 0.509000 1.042000
C390 C 0.823300 0.600600 0.963000
O391 O 0.844300 0.372200 0.861500
C392 C 0.911500 0.325800 1.154800
C393 C 0.833100 0.130100 1.089800
O394 O 0.783600 0.734600 0.944800
C395 C 0.798100 0.494000 0.823100
Cl396 Cl 0.970600 0.527300 1.164200
C397 C 0.899600 0.195300 1.209500
C398 C 0.818600 -0.001000 1.144200
H399 H 0.807000 0.100000 1.045000
H400 H 0.797000 0.441000 0.775000
H401 H 0.809000 0.651000 0.816000
H402 H 0.753000 0.509000 0.847000
C403 C 0.852500 0.030300 1.203600
H404 H 0.928000 0.225000 1.255000
H405 H 0.782000 -0.116000 1.142000
H406 H 0.843000 -0.070000 1.243000
Cl407 Cl 1.029400 0.472700 -0.164200
C408 C 1.088500 0.674200 -0.154800
C409 C 1.120300 0.707200 -0.094000
C410 C 1.166900 0.869900 -0.089800
C411 C 1.181400 1.001000 -0.144200
C412 C 1.147500 0.969700 -0.203600
C413 C 1.100400 0.804700 -0.209500
C414 C 1.103100 0.568800 -0.033800
C415 C 1.102900 0.682800 0.032800
C416 C 1.060000 0.869100 0.044100
N417 N 1.020000 0.910600 -0.005100
C418 C 1.064900 0.996700 0.107400
C419 C 1.145000 0.579500 0.073700
C420 C 1.176700 0.399400 0.037000
C421 C 1.201900 0.506000 0.176900
O422 O 1.155700 0.627800 0.138500
O423 O 1.216400 0.265400 0.055200
O424 O 1.153500 0.400000 -0.026300
H425 H 1.193000 0.900000 -0.045000
H426 H 1.218000 1.116000 -0.142000
H427 H 1.157000 1.070000 -0.243000
H428 H 1.072000 0.775000 -0.255000
H429 H 1.059000 0.491000 -0.042000
H430 H 1.045000 1.141000 0.104000
H431 H 1.059000 0.923000 0.151000
H432 H 1.106000 1.000000 0.125000
H433 H 1.203000 0.559000 0.225000
H434 H 1.191000 0.349000 0.184000
H435 H 1.247000 0.491000 0.153000
N436 N 0.980000 1.089400 0.005100
C437 C 0.940000 1.130900 -0.044100
C438 C 0.897100 1.317200 -0.032800
C439 C 0.935100 1.003300 -0.107400
C440 C 0.896900 1.431200 0.033800
C441 C 0.855000 1.420500 -0.073700
H442 H 0.955000 0.859000 -0.104000
H443 H 0.941000 1.077000 -0.151000
H444 H 0.894000 1.000000 -0.125000
C445 C 0.879700 1.292800 0.094000
O446 O 0.846500 1.600000 0.026300
H447 H 0.941000 1.509000 0.042000
C448 C 0.823300 1.600600 -0.037000
O449 O 0.844300 1.372200 -0.138500
C450 C 0.911500 1.325800 0.154800
C451 C 0.833100 1.130100 0.089800
O452 O 0.783600 1.734600 -0.055200
C453 C 0.798100 1.494000 -0.176900
Cl454 Cl 0.970600 1.527300 0.164200
C455 C 0.899600 1.195300 0.209500
C456 C 0.818600 0.999000 0.144200
H457 H 0.807000 1.100000 0.045000
H458 H 0.797000 1.441000 -0.225000
H459 H 0.809000 1.651000 -0.184000
H460 H 0.753000 1.509000 -0.153000
C461 C 0.852500 1.030300 0.203600
H462 H 0.928000 1.225000 0.255000
H463 H 0.782000 0.884000 0.142000
H464 H 0.843000 0.930000 0.243000
Cl465 Cl 1.029400 0.472700 0.835800
C466 C 1.088500 0.674200 0.845200
C467 C 1.120300 0.707200 0.906000
C468 C 1.166900 0.869900 0.910200
C469 C 1.181400 1.001000 0.855800
C470 C 1.147500 0.969700 0.796400
C471 C 1.100400 0.804700 0.790500
C472 C 1.103100 0.568800 0.966200
C473 C 1.102900 0.682800 1.032800
C474 C 1.060000 0.869100 1.044100
N475 N 1.020000 0.910600 0.994900
C476 C 1.064900 0.996700 1.107400
C477 C 1.145000 0.579500 1.073700
C478 C 1.176700 0.399400 1.037000
C479 C 1.201900 0.506000 1.176900
O480 O 1.155700 0.627800 1.138500
O481 O 1.216400 0.265400 1.055200
O482 O 1.153500 0.400000 0.973700
H483 H 1.193000 0.900000 0.955000
H484 H 1.218000 1.116000 0.858000
H485 H 1.157000 1.070000 0.757000
H486 H 1.072000 0.775000 0.745000
H487 H 1.059000 0.491000 0.958000
H488 H 1.045000 1.141000 1.104000
H489 H 1.059000 0.923000 1.151000
H490 H 1.106000 1.000000 1.125000
H491 H 1.203000 0.559000 1.225000
H492 H 1.191000 0.349000 1.184000
H493 H 1.247000 0.491000 1.153000
N494 N 0.980000 1.089400 1.005100
C495 C 0.940000 1.130900 0.955900
C496 C 0.897100 1.317200 0.967200
C497 C 0.935100 1.003300 0.892600
C498 C 0.896900 1.431200 1.033800
C499 C 0.855000 1.420500 0.926300
H500 H 0.955000 0.859000 0.896000
H501 H 0.941000 1.077000 0.849000
H502 H 0.894000 1.000000 0.875000
C503 C 0.879700 1.292800 1.094000
O504 O 0.846500 1.600000 1.026300
H505 H 0.941000 1.509000 1.042000
C506 C 0.823300 1.600600 0.963000
O507 O 0.844300 1.372200 0.861500
C508 C 0.911500 1.325800 1.154800
C509 C 0.833100 1.130100 1.089800
O510 O 0.783600 1.734600 0.944800
C511 C 0.798100 1.494000 0.823100
Cl512 Cl 0.970600 1.527300 1.164200
C513 C 0.899600 1.195300 1.209500
C514 C 0.818600 0.999000 1.144200
H515 H 0.807000 1.100000 1.045000
H516 H 0.797000 1.441000 0.775000
H517 H 0.809000 1.651000 0.816000
H518 H 0.753000 1.509000 0.847000
C519 C 0.852500 1.030300 1.203600
H520 H 0.928000 1.225000 1.255000
H521 H 0.782000 0.884000 1.142000
H522 H 0.843000 0.930000 1.243000
Cl523 Cl -0.029400 -0.527300 0.664200
C524 C -0.088500 -0.325800 0.654800
C525 C -0.120300 -0.292800 0.594000
C526 C -0.166900 -0.130100 0.589800
C527 C -0.181400 0.001000 0.644200
C528 C -0.147500 -0.030300 0.703600
C529 C -0.100400 -0.195300 0.709500
C530 C -0.103100 -0.431200 0.533800
C531 C -0.102900 -0.317200 0.467200
C532 C -0.060000 -0.130900 0.455900
N533 N -0.020000 -0.089400 0.505100
C534 C -0.064900 -0.003300 0.392600
C535 C -0.145000 -0.420500 0.426300
C536 C -0.176700 -0.600600 0.463000
C537 C -0.201900 -0.494000 0.323100
O538 O -0.155700 -0.372200 0.361500
O539 O -0.216400 -0.734600 0.444800
O540 O -0.153500 -0.600000 0.526300
H541 H -0.193000 -0.100000 0.545000
H542 H -0.218000 0.116000 0.642000
H543 H -0.157000 0.070000 0.743000
H544 H -0.072000 -0.225000 0.755000
H545 H -0.059000 -0.509000 0.542000
H546 H -0.045000 0.141000 0.396000
H547 H -0.059000 -0.077000 0.349000
H548 H -0.106000 0.000000 0.375000
H549 H -0.203000 -0.441000 0.275000
H550 H -0.191000 -0.651000 0.316000
H551 H -0.247000 -0.509000 0.347000
N552 N 0.020000 0.089400 0.494900
C553 C 0.060000 0.130900 0.544100
C554 C 0.102900 0.317200 0.532800
C555 C 0.064900 0.003300 0.607400
C556 C 0.103100 0.431200 0.466200
C557 C 0.145000 0.420500 0.573700
H558 H 0.045000 -0.141000 0.604000
H559 H 0.059000 0.077000 0.651000
H560 H 0.106000 0.000000 0.625000
C561 C 0.120300 0.292800 0.406000
O562 O 0.153500 0.600000 0.473700
H563 H 0.059000 0.509000 0.458000
C564 C 0.176700 0.600600 0.537000
O565 O 0.155700 0.372200 0.638500
C566 C 0.088500 0.325800 0.345200
C567 C 0.166900 0.130100 0.410200
O568 O 0.216400 0.734600 0.555200
C569 C 0.201900 0.494000 0.676900
Cl570 Cl 0.029400 0.527300 0.335800
C571 C 0.100400 0.195300 0.290500
C572 C 0.181400 -0.001000 0.355800
H573 H 0.193000 0.100000 0.455000
H574 H 0.203000 0.441000 0.725000
H575 H 0.191000 0.651000 0.684000
H576 H 0.247000 0.509000 0.653000
C577 C 0.147500 0.030300 0.296400
H578 H 0.072000 0.225000 0.245000
H579 H 0.218000 -0.116000 0.358000
H580 H 0.157000 -0.070000 0.257000
Cl581 Cl -0.029400 0.472700 0.664200
C582 C -0.088500 0.674200 0.654800
C583 C -0.120300 0.707200 0.594000
C584 C -0.166900 0.869900 0.589800
C585 C -0.181400 1.001000 0.644200
C586 C -0.147500 0.969700 0.703600
C587 C -0.100400 0.804700 0.709500
C588 C -0.103100 0.568800 0.533800
C589 C -0.102900 0.682800 0.467200
C590 C -0.060000 0.869100 0.455900
N591 N -0.020000 0.910600 0.505100
C592 C -0.064900 0.996700 0.392600
C593 C -0.145000 0.579500 0.426300
C594 C -0.176700 0.399400 0.463000
C595 C -0.201900 0.506000 0.323100
O596 O -0.155700 0.627800 0.361500
O597 O -0.216400 0.265400 0.444800
O598 O -0.153500 0.400000 0.526300
H599 H -0.193000 0.900000 0.545000
H600 H -0.218000 1.116000 0.642000
H601 H -0.157000 1.070000 0.743000
H602 H -0.072000 0.775000 0.755000
H603 H -0.059000 0.491000 0.542000
H604 H -0.045000 1.141000 0.396000
H605 H -0.059000 0.923000 0.349000
H606 H -0.106000 1.000000 0.375000
H607 H -0.203000 0.559000 0.275000
H608 H -0.191000 0.349000 0.316000
H609 H -0.247000 0.491000 0.347000
N610 N 0.020000 1.089400 0.494900
C611 C 0.060000 1.130900 0.544100
C612 C 0.102900 1.317200 0.532800
C613 C 0.064900 1.003300 0.607400
C614 C 0.103100 1.431200 0.466200
C615 C 0.145000 1.420500 0.573700
H616 H 0.045000 0.859000 0.604000
H617 H 0.059000 1.077000 0.651000
H618 H 0.106000 1.000000 0.625000
C619 C 0.120300 1.292800 0.406000
O620 O 0.153500 1.600000 0.473700
H621 H 0.059000 1.509000 0.458000
C622 C 0.176700 1.600600 0.537000
O623 O 0.155700 1.372200 0.638500
C624 C 0.088500 1.325800 0.345200
C625 C 0.166900 1.130100 0.410200
O626 O 0.216400 1.734600 0.555200
C627 C 0.201900 1.494000 0.676900
Cl628 Cl 0.029400 1.527300 0.335800
C629 C 0.100400 1.195300 0.290500
C630 C 0.181400 0.999000 0.355800
H631 H 0.193000 1.100000 0.455000
H632 H 0.203000 1.441000 0.725000
H633 H 0.191000 1.651000 0.684000
H634 H 0.247000 1.509000 0.653000
C635 C 0.147500 1.030300 0.296400
H636 H 0.072000 1.225000 0.245000
H637 H 0.218000 0.884000 0.358000
H638 H 0.157000 0.930000 0.257000
Cl639 Cl 0.970600 -0.527300 0.664200
C640 C 0.911500 -0.325800 0.654800
C641 C 0.879700 -0.292800 0.594000
C642 C 0.833100 -0.130100 0.589800
C643 C 0.818600 0.001000 0.644200
C644 C 0.852500 -0.030300 0.703600
C645 C 0.899600 -0.195300 0.709500
C646 C 0.896900 -0.431200 0.533800
C647 C 0.897100 -0.317200 0.467200
C648 C 0.940000 -0.130900 0.455900
N649 N 0.980000 -0.089400 0.505100
C650 C 0.935100 -0.003300 0.392600
C651 C 0.855000 -0.420500 0.426300
C652 C 0.823300 -0.600600 0.463000
C653 C 0.798100 -0.494000 0.323100
O654 O 0.844300 -0.372200 0.361500
O655 O 0.783600 -0.734600 0.444800
O656 O 0.846500 -0.600000 0.526300
H657 H 0.807000 -0.100000 0.545000
H658 H 0.782000 0.116000 0.642000
H659 H 0.843000 0.070000 0.743000
H660 H 0.928000 -0.225000 0.755000
H661 H 0.941000 -0.509000 0.542000
H662 H 0.955000 0.141000 0.396000
H663 H 0.941000 -0.077000 0.349000
H664 H 0.894000 0.000000 0.375000
H665 H 0.797000 -0.441000 0.275000
H666 H 0.809000 -0.651000 0.316000
H667 H 0.753000 -0.509000 0.347000
N668 N 1.020000 0.089400 0.494900
C669 C 1.060000 0.130900 0.544100
C670 C 1.102900 0.317200 0.532800
C671 C 1.064900 0.003300 0.607400
C672 C 1.103100 0.431200 0.466200
C673 C 1.145000 0.420500 0.573700
H674 H 1.045000 -0.141000 0.604000
H675 H 1.059000 0.077000 0.651000
H676 H 1.106000 0.000000 0.625000
C677 C 1.120300 0.292800 0.406000
O678 O 1.153500 0.600000 0.473700
H679 H 1.059000 0.509000 0.458000
C680 C 1.176700 0.600600 0.537000
O681 O 1.155700 0.372200 0.638500
C682 C 1.088500 0.325800 0.345200
C683 C 1.166900 0.130100 0.410200
O684 O 1.216400 0.734600 0.555200
C685 C 1.201900 0.494000 0.676900
Cl686 Cl 1.029400 0.527300 0.335800
C687 C 1.100400 0.195300 0.290500
C688 C 1.181400 -0.001000 0.355800
H689 H 1.193000 0.100000 0.455000
H690 H 1.203000 0.441000 0.725000
H691 H 1.191000 0.651000 0.684000
H692 H 1.247000 0.509000 0.653000
C693 C 1.147500 0.030300 0.296400
H694 H 1.072000 0.225000 0.245000
H695 H 1.218000 -0.116000 0.358000
H696 H 1.157000 -0.070000 0.257000
Cl697 Cl 0.970600 0.472700 0.664200
C698 C 0.911500 0.674200 0.654800
C699 C 0.879700 0.707200 0.594000
C700 C 0.833100 0.869900 0.589800
C701 C 0.818600 1.001000 0.644200
C702 C 0.852500 0.969700 0.703600
C703 C 0.899600 0.804700 0.709500
C704 C 0.896900 0.568800 0.533800
C705 C 0.897100 0.682800 0.467200
C706 C 0.940000 0.869100 0.455900
N707 N 0.980000 0.910600 0.505100
C708 C 0.935100 0.996700 0.392600
C709 C 0.855000 0.579500 0.426300
C710 C 0.823300 0.399400 0.463000
C711 C 0.798100 0.506000 0.323100
O712 O 0.844300 0.627800 0.361500
O713 O 0.783600 0.265400 0.444800
O714 O 0.846500 0.400000 0.526300
H715 H 0.807000 0.900000 0.545000
H716 H 0.782000 1.116000 0.642000
H717 H 0.843000 1.070000 0.743000
H718 H 0.928000 0.775000 0.755000
H719 H 0.941000 0.491000 0.542000
H720 H 0.955000 1.141000 0.396000
H721 H 0.941000 0.923000 0.349000
H722 H 0.894000 1.000000 0.375000
H723 H 0.797000 0.559000 0.275000
H724 H 0.809000 0.349000 0.316000
H725 H 0.753000 0.491000 0.347000
N726 N 1.020000 1.089400 0.494900
C727 C 1.060000 1.130900 0.544100
C728 C 1.102900 1.317200 0.532800
C729 C 1.064900 1.003300 0.607400
C730 C 1.103100 1.431200 0.466200
C731 C 1.145000 1.420500 0.573700
H732 H 1.045000 0.859000 0.604000
H733 H 1.059000 1.077000 0.651000
H734 H 1.106000 1.000000 0.625000
C735 C 1.120300 1.292800 0.406000
O736 O 1.153500 1.600000 0.473700
H737 H 1.059000 1.509000 0.458000
C738 C 1.176700 1.600600 0.537000
O739 O 1.155700 1.372200 0.638500
C740 C 1.088500 1.325800 0.345200
C741 C 1.166900 1.130100 0.410200
O742 O 1.216400 1.734600 0.555200
C743 C 1.201900 1.494000 0.676900
Cl744 Cl 1.029400 1.527300 0.335800
C745 C 1.100400 1.195300 0.290500
C746 C 1.181400 0.999000 0.355800
H747 H 1.193000 1.100000 0.455000
H748 H 1.203000 1.441000 0.725000
H749 H 1.191000 1.651000 0.684000
H750 H 1.247000 1.509000 0.653000
C751 C 1.147500 1.030300 0.296400
H752 H 1.072000 1.225000 0.245000
H753 H 1.218000 0.884000 0.358000
H754 H 1.157000 0.930000 0.257000
Cl755 Cl 0.529400 1.027300 0.164200
C756 C 0.588500 0.825800 0.154800
C757 C 0.620300 0.792800 0.094000
C758 C 0.666900 0.630100 0.089800
C759 C 0.681400 0.499000 0.144200
C760 C 0.647500 0.530300 0.203600
C761 C 0.600400 0.695300 0.209500
C762 C 0.603100 0.931200 0.033800
C763 C 0.602900 0.817200 -0.032800
C764 C 0.560000 0.630900 -0.044100
N765 N 0.520000 0.589400 0.005100
C766 C 0.564900 0.503300 -0.107400
C767 C 0.645000 0.920500 -0.073700
C768 C 0.676700 1.100600 -0.037000
C769 C 0.701900 0.994000 -0.176900
O770 O 0.655700 0.872200 -0.138500
O771 O 0.716400 1.234600 -0.055200
O772 O 0.653500 1.100000 0.026300
H773 H 0.693000 0.600000 0.045000
H774 H 0.718000 0.384000 0.142000
H775 H 0.657000 0.430000 0.243000
H776 H 0.572000 0.725000 0.255000
H777 H 0.559000 1.009000 0.042000
H778 H 0.545000 0.359000 -0.104000
H779 H 0.559000 0.577000 -0.151000
H780 H 0.606000 0.500000 -0.125000
H781 H 0.703000 0.941000 -0.225000
H782 H 0.691000 1.151000 -0.184000
H783 H 0.747000 1.009000 -0.153000
N784 N 0.480000 0.410600 -0.005100
C785 C 0.440000 0.369100 0.044100
C786 C 0.397100 0.182800 0.032800
C787 C 0.435100 0.496700 0.107400
C788 C 0.396900 0.068800 -0.033800
C789 C 0.355000 0.079500 0.073700
H790 H 0.455000 0.641000 0.104000
H791 H 0.441000 0.423000 0.151000
H792 H 0.394000 0.500000 0.125000
C793 C 0.379700 0.207200 -0.094000
O794 O 0.346500 -0.100000 -0.026300
H795 H 0.441000 -0.009000 -0.042000
C796 C 0.323300 -0.100600 0.037000
O797 O 0.344300 0.127800 0.138500
C798 C 0.411500 0.174200 -0.154800
C799 C 0.333100 0.369900 -0.089800
O800 O 0.283600 -0.234600 0.055200
C801 C 0.298100 0.006000 0.176900
Cl802 Cl 0.470600 -0.027300 -0.164200
C803 C 0.399600 0.304700 -0.209500
C804 C 0.318600 0.501000 -0.144200
H805 H 0.307000 0.400000 -0.045000
H806 H 0.297000 0.059000 0.225000
H807 H 0.309000 -0.151000 0.184000
H808 H 0.253000 -0.009000 0.153000
C809 C 0.352500 0.469700 -0.203600
H810 H 0.428000 0.275000 -0.255000
H811 H 0.282000 0.616000 -0.142000
H812 H 0.343000 0.570000 -0.243000
Cl813 Cl 0.529400 1.027300 1.164200
C814 C 0.588500 0.825800 1.154800
C815 C 0.620300 0.792800 1.094000
C816 C 0.666900 0.630100 1.089800
C817 C 0.681400 0.499000 1.144200
C818 C 0.647500 0.530300 1.203600
C819 C 0.600400 0.695300 1.209500
C820 C 0.603100 0.931200 1.033800
C821 C 0.602900 0.817200 0.967200
C822 C 0.560000 0.630900 0.955900
N823 N 0.520000 0.589400 1.005100
C824 C 0.564900 0.503300 0.892600
C825 C 0.645000 0.920500 0.926300
C826 C 0.676700 1.100600 0.963000
C827 C 0.701900 0.994000 0.823100
O828 O 0.655700 0.872200 0.861500
O829 O 0.716400 1.234600 0.944800
O830 O 0.653500 1.100000 1.026300
H831 H 0.693000 0.600000 1.045000
H832 H 0.718000 0.384000 1.142000
H833 H 0.657000 0.430000 1.243000
H834 H 0.572000 0.725000 1.255000
H835 H 0.559000 1.009000 1.042000
H836 H 0.545000 0.359000 0.896000
H837 H 0.559000 0.577000 0.849000
H838 H 0.606000 0.500000 0.875000
H839 H 0.703000 0.941000 0.775000
H840 H 0.691000 1.151000 0.816000
H841 H 0.747000 1.009000 0.847000
N842 N 0.480000 0.410600 0.994900
C843 C 0.440000 0.369100 1.044100
C844 C 0.397100 0.182800 1.032800
C845 C 0.435100 0.496700 1.107400
C846 C 0.396900 0.068800 0.966200
C847 C 0.355000 0.079500 1.073700
H848 H 0.455000 0.641000 1.104000
H849 H 0.441000 0.423000 1.151000
H850 H 0.394000 0.500000 1.125000
C851 C 0.379700 0.207200 0.906000
O852 O 0.346500 -0.100000 0.973700
H853 H 0.441000 -0.009000 0.958000
C854 C 0.323300 -0.100600 1.037000
O855 O 0.344300 0.127800 1.138500
C856 C 0.411500 0.174200 0.845200
C857 C 0.333100 0.369900 0.910200
O858 O 0.283600 -0.234600 1.055200
C859 C 0.298100 0.006000 1.176900
Cl860 Cl 0.470600 -0.027300 0.835800
C861 C 0.399600 0.304700 0.790500
C862 C 0.318600 0.501000 0.855800
H863 H 0.307000 0.400000 0.955000
H864 H 0.297000 0.059000 1.225000
H865 H 0.309000 -0.151000 1.184000
H866 H 0.253000 -0.009000 1.153000
C867 C 0.352500 0.469700 0.796400
H868 H 0.428000 0.275000 0.745000
H869 H 0.282000 0.616000 0.858000
H870 H 0.343000 0.570000 0.757000

#END
