./ABADEO_from_xyz.cif_generated_by_CrystalShift
_symmetry_cell_setting triclinic
_symmetry_space_group_name_H-M 'P 1'
loop_
_symmetry_equiv_pos_site_id
_symmetry_equiv_pos_as_xyz
1 x,y,z
_cell_length_a 12.604800
_cell_length_b 7.338900
_cell_length_c 14.387700
_cell_angle_alpha 90.000000
_cell_angle_beta 107.622000
_cell_angle_gamma 90.000000
_cell_volume 1268.484466
loop_
_atom_site_label
_atom_site_type_symbol
_atom_site_fract_x
_atom_site_fract_y
_atom_site_fract_z
O1 O 0.223610 -0.154300 0.369940
O2 O 0.085330 0.281400 0.229520
N3 N 0.430190 -0.244900 0.301120
N4 N 0.249830 0.396000 0.114040
N5 N 0.263320 -0.440500 0.440410
N6 N 0.349230 -0.569600 0.452840
N7 N 0.011350 0.567000 0.177180
N8 N 0.027040 0.700000 0.111520
C9 C 0.382690 -0.102800 0.254420
H10 H 0.312200 -0.065900 0.259000
C11 C 0.289980 0.252800 0.161890
H12 H 0.255000 0.200400 0.205400
C13 C 0.435730 0.003300 0.194120
C14 C 0.391170 0.168700 0.149390
C15 C 0.447070 0.261400 0.093500
H16 H 0.417900 0.373800 0.063800
C17 C 0.543260 0.194200 0.080290
H18 H 0.579300 0.258600 0.041100
C19 C 0.587340 0.031600 0.124710
H20 H 0.654200 -0.015200 0.116500
C21 C 0.534110 -0.061600 0.180570
H22 H 0.565000 -0.172800 0.210600
C23 C 0.196080 -0.442600 0.503920
C24 C 0.233260 -0.525300 0.594610
H25 H 0.305900 -0.576000 0.616800
C26 C 0.163250 -0.533400 0.652650
H27 H 0.187700 -0.592200 0.714300
C28 C 0.058320 -0.456700 0.621510
H29 H 0.010400 -0.463700 0.661200
C30 C 0.023660 -0.369700 0.532130
H31 H -0.047800 -0.314300 0.511200
C32 C 0.091570 -0.362500 0.473010
H33 H 0.067000 -0.303000 0.411500
C34 C -0.094710 0.551700 0.192880
C35 C -0.190510 0.614700 0.123840
H36 H -0.186600 0.671100 0.065500
C37 C -0.291130 0.593900 0.141620
H38 H -0.357200 0.636500 0.095000
C39 C -0.297580 0.512400 0.225690
H40 H -0.367700 0.499700 0.236900
C41 C -0.202860 0.449100 0.293630
H42 H -0.207400 0.392300 0.351600
C43 C -0.100630 0.468600 0.276960
H44 H -0.034900 0.424800 0.323500
C45 C 0.279700 -0.294800 0.384730
C46 C 0.377150 -0.344700 0.356410
C47 C 0.414020 -0.509400 0.397190
C48 C 0.510170 -0.618700 0.389330
H49 H 0.483100 -0.721400 0.344900
H50 H 0.552100 -0.665000 0.453900
H51 H 0.558700 -0.541900 0.364000
C52 C 0.312000 -0.761900 0.444710
H53 H 0.254000 -0.780100 0.382300
H54 H 0.282100 -0.790900 0.498400
H55 H 0.375300 -0.841900 0.448000
C56 C 0.087480 0.425100 0.186200
C57 C 0.158790 0.484700 0.129430
C58 C 0.120910 0.648900 0.088660
C59 C 0.167320 0.765000 0.026110
H60 H 0.109700 0.788600 -0.035800
H61 H 0.230200 0.702400 0.013500
H62 H 0.192700 0.880800 0.059300
C63 C 0.016930 0.890100 0.141590
H64 H 0.074800 0.914800 0.203300
H65 H -0.056600 0.908200 0.150200
H66 H 0.025900 0.973400 0.091300
O67 O 0.776390 0.345700 0.630060
O68 O 0.914670 0.781400 0.770480
N69 N 0.569810 0.255100 0.698880
N70 N 0.750170 0.896000 0.885960
N71 N 0.736680 0.059500 0.559590
N72 N 0.650770 -0.069600 0.547160
N73 N 0.988650 1.067000 0.822820
N74 N 0.972960 1.200000 0.888480
C75 C 0.617310 0.397200 0.745580
H76 H 0.687800 0.434100 0.741000
C77 C 0.710020 0.752800 0.838110
H78 H 0.745000 0.700400 0.794600
C79 C 0.564270 0.503300 0.805880
C80 C 0.608830 0.668700 0.850610
C81 C 0.552930 0.761400 0.906500
H82 H 0.582100 0.873800 0.936200
C83 C 0.456740 0.694200 0.919710
H84 H 0.420700 0.758600 0.958900
C85 C 0.412660 0.531600 0.875290
H86 H 0.345800 0.484800 0.883500
C87 C 0.465890 0.438400 0.819430
H88 H 0.435000 0.327200 0.789400
C89 C 0.803920 0.057400 0.496080
C90 C 0.766740 -0.025300 0.405390
H91 H 0.694100 -0.076000 0.383200
C92 C 0.836750 -0.033400 0.347350
H93 H 0.812300 -0.092200 0.285700
C94 C 0.941680 0.043300 0.378490
H95 H 0.989600 0.036300 0.338800
C96 C 0.976340 0.130300 0.467870
H97 H 1.047800 0.185700 0.488800
C98 C 0.908430 0.137500 0.526990
H99 H 0.933000 0.197000 0.588500
C100 C 1.094710 1.051700 0.807120
C101 C 1.190510 1.114700 0.876160
H102 H 1.186600 1.171100 0.934500
C103 C 1.291130 1.093900 0.858380
H104 H 1.357200 1.136500 0.905000
C105 C 1.297580 1.012400 0.774310
H106 H 1.367700 0.999700 0.763100
C107 C 1.202860 0.949100 0.706370
H108 H 1.207400 0.892300 0.648400
C109 C 1.100630 0.968600 0.723040
H110 H 1.034900 0.924800 0.676500
C111 C 0.720300 0.205200 0.615270
C112 C 0.622850 0.155300 0.643590
C113 C 0.585980 -0.009400 0.602810
C114 C 0.489830 -0.118700 0.610670
H115 H 0.516900 -0.221400 0.655100
H116 H 0.447900 -0.165000 0.546100
H117 H 0.441300 -0.041900 0.636000
C118 C 0.688000 -0.261900 0.555290
H119 H 0.746000 -0.280100 0.617700
H120 H 0.717900 -0.290900 0.501600
H121 H 0.624700 -0.341900 0.552000
C122 C 0.912520 0.925100 0.813800
C123 C 0.841210 0.984700 0.870570
C124 C 0.879090 1.148900 0.911340
C125 C 0.832680 1.265000 0.973890
H126 H 0.890300 1.288600 1.035800
H127 H 0.769800 1.202400 0.986500
H128 H 0.807300 1.380800 0.940700
C129 C 0.983070 1.390100 0.858410
H130 H 0.925200 1.414800 0.796700
H131 H 1.056600 1.408200 0.849800
H132 H 0.974100 1.473400 0.908700

#END
