./ABADEP_from_xyz.cif_generated_by_CrystalShift
_symmetry_cell_setting triclinic
_symmetry_space_group_name_H-M 'P 1'
loop_
_symmetry_equiv_pos_site_id
_symmetry_equiv_pos_as_xyz
1 x,y,z
_cell_length_a 10.488300
_cell_length_b 13.936000
_cell_length_c 22.614400
_cell_angle_alpha 90.000000
_cell_angle_beta 97.772000
_cell_angle_gamma 90.000000
_cell_volume 3275.069043
loop_
_atom_site_label
_atom_site_type_symbol
_atom_site_fract_x
_atom_site_fract_y
_atom_site_fract_z
Cu1 Cu 0.374950 -0.126180 0.060180
P2 P 0.405110 -0.246550 -0.002940
P3 P 0.260170 -0.109100 0.131490
O4 O 0.333600 -0.019060 -0.005030
O5 O 0.445220 0.066060 -0.064400
O6 O 0.283650 -0.303260 -0.037330
O7 O 0.465750 -0.193640 -0.054840
O8 O 0.495280 -0.340150 0.008340
O9 O 0.320000 -0.059910 0.193710
O10 O 0.187280 -0.199260 0.156360
O11 O 0.146150 -0.036040 0.112650
C12 C 0.435400 0.013240 -0.019690
C13 C 0.156000 -0.277870 -0.030320
C14 C 0.075600 -0.351700 -0.018700
H15 H 0.106000 -0.414400 -0.014600
C16 C -0.051600 -0.330900 -0.013180
H17 H -0.107300 -0.380000 -0.005600
C18 C -0.095900 -0.237500 -0.018860
H19 H -0.181000 -0.223700 -0.014700
C20 C -0.013800 -0.164750 -0.030690
H21 H -0.043800 -0.101900 -0.034400
C22 C 0.113300 -0.184780 -0.037050
H23 H 0.168500 -0.136100 -0.045700
C24 C 0.486300 -0.222530 -0.112260
C25 C 0.522300 -0.150290 -0.147950
H26 H 0.532700 -0.087900 -0.133500
C27 C 0.542700 -0.171540 -0.205550
H28 H 0.567300 -0.123200 -0.230000
C29 C 0.526700 -0.264370 -0.227020
H30 H 0.539000 -0.278300 -0.266100
C31 C 0.492500 -0.335790 -0.190310
H32 H 0.482800 -0.398300 -0.204600
C33 C 0.472300 -0.315740 -0.132250
H34 H 0.449900 -0.364200 -0.107300
C35 C 0.594600 -0.356120 0.055250
C36 C 0.644500 -0.285590 0.094500
H37 H 0.616600 -0.222400 0.089500
C38 C 0.737400 -0.310940 0.141710
H39 H 0.770600 -0.264500 0.169100
C40 C 0.780900 -0.404110 0.148470
H41 H 0.841700 -0.420700 0.180700
C42 C 0.733700 -0.472720 0.107120
H43 H 0.764800 -0.535200 0.110900
C44 C 0.640600 -0.449110 0.060070
H45 H 0.609300 -0.495200 0.032100
C46 C 0.417600 -0.107160 0.231680
C47 C 0.384700 -0.156100 0.280530
H48 H 0.299100 -0.160900 0.286900
C49 C 0.481600 -0.197920 0.319930
H50 H 0.461100 -0.231300 0.353000
C51 C 0.608100 -0.190170 0.310370
H52 H 0.672700 -0.217800 0.337200
C53 C 0.639500 -0.141620 0.261120
H54 H 0.725000 -0.137200 0.254600
C55 C 0.543000 -0.099160 0.221170
H56 H 0.563200 -0.066000 0.188000
C57 C 0.209500 -0.295920 0.143740
C58 C 0.332300 -0.331770 0.145580
H59 H 0.403500 -0.291900 0.154200
C60 C 0.347700 -0.428620 0.134300
H61 H 0.429800 -0.453700 0.134100
C62 C 0.242000 -0.487750 0.123340
H63 H 0.253000 -0.552800 0.116200
C64 C 0.119900 -0.450850 0.122900
H65 H 0.048800 -0.491200 0.116000
C66 C 0.102900 -0.353630 0.132690
H67 H 0.020700 -0.328100 0.131800
C68 C 0.044400 -0.013490 0.145400
C69 C 0.064300 0.046130 0.194290
H70 H 0.146500 0.067500 0.209000
C71 C -0.041400 0.073380 0.220970
H72 H -0.030000 0.113400 0.254200
C73 C -0.162700 0.042080 0.199110
H74 H -0.233000 0.061100 0.217300
C75 C -0.180100 -0.017600 0.150080
H76 H -0.262400 -0.038700 0.135300
C77 C -0.076300 -0.046480 0.122600
H78 H -0.087600 -0.087000 0.089700
O79 O 0.666400 0.019060 0.005030
C80 C 0.564600 -0.013240 0.019690
O81 O 0.554780 -0.066060 0.064400
Cu82 Cu 0.625050 0.126180 -0.060180
P83 P 0.594890 0.246550 0.002940
P84 P 0.739830 0.109100 -0.131490
O85 O 0.716350 0.303260 0.037330
O86 O 0.534250 0.193640 0.054840
O87 O 0.504720 0.340150 -0.008340
O88 O 0.680000 0.059910 -0.193710
O89 O 0.812720 0.199260 -0.156360
O90 O 0.853850 0.036040 -0.112650
C91 C 0.844000 0.277870 0.030320
C92 C 0.924400 0.351700 0.018700
H93 H 0.894000 0.414400 0.014600
C94 C 1.051600 0.330900 0.013180
H95 H 1.107300 0.380000 0.005600
C96 C 1.095900 0.237500 0.018860
H97 H 1.181000 0.223700 0.014700
C98 C 1.013800 0.164750 0.030690
H99 H 1.043800 0.101900 0.034400
C100 C 0.886700 0.184780 0.037050
H101 H 0.831500 0.136100 0.045700
C102 C 0.513700 0.222530 0.112260
C103 C 0.477700 0.150290 0.147950
H104 H 0.467300 0.087900 0.133500
C105 C 0.457300 0.171540 0.205550
H106 H 0.432700 0.123200 0.230000
C107 C 0.473300 0.264370 0.227020
H108 H 0.461000 0.278300 0.266100
C109 C 0.507500 0.335790 0.190310
H110 H 0.517200 0.398300 0.204600
C111 C 0.527700 0.315740 0.132250
H112 H 0.550100 0.364200 0.107300
C113 C 0.405400 0.356120 -0.055250
C114 C 0.355500 0.285590 -0.094500
H115 H 0.383400 0.222400 -0.089500
C116 C 0.262600 0.310940 -0.141710
H117 H 0.229400 0.264500 -0.169100
C118 C 0.219100 0.404110 -0.148470
H119 H 0.158300 0.420700 -0.180700
C120 C 0.266300 0.472720 -0.107120
H121 H 0.235200 0.535200 -0.110900
C122 C 0.359400 0.449110 -0.060070
H123 H 0.390700 0.495200 -0.032100
C124 C 0.582400 0.107160 -0.231680
C125 C 0.615300 0.156100 -0.280530
H126 H 0.700900 0.160900 -0.286900
C127 C 0.518400 0.197920 -0.319930
H128 H 0.538900 0.231300 -0.353000
C129 C 0.391900 0.190170 -0.310370
H130 H 0.327300 0.217800 -0.337200
C131 C 0.360500 0.141620 -0.261120
H132 H 0.275000 0.137200 -0.254600
C133 C 0.457000 0.099160 -0.221170
H134 H 0.436800 0.066000 -0.188000
C135 C 0.790500 0.295920 -0.143740
C136 C 0.667700 0.331770 -0.145580
H137 H 0.596500 0.291900 -0.154200
C138 C 0.652300 0.428620 -0.134300
H139 H 0.570200 0.453700 -0.134100
C140 C 0.758000 0.487750 -0.123340
H141 H 0.747000 0.552800 -0.116200
C142 C 0.880100 0.450850 -0.122900
H143 H 0.951200 0.491200 -0.116000
C144 C 0.897100 0.353630 -0.132690
H145 H 0.979300 0.328100 -0.131800
C146 C 0.955600 0.013490 -0.145400
C147 C 0.935700 -0.046130 -0.194290
H148 H 0.853500 -0.067500 -0.209000
C149 C 1.041400 -0.073380 -0.220970
H150 H 1.030000 -0.113400 -0.254200
C151 C 1.162700 -0.042080 -0.199110
H152 H 1.233000 -0.061100 -0.217300
C153 C 1.180100 0.017600 -0.150080
H154 H 1.262400 0.038700 -0.135300
C155 C 1.076300 0.046480 -0.122600
H156 H 1.087600 0.087000 -0.089700
Cu157 Cu 0.374950 -0.126180 1.060180
P158 P 0.405110 -0.246550 0.997060
P159 P 0.260170 -0.109100 1.131490
O160 O 0.333600 -0.019060 0.994970
O161 O 0.445220 0.066060 0.935600
O162 O 0.283650 -0.303260 0.962670
O163 O 0.465750 -0.193640 0.945160
O164 O 0.495280 -0.340150 1.008340
O165 O 0.320000 -0.059910 1.193710
O166 O 0.187280 -0.199260 1.156360
O167 O 0.146150 -0.036040 1.112650
C168 C 0.435400 0.013240 0.980310
C169 C 0.156000 -0.277870 0.969680
C170 C 0.075600 -0.351700 0.981300
H171 H 0.106000 -0.414400 0.985400
C172 C -0.051600 -0.330900 0.986820
H173 H -0.107300 -0.380000 0.994400
C174 C -0.095900 -0.237500 0.981140
H175 H -0.181000 -0.223700 0.985300
C176 C -0.013800 -0.164750 0.969310
H177 H -0.043800 -0.101900 0.965600
C178 C 0.113300 -0.184780 0.962950
H179 H 0.168500 -0.136100 0.954300
C180 C 0.486300 -0.222530 0.887740
C181 C 0.522300 -0.150290 0.852050
H182 H 0.532700 -0.087900 0.866500
C183 C 0.542700 -0.171540 0.794450
H184 H 0.567300 -0.123200 0.770000
C185 C 0.526700 -0.264370 0.772980
H186 H 0.539000 -0.278300 0.733900
C187 C 0.492500 -0.335790 0.809690
H188 H 0.482800 -0.398300 0.795400
C189 C 0.472300 -0.315740 0.867750
H190 H 0.449900 -0.364200 0.892700
C191 C 0.594600 -0.356120 1.055250
C192 C 0.644500 -0.285590 1.094500
H193 H 0.616600 -0.222400 1.089500
C194 C 0.737400 -0.310940 1.141710
H195 H 0.770600 -0.264500 1.169100
C196 C 0.780900 -0.404110 1.148470
H197 H 0.841700 -0.420700 1.180700
C198 C 0.733700 -0.472720 1.107120
H199 H 0.764800 -0.535200 1.110900
C200 C 0.640600 -0.449110 1.060070
H201 H 0.609300 -0.495200 1.032100
C202 C 0.417600 -0.107160 1.231680
C203 C 0.384700 -0.156100 1.280530
H204 H 0.299100 -0.160900 1.286900
C205 C 0.481600 -0.197920 1.319930
H206 H 0.461100 -0.231300 1.353000
C207 C 0.608100 -0.190170 1.310370
H208 H 0.672700 -0.217800 1.337200
C209 C 0.639500 -0.141620 1.261120
H210 H 0.725000 -0.137200 1.254600
C211 C 0.543000 -0.099160 1.221170
H212 H 0.563200 -0.066000 1.188000
C213 C 0.209500 -0.295920 1.143740
C214 C 0.332300 -0.331770 1.145580
H215 H 0.403500 -0.291900 1.154200
C216 C 0.347700 -0.428620 1.134300
H217 H 0.429800 -0.453700 1.134100
C218 C 0.242000 -0.487750 1.123340
H219 H 0.253000 -0.552800 1.116200
C220 C 0.119900 -0.450850 1.122900
H221 H 0.048800 -0.491200 1.116000
C222 C 0.102900 -0.353630 1.132690
H223 H 0.020700 -0.328100 1.131800
C224 C 0.044400 -0.013490 1.145400
C225 C 0.064300 0.046130 1.194290
H226 H 0.146500 0.067500 1.209000
C227 C -0.041400 0.073380 1.220970
H228 H -0.030000 0.113400 1.254200
C229 C -0.162700 0.042080 1.199110
H230 H -0.233000 0.061100 1.217300
C231 C -0.180100 -0.017600 1.150080
H232 H -0.262400 -0.038700 1.135300
C233 C -0.076300 -0.046480 1.122600
H234 H -0.087600 -0.087000 1.089700
O235 O 0.666400 0.019060 1.005030
C236 C 0.564600 -0.013240 1.019690
O237 O 0.554780 -0.066060 1.064400
Cu238 Cu 0.625050 0.126180 0.939820
P239 P 0.594890 0.246550 1.002940
P240 P 0.739830 0.109100 0.868510
O241 O 0.716350 0.303260 1.037330
O242 O 0.534250 0.193640 1.054840
O243 O 0.504720 0.340150 0.991660
O244 O 0.680000 0.059910 0.806290
O245 O 0.812720 0.199260 0.843640
O246 O 0.853850 0.036040 0.887350
C247 C 0.844000 0.277870 1.030320
C248 C 0.924400 0.351700 1.018700
H249 H 0.894000 0.414400 1.014600
C250 C 1.051600 0.330900 1.013180
H251 H 1.107300 0.380000 1.005600
C252 C 1.095900 0.237500 1.018860
H253 H 1.181000 0.223700 1.014700
C254 C 1.013800 0.164750 1.030690
H255 H 1.043800 0.101900 1.034400
C256 C 0.886700 0.184780 1.037050
H257 H 0.831500 0.136100 1.045700
C258 C 0.513700 0.222530 1.112260
C259 C 0.477700 0.150290 1.147950
H260 H 0.467300 0.087900 1.133500
C261 C 0.457300 0.171540 1.205550
H262 H 0.432700 0.123200 1.230000
C263 C 0.473300 0.264370 1.227020
H264 H 0.461000 0.278300 1.266100
C265 C 0.507500 0.335790 1.190310
H266 H 0.517200 0.398300 1.204600
C267 C 0.527700 0.315740 1.132250
H268 H 0.550100 0.364200 1.107300
C269 C 0.405400 0.356120 0.944750
C270 C 0.355500 0.285590 0.905500
H271 H 0.383400 0.222400 0.910500
C272 C 0.262600 0.310940 0.858290
H273 H 0.229400 0.264500 0.830900
C274 C 0.219100 0.404110 0.851530
H275 H 0.158300 0.420700 0.819300
C276 C 0.266300 0.472720 0.892880
H277 H 0.235200 0.535200 0.889100
C278 C 0.359400 0.449110 0.939930
H279 H 0.390700 0.495200 0.967900
C280 C 0.582400 0.107160 0.768320
C281 C 0.615300 0.156100 0.719470
H282 H 0.700900 0.160900 0.713100
C283 C 0.518400 0.197920 0.680070
H284 H 0.538900 0.231300 0.647000
C285 C 0.391900 0.190170 0.689630
H286 H 0.327300 0.217800 0.662800
C287 C 0.360500 0.141620 0.738880
H288 H 0.275000 0.137200 0.745400
C289 C 0.457000 0.099160 0.778830
H290 H 0.436800 0.066000 0.812000
C291 C 0.790500 0.295920 0.856260
C292 C 0.667700 0.331770 0.854420
H293 H 0.596500 0.291900 0.845800
C294 C 0.652300 0.428620 0.865700
H295 H 0.570200 0.453700 0.865900
C296 C 0.758000 0.487750 0.876660
H297 H 0.747000 0.552800 0.883800
C298 C 0.880100 0.450850 0.877100
H299 H 0.951200 0.491200 0.884000
C300 C 0.897100 0.353630 0.867310
H301 H 0.979300 0.328100 0.868200
C302 C 0.955600 0.013490 0.854600
C303 C 0.935700 -0.046130 0.805710
H304 H 0.853500 -0.067500 0.791000
C305 C 1.041400 -0.073380 0.779030
H306 H 1.030000 -0.113400 0.745800
C307 C 1.162700 -0.042080 0.800890
H308 H 1.233000 -0.061100 0.782700
C309 C 1.180100 0.017600 0.849920
H310 H 1.262400 0.038700 0.864700
C311 C 1.076300 0.046480 0.877400
H312 H 1.087600 0.087000 0.910300
Cu313 Cu 0.374950 0.873820 0.060180
P314 P 0.405110 0.753450 -0.002940
P315 P 0.260170 0.890900 0.131490
O316 O 0.333600 0.980940 -0.005030
O317 O 0.445220 1.066060 -0.064400
O318 O 0.283650 0.696740 -0.037330
O319 O 0.465750 0.806360 -0.054840
O320 O 0.495280 0.659850 0.008340
O321 O 0.320000 0.940090 0.193710
O322 O 0.187280 0.800740 0.156360
O323 O 0.146150 0.963960 0.112650
C324 C 0.435400 1.013240 -0.019690
C325 C 0.156000 0.722130 -0.030320
C326 C 0.075600 0.648300 -0.018700
H327 H 0.106000 0.585600 -0.014600
C328 C -0.051600 0.669100 -0.013180
H329 H -0.107300 0.620000 -0.005600
C330 C -0.095900 0.762500 -0.018860
H331 H -0.181000 0.776300 -0.014700
C332 C -0.013800 0.835250 -0.030690
H333 H -0.043800 0.898100 -0.034400
C334 C 0.113300 0.815220 -0.037050
H335 H 0.168500 0.863900 -0.045700
C336 C 0.486300 0.777470 -0.112260
C337 C 0.522300 0.849710 -0.147950
H338 H 0.532700 0.912100 -0.133500
C339 C 0.542700 0.828460 -0.205550
H340 H 0.567300 0.876800 -0.230000
C341 C 0.526700 0.735630 -0.227020
H342 H 0.539000 0.721700 -0.266100
C343 C 0.492500 0.664210 -0.190310
H344 H 0.482800 0.601700 -0.204600
C345 C 0.472300 0.684260 -0.132250
H346 H 0.449900 0.635800 -0.107300
C347 C 0.594600 0.643880 0.055250
C348 C 0.644500 0.714410 0.094500
H349 H 0.616600 0.777600 0.089500
C350 C 0.737400 0.689060 0.141710
H351 H 0.770600 0.735500 0.169100
C352 C 0.780900 0.595890 0.148470
H353 H 0.841700 0.579300 0.180700
C354 C 0.733700 0.527280 0.107120
H355 H 0.764800 0.464800 0.110900
C356 C 0.640600 0.550890 0.060070
H357 H 0.609300 0.504800 0.032100
C358 C 0.417600 0.892840 0.231680
C359 C 0.384700 0.843900 0.280530
H360 H 0.299100 0.839100 0.286900
C361 C 0.481600 0.802080 0.319930
H362 H 0.461100 0.768700 0.353000
C363 C 0.608100 0.809830 0.310370
H364 H 0.672700 0.782200 0.337200
C365 C 0.639500 0.858380 0.261120
H366 H 0.725000 0.862800 0.254600
C367 C 0.543000 0.900840 0.221170
H368 H 0.563200 0.934000 0.188000
C369 C 0.209500 0.704080 0.143740
C370 C 0.332300 0.668230 0.145580
H371 H 0.403500 0.708100 0.154200
C372 C 0.347700 0.571380 0.134300
H373 H 0.429800 0.546300 0.134100
C374 C 0.242000 0.512250 0.123340
H375 H 0.253000 0.447200 0.116200
C376 C 0.119900 0.549150 0.122900
H377 H 0.048800 0.508800 0.116000
C378 C 0.102900 0.646370 0.132690
H379 H 0.020700 0.671900 0.131800
C380 C 0.044400 0.986510 0.145400
C381 C 0.064300 1.046130 0.194290
H382 H 0.146500 1.067500 0.209000
C383 C -0.041400 1.073380 0.220970
H384 H -0.030000 1.113400 0.254200
C385 C -0.162700 1.042080 0.199110
H386 H -0.233000 1.061100 0.217300
C387 C -0.180100 0.982400 0.150080
H388 H -0.262400 0.961300 0.135300
C389 C -0.076300 0.953520 0.122600
H390 H -0.087600 0.913000 0.089700
O391 O 0.666400 1.019060 0.005030
C392 C 0.564600 0.986760 0.019690
O393 O 0.554780 0.933940 0.064400
Cu394 Cu 0.625050 1.126180 -0.060180
P395 P 0.594890 1.246550 0.002940
P396 P 0.739830 1.109100 -0.131490
O397 O 0.716350 1.303260 0.037330
O398 O 0.534250 1.193640 0.054840
O399 O 0.504720 1.340150 -0.008340
O400 O 0.680000 1.059910 -0.193710
O401 O 0.812720 1.199260 -0.156360
O402 O 0.853850 1.036040 -0.112650
C403 C 0.844000 1.277870 0.030320
C404 C 0.924400 1.351700 0.018700
H405 H 0.894000 1.414400 0.014600
C406 C 1.051600 1.330900 0.013180
H407 H 1.107300 1.380000 0.005600
C408 C 1.095900 1.237500 0.018860
H409 H 1.181000 1.223700 0.014700
C410 C 1.013800 1.164750 0.030690
H411 H 1.043800 1.101900 0.034400
C412 C 0.886700 1.184780 0.037050
H413 H 0.831500 1.136100 0.045700
C414 C 0.513700 1.222530 0.112260
C415 C 0.477700 1.150290 0.147950
H416 H 0.467300 1.087900 0.133500
C417 C 0.457300 1.171540 0.205550
H418 H 0.432700 1.123200 0.230000
C419 C 0.473300 1.264370 0.227020
H420 H 0.461000 1.278300 0.266100
C421 C 0.507500 1.335790 0.190310
H422 H 0.517200 1.398300 0.204600
C423 C 0.527700 1.315740 0.132250
H424 H 0.550100 1.364200 0.107300
C425 C 0.405400 1.356120 -0.055250
C426 C 0.355500 1.285590 -0.094500
H427 H 0.383400 1.222400 -0.089500
C428 C 0.262600 1.310940 -0.141710
H429 H 0.229400 1.264500 -0.169100
C430 C 0.219100 1.404110 -0.148470
H431 H 0.158300 1.420700 -0.180700
C432 C 0.266300 1.472720 -0.107120
H433 H 0.235200 1.535200 -0.110900
C434 C 0.359400 1.449110 -0.060070
H435 H 0.390700 1.495200 -0.032100
C436 C 0.582400 1.107160 -0.231680
C437 C 0.615300 1.156100 -0.280530
H438 H 0.700900 1.160900 -0.286900
C439 C 0.518400 1.197920 -0.319930
H440 H 0.538900 1.231300 -0.353000
C441 C 0.391900 1.190170 -0.310370
H442 H 0.327300 1.217800 -0.337200
C443 C 0.360500 1.141620 -0.261120
H444 H 0.275000 1.137200 -0.254600
C445 C 0.457000 1.099160 -0.221170
H446 H 0.436800 1.066000 -0.188000
C447 C 0.790500 1.295920 -0.143740
C448 C 0.667700 1.331770 -0.145580
H449 H 0.596500 1.291900 -0.154200
C450 C 0.652300 1.428620 -0.134300
H451 H 0.570200 1.453700 -0.134100
C452 C 0.758000 1.487750 -0.123340
H453 H 0.747000 1.552800 -0.116200
C454 C 0.880100 1.450850 -0.122900
H455 H 0.951200 1.491200 -0.116000
C456 C 0.897100 1.353630 -0.132690
H457 H 0.979300 1.328100 -0.131800
C458 C 0.955600 1.013490 -0.145400
C459 C 0.935700 0.953870 -0.194290
H460 H 0.853500 0.932500 -0.209000
C461 C 1.041400 0.926620 -0.220970
H462 H 1.030000 0.886600 -0.254200
C463 C 1.162700 0.957920 -0.199110
H464 H 1.233000 0.938900 -0.217300
C465 C 1.180100 1.017600 -0.150080
H466 H 1.262400 1.038700 -0.135300
C467 C 1.076300 1.046480 -0.122600
H468 H 1.087600 1.087000 -0.089700
Cu469 Cu 0.374950 0.873820 1.060180
P470 P 0.405110 0.753450 0.997060
P471 P 0.260170 0.890900 1.131490
O472 O 0.333600 0.980940 0.994970
O473 O 0.445220 1.066060 0.935600
O474 O 0.283650 0.696740 0.962670
O475 O 0.465750 0.806360 0.945160
O476 O 0.495280 0.659850 1.008340
O477 O 0.320000 0.940090 1.193710
O478 O 0.187280 0.800740 1.156360
O479 O 0.146150 0.963960 1.112650
C480 C 0.435400 1.013240 0.980310
C481 C 0.156000 0.722130 0.969680
C482 C 0.075600 0.648300 0.981300
H483 H 0.106000 0.585600 0.985400
C484 C -0.051600 0.669100 0.986820
H485 H -0.107300 0.620000 0.994400
C486 C -0.095900 0.762500 0.981140
H487 H -0.181000 0.776300 0.985300
C488 C -0.013800 0.835250 0.969310
H489 H -0.043800 0.898100 0.965600
C490 C 0.113300 0.815220 0.962950
H491 H 0.168500 0.863900 0.954300
C492 C 0.486300 0.777470 0.887740
C493 C 0.522300 0.849710 0.852050
H494 H 0.532700 0.912100 0.866500
C495 C 0.542700 0.828460 0.794450
H496 H 0.567300 0.876800 0.770000
C497 C 0.526700 0.735630 0.772980
H498 H 0.539000 0.721700 0.733900
C499 C 0.492500 0.664210 0.809690
H500 H 0.482800 0.601700 0.795400
C501 C 0.472300 0.684260 0.867750
H502 H 0.449900 0.635800 0.892700
C503 C 0.594600 0.643880 1.055250
C504 C 0.644500 0.714410 1.094500
H505 H 0.616600 0.777600 1.089500
C506 C 0.737400 0.689060 1.141710
H507 H 0.770600 0.735500 1.169100
C508 C 0.780900 0.595890 1.148470
H509 H 0.841700 0.579300 1.180700
C510 C 0.733700 0.527280 1.107120
H511 H 0.764800 0.464800 1.110900
C512 C 0.640600 0.550890 1.060070
H513 H 0.609300 0.504800 1.032100
C514 C 0.417600 0.892840 1.231680
C515 C 0.384700 0.843900 1.280530
H516 H 0.299100 0.839100 1.286900
C517 C 0.481600 0.802080 1.319930
H518 H 0.461100 0.768700 1.353000
C519 C 0.608100 0.809830 1.310370
H520 H 0.672700 0.782200 1.337200
C521 C 0.639500 0.858380 1.261120
H522 H 0.725000 0.862800 1.254600
C523 C 0.543000 0.900840 1.221170
H524 H 0.563200 0.934000 1.188000
C525 C 0.209500 0.704080 1.143740
C526 C 0.332300 0.668230 1.145580
H527 H 0.403500 0.708100 1.154200
C528 C 0.347700 0.571380 1.134300
H529 H 0.429800 0.546300 1.134100
C530 C 0.242000 0.512250 1.123340
H531 H 0.253000 0.447200 1.116200
C532 C 0.119900 0.549150 1.122900
H533 H 0.048800 0.508800 1.116000
C534 C 0.102900 0.646370 1.132690
H535 H 0.020700 0.671900 1.131800
C536 C 0.044400 0.986510 1.145400
C537 C 0.064300 1.046130 1.194290
H538 H 0.146500 1.067500 1.209000
C539 C -0.041400 1.073380 1.220970
H540 H -0.030000 1.113400 1.254200
C541 C -0.162700 1.042080 1.199110
H542 H -0.233000 1.061100 1.217300
C543 C -0.180100 0.982400 1.150080
H544 H -0.262400 0.961300 1.135300
C545 C -0.076300 0.953520 1.122600
H546 H -0.087600 0.913000 1.089700
O547 O 0.666400 1.019060 1.005030
C548 C 0.564600 0.986760 1.019690
O549 O 0.554780 0.933940 1.064400
Cu550 Cu 0.625050 1.126180 0.939820
P551 P 0.594890 1.246550 1.002940
P552 P 0.739830 1.109100 0.868510
O553 O 0.716350 1.303260 1.037330
O554 O 0.534250 1.193640 1.054840
O555 O 0.504720 1.340150 0.991660
O556 O 0.680000 1.059910 0.806290
O557 O 0.812720 1.199260 0.843640
O558 O 0.853850 1.036040 0.887350
C559 C 0.844000 1.277870 1.030320
C560 C 0.924400 1.351700 1.018700
H561 H 0.894000 1.414400 1.014600
C562 C 1.051600 1.330900 1.013180
H563 H 1.107300 1.380000 1.005600
C564 C 1.095900 1.237500 1.018860
H565 H 1.181000 1.223700 1.014700
C566 C 1.013800 1.164750 1.030690
H567 H 1.043800 1.101900 1.034400
C568 C 0.886700 1.184780 1.037050
H569 H 0.831500 1.136100 1.045700
C570 C 0.513700 1.222530 1.112260
C571 C 0.477700 1.150290 1.147950
H572 H 0.467300 1.087900 1.133500
C573 C 0.457300 1.171540 1.205550
H574 H 0.432700 1.123200 1.230000
C575 C 0.473300 1.264370 1.227020
H576 H 0.461000 1.278300 1.266100
C577 C 0.507500 1.335790 1.190310
H578 H 0.517200 1.398300 1.204600
C579 C 0.527700 1.315740 1.132250
H580 H 0.550100 1.364200 1.107300
C581 C 0.405400 1.356120 0.944750
C582 C 0.355500 1.285590 0.905500
H583 H 0.383400 1.222400 0.910500
C584 C 0.262600 1.310940 0.858290
H585 H 0.229400 1.264500 0.830900
C586 C 0.219100 1.404110 0.851530
H587 H 0.158300 1.420700 0.819300
C588 C 0.266300 1.472720 0.892880
H589 H 0.235200 1.535200 0.889100
C590 C 0.359400 1.449110 0.939930
H591 H 0.390700 1.495200 0.967900
C592 C 0.582400 1.107160 0.768320
C593 C 0.615300 1.156100 0.719470
H594 H 0.700900 1.160900 0.713100
C595 C 0.518400 1.197920 0.680070
H596 H 0.538900 1.231300 0.647000
C597 C 0.391900 1.190170 0.689630
H598 H 0.327300 1.217800 0.662800
C599 C 0.360500 1.141620 0.738880
H600 H 0.275000 1.137200 0.745400
C601 C 0.457000 1.099160 0.778830
H602 H 0.436800 1.066000 0.812000
C603 C 0.790500 1.295920 0.856260
C604 C 0.667700 1.331770 0.854420
H605 H 0.596500 1.291900 0.845800
C606 C 0.652300 1.428620 0.865700
H607 H 0.570200 1.453700 0.865900
C608 C 0.758000 1.487750 0.876660
H609 H 0.747000 1.552800 0.883800
C610 C 0.880100 1.450850 0.877100
H611 H 0.951200 1.491200 0.884000
C612 C 0.897100 1.353630 0.867310
H613 H 0.979300 1.328100 0.868200
C614 C 0.955600 1.013490 0.854600
C615 C 0.935700 0.953870 0.805710
H616 H 0.853500 0.932500 0.791000
C617 C 1.041400 0.926620 0.779030
H618 H 1.030000 0.886600 0.745800
C619 C 1.162700 0.957920 0.800890
H620 H 1.233000 0.938900 0.782700
C621 C 1.180100 1.017600 0.849920
H622 H 1.262400 1.038700 0.864700
C623 C 1.076300 1.046480 0.877400
H624 H 1.087600 1.087000 0.910300
Cu625 Cu 0.125050 0.373820 0.439820
P626 P 0.094890 0.253450 0.502940
P627 P 0.239830 0.390900 0.368510
O628 O 0.166400 0.480940 0.505030
O629 O 0.054780 0.566060 0.564400
O630 O 0.216350 0.196740 0.537330
O631 O 0.034250 0.306360 0.554840
O632 O 0.004720 0.159850 0.491660
O633 O 0.180000 0.440090 0.306290
O634 O 0.312720 0.300740 0.343640
O635 O 0.353850 0.463960 0.387350
C636 C 0.064600 0.513240 0.519690
C637 C 0.344000 0.222130 0.530320
C638 C 0.424400 0.148300 0.518700
H639 H 0.394000 0.085600 0.514600
C640 C 0.551600 0.169100 0.513180
H641 H 0.607300 0.120000 0.505600
C642 C 0.595900 0.262500 0.518860
H643 H 0.681000 0.276300 0.514700
C644 C 0.513800 0.335250 0.530690
H645 H 0.543800 0.398100 0.534400
C646 C 0.386700 0.315220 0.537050
H647 H 0.331500 0.363900 0.545700
C648 C 0.013700 0.277470 0.612260
C649 C -0.022300 0.349710 0.647950
H650 H -0.032700 0.412100 0.633500
C651 C -0.042700 0.328460 0.705550
H652 H -0.067300 0.376800 0.730000
C653 C -0.026700 0.235630 0.727020
H654 H -0.039000 0.221700 0.766100
C655 C 0.007500 0.164210 0.690310
H656 H 0.017200 0.101700 0.704600
C657 C 0.027700 0.184260 0.632250
H658 H 0.050100 0.135800 0.607300
C659 C -0.094600 0.143880 0.444750
C660 C -0.144500 0.214410 0.405500
H661 H -0.116600 0.277600 0.410500
C662 C -0.237400 0.189060 0.358290
H663 H -0.270600 0.235500 0.330900
C664 C -0.280900 0.095890 0.351530
H665 H -0.341700 0.079300 0.319300
C666 C -0.233700 0.027280 0.392880
H667 H -0.264800 -0.035200 0.389100
C668 C -0.140600 0.050890 0.439930
H669 H -0.109300 0.004800 0.467900
C670 C 0.082400 0.392840 0.268320
C671 C 0.115300 0.343900 0.219470
H672 H 0.200900 0.339100 0.213100
C673 C 0.018400 0.302080 0.180070
H674 H 0.038900 0.268700 0.147000
C675 C -0.108100 0.309830 0.189630
H676 H -0.172700 0.282200 0.162800
C677 C -0.139500 0.358380 0.238880
H678 H -0.225000 0.362800 0.245400
C679 C -0.043000 0.400840 0.278830
H680 H -0.063200 0.434000 0.312000
C681 C 0.290500 0.204080 0.356260
C682 C 0.167700 0.168230 0.354420
H683 H 0.096500 0.208100 0.345800
C684 C 0.152300 0.071380 0.365700
H685 H 0.070200 0.046300 0.365900
C686 C 0.258000 0.012250 0.376660
H687 H 0.247000 -0.052800 0.383800
C688 C 0.380100 0.049150 0.377100
H689 H 0.451200 0.008800 0.384000
C690 C 0.397100 0.146370 0.367310
H691 H 0.479300 0.171900 0.368200
C692 C 0.455600 0.486510 0.354600
C693 C 0.435700 0.546130 0.305710
H694 H 0.353500 0.567500 0.291000
C695 C 0.541400 0.573380 0.279030
H696 H 0.530000 0.613400 0.245800
C697 C 0.662700 0.542080 0.300890
H698 H 0.733000 0.561100 0.282700
C699 C 0.680100 0.482400 0.349920
H700 H 0.762400 0.461300 0.364700
C701 C 0.576300 0.453520 0.377400
H702 H 0.587600 0.413000 0.410300
O703 O -0.166400 0.519060 0.494970
C704 C -0.064600 0.486760 0.480310
O705 O -0.054780 0.433940 0.435600
Cu706 Cu -0.125050 0.626180 0.560180
P707 P -0.094890 0.746550 0.497060
P708 P -0.239830 0.609100 0.631490
O709 O -0.216350 0.803260 0.462670
O710 O -0.034250 0.693640 0.445160
O711 O -0.004720 0.840150 0.508340
O712 O -0.180000 0.559910 0.693710
O713 O -0.312720 0.699260 0.656360
O714 O -0.353850 0.536040 0.612650
C715 C -0.344000 0.777870 0.469680
C716 C -0.424400 0.851700 0.481300
H717 H -0.394000 0.914400 0.485400
C718 C -0.551600 0.830900 0.486820
H719 H -0.607300 0.880000 0.494400
C720 C -0.595900 0.737500 0.481140
H721 H -0.681000 0.723700 0.485300
C722 C -0.513800 0.664750 0.469310
H723 H -0.543800 0.601900 0.465600
C724 C -0.386700 0.684780 0.462950
H725 H -0.331500 0.636100 0.454300
C726 C -0.013700 0.722530 0.387740
C727 C 0.022300 0.650290 0.352050
H728 H 0.032700 0.587900 0.366500
C729 C 0.042700 0.671540 0.294450
H730 H 0.067300 0.623200 0.270000
C731 C 0.026700 0.764370 0.272980
H732 H 0.039000 0.778300 0.233900
C733 C -0.007500 0.835790 0.309690
H734 H -0.017200 0.898300 0.295400
C735 C -0.027700 0.815740 0.367750
H736 H -0.050100 0.864200 0.392700
C737 C 0.094600 0.856120 0.555250
C738 C 0.144500 0.785590 0.594500
H739 H 0.116600 0.722400 0.589500
C740 C 0.237400 0.810940 0.641710
H741 H 0.270600 0.764500 0.669100
C742 C 0.280900 0.904110 0.648470
H743 H 0.341700 0.920700 0.680700
C744 C 0.233700 0.972720 0.607120
H745 H 0.264800 1.035200 0.610900
C746 C 0.140600 0.949110 0.560070
H747 H 0.109300 0.995200 0.532100
C748 C -0.082400 0.607160 0.731680
C749 C -0.115300 0.656100 0.780530
H750 H -0.200900 0.660900 0.786900
C751 C -0.018400 0.697920 0.819930
H752 H -0.038900 0.731300 0.853000
C753 C 0.108100 0.690170 0.810370
H754 H 0.172700 0.717800 0.837200
C755 C 0.139500 0.641620 0.761120
H756 H 0.225000 0.637200 0.754600
C757 C 0.043000 0.599160 0.721170
H758 H 0.063200 0.566000 0.688000
C759 C -0.290500 0.795920 0.643740
C760 C -0.167700 0.831770 0.645580
H761 H -0.096500 0.791900 0.654200
C762 C -0.152300 0.928620 0.634300
H763 H -0.070200 0.953700 0.634100
C764 C -0.258000 0.987750 0.623340
H765 H -0.247000 1.052800 0.616200
C766 C -0.380100 0.950850 0.622900
H767 H -0.451200 0.991200 0.616000
C768 C -0.397100 0.853630 0.632690
H769 H -0.479300 0.828100 0.631800
C770 C -0.455600 0.513490 0.645400
C771 C -0.435700 0.453870 0.694290
H772 H -0.353500 0.432500 0.709000
C773 C -0.541400 0.426620 0.720970
H774 H -0.530000 0.386600 0.754200
C775 C -0.662700 0.457920 0.699110
H776 H -0.733000 0.438900 0.717300
C777 C -0.680100 0.517600 0.650080
H778 H -0.762400 0.538700 0.635300
C779 C -0.576300 0.546480 0.622600
H780 H -0.587600 0.587000 0.589700
Cu781 Cu 1.125050 0.373820 0.439820
P782 P 1.094890 0.253450 0.502940
P783 P 1.239830 0.390900 0.368510
O784 O 1.166400 0.480940 0.505030
O785 O 1.054780 0.566060 0.564400
O786 O 1.216350 0.196740 0.537330
O787 O 1.034250 0.306360 0.554840
O788 O 1.004720 0.159850 0.491660
O789 O 1.180000 0.440090 0.306290
O790 O 1.312720 0.300740 0.343640
O791 O 1.353850 0.463960 0.387350
C792 C 1.064600 0.513240 0.519690
C793 C 1.344000 0.222130 0.530320
C794 C 1.424400 0.148300 0.518700
H795 H 1.394000 0.085600 0.514600
C796 C 1.551600 0.169100 0.513180
H797 H 1.607300 0.120000 0.505600
C798 C 1.595900 0.262500 0.518860
H799 H 1.681000 0.276300 0.514700
C800 C 1.513800 0.335250 0.530690
H801 H 1.543800 0.398100 0.534400
C802 C 1.386700 0.315220 0.537050
H803 H 1.331500 0.363900 0.545700
C804 C 1.013700 0.277470 0.612260
C805 C 0.977700 0.349710 0.647950
H806 H 0.967300 0.412100 0.633500
C807 C 0.957300 0.328460 0.705550
H808 H 0.932700 0.376800 0.730000
C809 C 0.973300 0.235630 0.727020
H810 H 0.961000 0.221700 0.766100
C811 C 1.007500 0.164210 0.690310
H812 H 1.017200 0.101700 0.704600
C813 C 1.027700 0.184260 0.632250
H814 H 1.050100 0.135800 0.607300
C815 C 0.905400 0.143880 0.444750
C816 C 0.855500 0.214410 0.405500
H817 H 0.883400 0.277600 0.410500
C818 C 0.762600 0.189060 0.358290
H819 H 0.729400 0.235500 0.330900
C820 C 0.719100 0.095890 0.351530
H821 H 0.658300 0.079300 0.319300
C822 C 0.766300 0.027280 0.392880
H823 H 0.735200 -0.035200 0.389100
C824 C 0.859400 0.050890 0.439930
H825 H 0.890700 0.004800 0.467900
C826 C 1.082400 0.392840 0.268320
C827 C 1.115300 0.343900 0.219470
H828 H 1.200900 0.339100 0.213100
C829 C 1.018400 0.302080 0.180070
H830 H 1.038900 0.268700 0.147000
C831 C 0.891900 0.309830 0.189630
H832 H 0.827300 0.282200 0.162800
C833 C 0.860500 0.358380 0.238880
H834 H 0.775000 0.362800 0.245400
C835 C 0.957000 0.400840 0.278830
H836 H 0.936800 0.434000 0.312000
C837 C 1.290500 0.204080 0.356260
C838 C 1.167700 0.168230 0.354420
H839 H 1.096500 0.208100 0.345800
C840 C 1.152300 0.071380 0.365700
H841 H 1.070200 0.046300 0.365900
C842 C 1.258000 0.012250 0.376660
H843 H 1.247000 -0.052800 0.383800
C844 C 1.380100 0.049150 0.377100
H845 H 1.451200 0.008800 0.384000
C846 C 1.397100 0.146370 0.367310
H847 H 1.479300 0.171900 0.368200
C848 C 1.455600 0.486510 0.354600
C849 C 1.435700 0.546130 0.305710
H850 H 1.353500 0.567500 0.291000
C851 C 1.541400 0.573380 0.279030
H852 H 1.530000 0.613400 0.245800
C853 C 1.662700 0.542080 0.300890
H854 H 1.733000 0.561100 0.282700
C855 C 1.680100 0.482400 0.349920
H856 H 1.762400 0.461300 0.364700
C857 C 1.576300 0.453520 0.377400
H858 H 1.587600 0.413000 0.410300
O859 O 0.833600 0.519060 0.494970
C860 C 0.935400 0.486760 0.480310
O861 O 0.945220 0.433940 0.435600
Cu862 Cu 0.874950 0.626180 0.560180
P863 P 0.905110 0.746550 0.497060
P864 P 0.760170 0.609100 0.631490
O865 O 0.783650 0.803260 0.462670
O866 O 0.965750 0.693640 0.445160
O867 O 0.995280 0.840150 0.508340
O868 O 0.820000 0.559910 0.693710
O869 O 0.687280 0.699260 0.656360
O870 O 0.646150 0.536040 0.612650
C871 C 0.656000 0.777870 0.469680
C872 C 0.575600 0.851700 0.481300
H873 H 0.606000 0.914400 0.485400
C874 C 0.448400 0.830900 0.486820
H875 H 0.392700 0.880000 0.494400
C876 C 0.404100 0.737500 0.481140
H877 H 0.319000 0.723700 0.485300
C878 C 0.486200 0.664750 0.469310
H879 H 0.456200 0.601900 0.465600
C880 C 0.613300 0.684780 0.462950
H881 H 0.668500 0.636100 0.454300
C882 C 0.986300 0.722530 0.387740
C883 C 1.022300 0.650290 0.352050
H884 H 1.032700 0.587900 0.366500
C885 C 1.042700 0.671540 0.294450
H886 H 1.067300 0.623200 0.270000
C887 C 1.026700 0.764370 0.272980
H888 H 1.039000 0.778300 0.233900
C889 C 0.992500 0.835790 0.309690
H890 H 0.982800 0.898300 0.295400
C891 C 0.972300 0.815740 0.367750
H892 H 0.949900 0.864200 0.392700
C893 C 1.094600 0.856120 0.555250
C894 C 1.144500 0.785590 0.594500
H895 H 1.116600 0.722400 0.589500
C896 C 1.237400 0.810940 0.641710
H897 H 1.270600 0.764500 0.669100
C898 C 1.280900 0.904110 0.648470
H899 H 1.341700 0.920700 0.680700
C900 C 1.233700 0.972720 0.607120
H901 H 1.264800 1.035200 0.610900
C902 C 1.140600 0.949110 0.560070
H903 H 1.109300 0.995200 0.532100
C904 C 0.917600 0.607160 0.731680
C905 C 0.884700 0.656100 0.780530
H906 H 0.799100 0.660900 0.786900
C907 C 0.981600 0.697920 0.819930
H908 H 0.961100 0.731300 0.853000
C909 C 1.108100 0.690170 0.810370
H910 H 1.172700 0.717800 0.837200
C911 C 1.139500 0.641620 0.761120
H912 H 1.225000 0.637200 0.754600
C913 C 1.043000 0.599160 0.721170
H914 H 1.063200 0.566000 0.688000
C915 C 0.709500 0.795920 0.643740
C916 C 0.832300 0.831770 0.645580
H917 H 0.903500 0.791900 0.654200
C918 C 0.847700 0.928620 0.634300
H919 H 0.929800 0.953700 0.634100
C920 C 0.742000 0.987750 0.623340
H921 H 0.753000 1.052800 0.616200
C922 C 0.619900 0.950850 0.622900
H923 H 0.548800 0.991200 0.616000
C924 C 0.602900 0.853630 0.632690
H925 H 0.520700 0.828100 0.631800
C926 C 0.544400 0.513490 0.645400
C927 C 0.564300 0.453870 0.694290
H928 H 0.646500 0.432500 0.709000
C929 C 0.458600 0.426620 0.720970
H930 H 0.470000 0.386600 0.754200
C931 C 0.337300 0.457920 0.699110
H932 H 0.267000 0.438900 0.717300
C933 C 0.319900 0.517600 0.650080
H934 H 0.237600 0.538700 0.635300
C935 C 0.423700 0.546480 0.622600
H936 H 0.412400 0.587000 0.589700

#END
