
#######################################################################
#
#                 Cambridge Crystallographic Data Centre
#                                CCDC 
#
#######################################################################
#
# If this CIF has been generated from an entry in the Cambridge 
# Structural Database, then it will include bibliographic, chemical, 
# crystal, experimental, refinement or atomic coordinate data resulting 
# from the CCDC's data processing and validation procedures.
#
#######################################################################

data_ABAGER
_symmetry_cell_setting           monoclinic
_symmetry_space_group_name_H-M   'P 21/c'
_symmetry_Int_Tables_number      14
_space_group_name_Hall           '-P 2ybc'
loop_
_symmetry_equiv_pos_site_id
_symmetry_equiv_pos_as_xyz
1 x,y,z
2 -x,1/2+y,1/2-z
3 -x,-y,-z
4 x,1/2-y,1/2+z
_cell_length_a                   7.9580(16)
_cell_length_b                   31.635(6)
_cell_length_c                   9.1850(18)
_cell_angle_alpha                90
_cell_angle_beta                 97.29(3)
_cell_angle_gamma                90
_cell_volume                     2293.64
loop_
_atom_site_label
_atom_site_type_symbol
_atom_site_fract_x
_atom_site_fract_y
_atom_site_fract_z
Cl1 Cl 1.06795(17) 0.98117(4) 0.78129(14)
O1 O 0.5208(3) 0.66925(8) 0.7812(2)
N1 N 0.4023(4) 0.64572(10) 0.5034(3)
F1 F 0.6286(3) 0.51310(8) 1.2146(3)
C1 C 0.4331(5) 0.59449(12) 0.9814(4)
H1 H 0.3389 0.6121 0.9757
O2 O 0.8631(4) 0.80660(8) 0.8732(3)
F2 F 0.7867(3) 0.57220(8) 0.7858(3)
N2 N 0.4433(5) 0.63841(11) 0.3638(3)
C2 C 0.4625(6) 0.56669(14) 1.0964(4)
H2 H 0.3904 0.5656 1.1684
N3 N 0.3111(4) 0.69903(10) 0.3756(3)
H3 H 0.2657 0.7229 0.3485
C3 C 0.5993(7) 0.54084(13) 1.1027(4)
C4 C 0.7106(6) 0.54183(13) 0.9996(4)
H4 H 0.8045 0.5241 1.0054
C5 C 0.6748(6) 0.57053(13) 0.8877(4)
C6 C 0.5399(5) 0.59716(12) 0.8733(4)
C7 C 0.5057(5) 0.62726(12) 0.7499(4)
C8 C 0.4462(5) 0.61470(11) 0.6153(4)
C9 C 0.4189(6) 0.57050(13) 0.5668(4)
H5 H 0.4507 0.5518 0.6480
H6 H 0.4867 0.5645 0.4899
H7 H 0.3014 0.5664 0.5307
C10 C 0.3847(6) 0.67162(14) 0.2922(4)
H8 H 0.3928 0.6760 0.1932
C11 C 0.3222(5) 0.68190(12) 0.5088(4)
H9 H 0.2811 0.6934 0.5905
C12 C 0.6628(5) 0.68174(11) 0.8866(4)
H10 H 0.7679 0.6721 0.8546
H11 H 0.6527 0.6691 0.9813
C13 C 0.6635(5) 0.72830(11) 0.8991(4)
H12 H 0.5584 0.7374 0.9325
H13 H 0.6681 0.7405 0.8028
C14 C 0.8110(5) 0.74505(12) 1.0040(4)
H14 H 0.8013 0.7342 1.1014
H15 H 0.9152 0.7339 0.9746
C15 C 0.8246(5) 0.79196(12) 1.0125(4)
H16 H 0.7186 0.8041 1.0342
H17 H 0.9135 0.8002 1.0895
C16 C 0.9051(5) 0.84798(12) 0.8603(4)
C17 C 0.9642(5) 0.85865(13) 0.7305(4)
H18 H 0.9710 0.8380 0.6593
C18 C 1.0133(5) 0.89934(14) 0.7049(4)
H19 H 1.0538 0.9062 0.6172
C19 C 1.0020(5) 0.93006(13) 0.8108(5)
C20 C 0.9427(6) 0.91986(14) 0.9391(5)
H20 H 0.9355 0.9405 1.0100
C21 C 0.8929(5) 0.87874(13) 0.9644(4)
H21 H 0.8514 0.8720 1.0517
Cl1 Cl -0.06795(17) 0.48117(4) 0.71871(14)
O1 O 0.4792(3) 0.16925(8) 0.7188(2)
N1 N 0.5977(4) 0.14572(10) 0.9966(3)
F1 F 0.3714(3) 0.01310(8) 0.2854(3)
C1 C 0.5669(5) 0.09449(12) 0.5186(4)
H1 H 0.6611 0.1121 0.5243
O2 O 0.1369(4) 0.30660(8) 0.6268(3)
F2 F 0.2133(3) 0.07220(8) 0.7142(3)
N2 N 0.5567(5) 0.13841(11) 1.1362(3)
C2 C 0.5375(6) 0.06669(14) 0.4036(4)
H2 H 0.6096 0.0656 0.3316
N3 N 0.6889(4) 0.19903(10) 1.1244(3)
H3 H 0.7343 0.2229 1.1515
C3 C 0.4007(7) 0.04084(13) 0.3973(4)
C4 C 0.2894(6) 0.04183(13) 0.5004(4)
H4 H 0.1955 0.0241 0.4946
C5 C 0.3252(6) 0.07053(13) 0.6123(4)
C6 C 0.4601(5) 0.09716(12) 0.6267(4)
C7 C 0.4943(5) 0.12726(12) 0.7501(4)
C8 C 0.5538(5) 0.11470(11) 0.8847(4)
C9 C 0.5811(6) 0.07050(13) 0.9332(4)
H5 H 0.5493 0.0518 0.8520
H6 H 0.5133 0.0645 1.0101
H7 H 0.6986 0.0664 0.9693
C10 C 0.6153(6) 0.17162(14) 1.2078(4)
H8 H 0.6072 0.1760 1.3068
C11 C 0.6778(5) 0.18190(12) 0.9912(4)
H9 H 0.7189 0.1934 0.9095
C12 C 0.3372(5) 0.18174(11) 0.6134(4)
H10 H 0.2321 0.1721 0.6454
H11 H 0.3473 0.1691 0.5187
C13 C 0.3365(5) 0.22830(11) 0.6009(4)
H12 H 0.4416 0.2374 0.5675
H13 H 0.3319 0.2405 0.6972
C14 C 0.1890(5) 0.24505(12) 0.4960(4)
H14 H 0.1987 0.2342 0.3986
H15 H 0.0848 0.2339 0.5254
C15 C 0.1754(5) 0.29196(12) 0.4875(4)
H16 H 0.2814 0.3041 0.4658
H17 H 0.0865 0.3002 0.4105
C16 C 0.0949(5) 0.34798(12) 0.6397(4)
C17 C 0.0358(5) 0.35865(13) 0.7695(4)
H18 H 0.0290 0.3380 0.8407
C18 C -0.0133(5) 0.39934(14) 0.7951(4)
H19 H -0.0538 0.4062 0.8828
C19 C -0.0020(5) 0.43006(13) 0.6892(5)
C20 C 0.0573(6) 0.41986(14) 0.5609(5)
H20 H 0.0645 0.4405 0.4900
C21 C 0.1071(5) 0.37874(13) 0.5356(4)
H21 H 0.1486 0.3720 0.4483
Cl1 Cl -0.06795(17) 0.01883(4) 0.21871(14)
O1 O 0.4792(3) 0.33075(8) 0.2188(2)
N1 N 0.5977(4) 0.35428(10) 0.4966(3)
F1 F 0.3714(3) 0.48690(8) -0.2146(3)
C1 C 0.5669(5) 0.40551(12) 0.0186(4)
H1 H 0.6611 0.3879 0.0243
O2 O 0.1369(4) 0.19340(8) 0.1268(3)
F2 F 0.2133(3) 0.42780(8) 0.2142(3)
N2 N 0.5567(5) 0.36159(11) 0.6362(3)
C2 C 0.5375(6) 0.43331(14) -0.0964(4)
H2 H 0.6096 0.4344 -0.1684
N3 N 0.6889(4) 0.30097(10) 0.6244(3)
H3 H 0.7343 0.2771 0.6515
C3 C 0.4007(7) 0.45916(13) -0.1027(4)
C4 C 0.2894(6) 0.45817(13) 0.0004(4)
H4 H 0.1955 0.4759 -0.0054
C5 C 0.3252(6) 0.42947(13) 0.1123(4)
C6 C 0.4601(5) 0.40284(12) 0.1267(4)
C7 C 0.4943(5) 0.37274(12) 0.2501(4)
C8 C 0.5538(5) 0.38530(11) 0.3847(4)
C9 C 0.5811(6) 0.42950(13) 0.4332(4)
H5 H 0.5493 0.4482 0.3520
H6 H 0.5133 0.4355 0.5101
H7 H 0.6986 0.4336 0.4693
C10 C 0.6153(6) 0.32838(14) 0.7078(4)
H8 H 0.6072 0.3240 0.8068
C11 C 0.6778(5) 0.31810(12) 0.4912(4)
H9 H 0.7189 0.3066 0.4095
C12 C 0.3372(5) 0.31826(11) 0.1134(4)
H10 H 0.2321 0.3279 0.1454
H11 H 0.3473 0.3309 0.0187
C13 C 0.3365(5) 0.27170(11) 0.1009(4)
H12 H 0.4416 0.2626 0.0675
H13 H 0.3319 0.2595 0.1972
C14 C 0.1890(5) 0.25495(12) -0.0040(4)
H14 H 0.1987 0.2658 -0.1014
H15 H 0.0848 0.2661 0.0254
C15 C 0.1754(5) 0.20804(12) -0.0125(4)
H16 H 0.2814 0.1959 -0.0342
H17 H 0.0865 0.1998 -0.0895
C16 C 0.0949(5) 0.15202(12) 0.1397(4)
C17 C 0.0358(5) 0.14135(13) 0.2695(4)
H18 H 0.0290 0.1620 0.3407
C18 C -0.0133(5) 0.10066(14) 0.2951(4)
H19 H -0.0538 0.0938 0.3828
C19 C -0.0020(5) 0.06994(13) 0.1892(5)
C20 C 0.0573(6) 0.08014(14) 0.0609(5)
H20 H 0.0645 0.0595 -0.0100
C21 C 0.1071(5) 0.12126(13) 0.0356(4)
H21 H 0.1486 0.1280 -0.0517
Cl1 Cl 1.06795(17) 0.51883(4) 0.28129(14)
O1 O 0.5208(3) 0.83075(8) 0.2812(2)
N1 N 0.4023(4) 0.85428(10) 0.0034(3)
F1 F 0.6286(3) 0.98690(8) 0.7146(3)
C1 C 0.4331(5) 0.90551(12) 0.4814(4)
H1 H 0.3389 0.8879 0.4757
O2 O 0.8631(4) 0.69340(8) 0.3732(3)
F2 F 0.7867(3) 0.92780(8) 0.2858(3)
N2 N 0.4433(5) 0.86159(11) -0.1362(3)
C2 C 0.4625(6) 0.93331(14) 0.5964(4)
H2 H 0.3904 0.9344 0.6684
N3 N 0.3111(4) 0.80097(10) -0.1244(3)
H3 H 0.2657 0.7771 -0.1515
C3 C 0.5993(7) 0.95916(13) 0.6027(4)
C4 C 0.7106(6) 0.95817(13) 0.4996(4)
H4 H 0.8045 0.9759 0.5054
C5 C 0.6748(6) 0.92947(13) 0.3877(4)
C6 C 0.5399(5) 0.90284(12) 0.3733(4)
C7 C 0.5057(5) 0.87274(12) 0.2499(4)
C8 C 0.4462(5) 0.88530(11) 0.1153(4)
C9 C 0.4189(6) 0.92950(13) 0.0668(4)
H5 H 0.4507 0.9482 0.1480
H6 H 0.4867 0.9355 -0.0101
H7 H 0.3014 0.9336 0.0307
C10 C 0.3847(6) 0.82838(14) -0.2078(4)
H8 H 0.3928 0.8240 -0.3068
C11 C 0.3222(5) 0.81810(12) 0.0088(4)
H9 H 0.2811 0.8066 0.0905
C12 C 0.6628(5) 0.81826(11) 0.3866(4)
H10 H 0.7679 0.8279 0.3546
H11 H 0.6527 0.8309 0.4813
C13 C 0.6635(5) 0.77170(11) 0.3991(4)
H12 H 0.5584 0.7626 0.4325
H13 H 0.6681 0.7595 0.3028
C14 C 0.8110(5) 0.75495(12) 0.5040(4)
H14 H 0.8013 0.7658 0.6014
H15 H 0.9152 0.7661 0.4746
C15 C 0.8246(5) 0.70804(12) 0.5125(4)
H16 H 0.7186 0.6959 0.5342
H17 H 0.9135 0.6998 0.5895
C16 C 0.9051(5) 0.65202(12) 0.3603(4)
C17 C 0.9642(5) 0.64135(13) 0.2305(4)
H18 H 0.9710 0.6620 0.1593
C18 C 1.0133(5) 0.60066(14) 0.2049(4)
H19 H 1.0538 0.5938 0.1172
C19 C 1.0020(5) 0.56994(13) 0.3108(5)
C20 C 0.9427(6) 0.58014(14) 0.4391(5)
H20 H 0.9355 0.5595 0.5100
C21 C 0.8929(5) 0.62126(13) 0.4644(4)
H21 H 0.8514 0.6280 0.5517
N4 N 0.1836(4) 0.79947(13) 0.3777(4)
O3 O 0.1244(4) 0.83434(11) 0.3510(4)
O4 O 0.2476(4) 0.78801(11) 0.5018(3)
O5 O 0.1781(3) 0.77208(8) 0.2747(3)
N4 N 0.8164(4) 0.29947(13) 0.1223(4)
O3 O 0.8756(4) 0.33434(11) 0.1490(4)
O4 O 0.7524(4) 0.28801(11) -0.0018(3)
O5 O 0.8219(3) 0.27208(8) 0.2253(3)
N4 N 0.8164(4) 0.20053(13) 0.6223(4)
O3 O 0.8756(4) 0.16566(11) 0.6490(4)
O4 O 0.7524(4) 0.21199(11) 0.4982(3)
O5 O 0.8219(3) 0.22792(8) 0.7253(3)
N4 N 0.1836(4) 0.70053(13) 0.8777(4)
O3 O 0.1244(4) 0.66566(11) 0.8510(4)
O4 O 0.2476(4) 0.71199(11) 1.0018(3)
O5 O 0.1781(3) 0.72792(8) 0.7747(3)

#END
