./ABAKEV02_from_xyz.cif_generated_by_CrystalShift
_symmetry_cell_setting triclinic
_symmetry_space_group_name_H-M 'P 1'
loop_
_symmetry_equiv_pos_site_id
_symmetry_equiv_pos_as_xyz
1 x,y,z
_cell_length_a 7.175200
_cell_length_b 21.684100
_cell_length_c 10.776400
_cell_angle_alpha 90.000000
_cell_angle_beta 110.035000
_cell_angle_gamma 90.000000
_cell_volume 1575.209322
loop_
_atom_site_label
_atom_site_type_symbol
_atom_site_fract_x
_atom_site_fract_y
_atom_site_fract_z
O1 O 1.056300 0.016240 0.832270
N2 N 0.763500 -0.035860 0.522050
C3 C 0.966600 -0.014830 0.740000
H4 H 0.969900 -0.057300 0.753100
C5 C 0.850700 0.007960 0.606690
C6 C 0.838500 0.070700 0.575830
H7 H 0.905600 0.099500 0.639300
C8 C 0.728400 0.089070 0.453200
H9 H 0.718100 0.130700 0.431400
C10 C 0.629600 0.044980 0.358990
C11 C 0.652500 -0.017860 0.396610
C12 C 0.560800 -0.063400 0.303500
H13 H 0.575900 -0.104800 0.327100
C14 C 0.449900 -0.046770 0.178700
H15 H 0.390800 -0.077200 0.116900
C16 C 0.423000 0.014740 0.141400
H17 H 0.343800 0.025000 0.055700
C18 C 0.510700 0.060020 0.228300
H19 H 0.492500 0.101100 0.201900
O20 O -0.056300 0.516240 -0.332270
N21 N 0.236500 0.464140 -0.022050
C22 C 0.033400 0.485170 -0.240000
H23 H 0.030100 0.442700 -0.253100
C24 C 0.149300 0.507960 -0.106690
C25 C 0.161500 0.570700 -0.075830
H26 H 0.094400 0.599500 -0.139300
C27 C 0.271600 0.589070 0.046800
H28 H 0.281900 0.630700 0.068600
C29 C 0.370400 0.544980 0.141010
C30 C 0.347500 0.482140 0.103390
C31 C 0.439200 0.436600 0.196500
H32 H 0.424100 0.395200 0.172900
C33 C 0.550100 0.453230 0.321300
H34 H 0.609200 0.422800 0.383100
C35 C 0.577000 0.514740 0.358600
H36 H 0.656200 0.525000 0.444300
C37 C 0.489300 0.560020 0.271700
H38 H 0.507500 0.601100 0.298100
O39 O -0.056300 0.983760 0.167730
N40 N 0.236500 1.035860 0.477950
C41 C 0.033400 1.014830 0.260000
H42 H 0.030100 1.057300 0.246900
C43 C 0.149300 0.992040 0.393310
C44 C 0.161500 0.929300 0.424170
H45 H 0.094400 0.900500 0.360700
C46 C 0.271600 0.910930 0.546800
H47 H 0.281900 0.869300 0.568600
C48 C 0.370400 0.955020 0.641010
C49 C 0.347500 1.017860 0.603390
C50 C 0.439200 1.063400 0.696500
H51 H 0.424100 1.104800 0.672900
C52 C 0.550100 1.046770 0.821300
H53 H 0.609200 1.077200 0.883100
C54 C 0.577000 0.985260 0.858600
H55 H 0.656200 0.975000 0.944300
C56 C 0.489300 0.939980 0.771700
H57 H 0.507500 0.898900 0.798100
O58 O 1.056300 0.483760 1.332270
N59 N 0.763500 0.535860 1.022050
C60 C 0.966600 0.514830 1.240000
H61 H 0.969900 0.557300 1.253100
C62 C 0.850700 0.492040 1.106690
C63 C 0.838500 0.429300 1.075830
H64 H 0.905600 0.400500 1.139300
C65 C 0.728400 0.410930 0.953200
H66 H 0.718100 0.369300 0.931400
C67 C 0.629600 0.455020 0.858990
C68 C 0.652500 0.517860 0.896610
C69 C 0.560800 0.563400 0.803500
H70 H 0.575900 0.604800 0.827100
C71 C 0.449900 0.546770 0.678700
H72 H 0.390800 0.577200 0.616900
C73 C 0.423000 0.485260 0.641400
H74 H 0.343800 0.475000 0.555700
C75 C 0.510700 0.439980 0.728300
H76 H 0.492500 0.398900 0.701900
O77 O -0.379800 0.282070 0.722800
N78 N -0.065700 0.228890 0.562260
C79 C -0.289000 0.249870 0.673500
H80 H -0.301200 0.207400 0.680200
C81 C -0.159200 0.272490 0.602900
C82 C -0.138800 0.335550 0.583330
H83 H -0.209100 0.364400 0.613600
C84 C -0.015700 0.353890 0.520060
H85 H -0.000400 0.395600 0.506200
C86 C 0.089600 0.309600 0.475080
C87 C 0.059700 0.247000 0.498220
C88 C 0.160900 0.201320 0.452800
H89 H 0.142500 0.159800 0.467100
C90 C 0.285500 0.218220 0.388000
H91 H 0.352100 0.188000 0.358500
C92 C 0.314900 0.280130 0.365200
H93 H 0.400800 0.290800 0.320800
C94 C 0.219400 0.324600 0.407200
H95 H 0.239600 0.365800 0.391100
O96 O 1.379800 0.782070 0.777200
N97 N 1.065700 0.728890 0.937740
C98 C 1.289000 0.749870 0.826500
H99 H 1.301200 0.707400 0.819800
C100 C 1.159200 0.772490 0.897100
C101 C 1.138800 0.835550 0.916670
H102 H 1.209100 0.864400 0.886400
C103 C 1.015700 0.853890 0.979940
H104 H 1.000400 0.895600 0.993800
C105 C 0.910400 0.809600 1.024920
C106 C 0.940300 0.747000 1.001780
C107 C 0.839100 0.701320 1.047200
H108 H 0.857500 0.659800 1.032900
C109 C 0.714500 0.718220 1.112000
H110 H 0.647900 0.688000 1.141500
C111 C 0.685100 0.780130 1.134800
H112 H 0.599200 0.790800 1.179200
C113 C 0.780600 0.824600 1.092800
H114 H 0.760400 0.865800 1.108900
O115 O 1.379800 0.717930 0.277200
N116 N 1.065700 0.771110 0.437740
C117 C 1.289000 0.750130 0.326500
H118 H 1.301200 0.792600 0.319800
C119 C 1.159200 0.727510 0.397100
C120 C 1.138800 0.664450 0.416670
H121 H 1.209100 0.635600 0.386400
C122 C 1.015700 0.646110 0.479940
H123 H 1.000400 0.604400 0.493800
C124 C 0.910400 0.690400 0.524920
C125 C 0.940300 0.753000 0.501780
C126 C 0.839100 0.798680 0.547200
H127 H 0.857500 0.840200 0.532900
C128 C 0.714500 0.781780 0.612000
H129 H 0.647900 0.812000 0.641500
C130 C 0.685100 0.719870 0.634800
H131 H 0.599200 0.709200 0.679200
C132 C 0.780600 0.675400 0.592800
H133 H 0.760400 0.634200 0.608900
O134 O -0.379800 0.217930 0.222800
N135 N -0.065700 0.271110 0.062260
C136 C -0.289000 0.250130 0.173500
H137 H -0.301200 0.292600 0.180200
C138 C -0.159200 0.227510 0.102900
C139 C -0.138800 0.164450 0.083330
H140 H -0.209100 0.135600 0.113600
C141 C -0.015700 0.146110 0.020060
H142 H -0.000400 0.104400 0.006200
C143 C 0.089600 0.190400 -0.024920
C144 C 0.059700 0.253000 -0.001780
C145 C 0.160900 0.298680 -0.047200
H146 H 0.142500 0.340200 -0.032900
C147 C 0.285500 0.281780 -0.112000
H148 H 0.352100 0.312000 -0.141500
C149 C 0.314900 0.219870 -0.134800
H150 H 0.400800 0.209200 -0.179200
C151 C 0.219400 0.175400 -0.092800
H152 H 0.239600 0.134200 -0.108900

#END
