./ABAQOL_from_xyz.cif_generated_by_CrystalShift
_symmetry_cell_setting triclinic
_symmetry_space_group_name_H-M 'P 1'
loop_
_symmetry_equiv_pos_site_id
_symmetry_equiv_pos_as_xyz
1 x,y,z
_cell_length_a 16.994100
_cell_length_b 5.889500
_cell_length_c 12.093000
_cell_angle_alpha 90.000000
_cell_angle_beta 91.770000
_cell_angle_gamma 90.000000
_cell_volume 1209.771591
loop_
_atom_site_label
_atom_site_type_symbol
_atom_site_fract_x
_atom_site_fract_y
_atom_site_fract_z
S1 S 0.147760 0.263240 0.568130
Cl2 Cl 0.037830 1.000560 0.325580
N3 N 0.249620 0.231010 0.413120
N4 N 0.319880 -0.078100 0.441940
N5 N 0.265540 -0.062130 0.527260
C6 C 0.357710 -0.006700 0.190260
H7 H 0.329900 -0.142300 0.194000
C8 C 0.401710 0.041000 0.098180
H9 H 0.402900 -0.062100 0.040000
C10 C 0.443710 0.241300 0.092780
H11 H 0.473600 0.271900 0.031400
C12 C 0.441440 0.396900 0.178830
H13 H 0.469800 0.531600 0.175000
C14 C 0.396910 0.351500 0.270570
H15 H 0.394800 0.456600 0.327800
C16 C 0.355310 0.148200 0.276730
C17 C 0.309520 0.096500 0.375440
C18 C 0.225870 0.123300 0.507090
C19 C 0.204600 0.420200 0.381830
C20 C 0.211080 0.553500 0.288110
H21 H 0.249500 0.523900 0.236900
C22 C 0.158930 0.731700 0.272640
H23 H 0.162000 0.823400 0.210300
C24 C 0.101950 0.774400 0.349980
C25 C 0.094320 0.642500 0.444190
H26 H 0.055900 0.673400 0.495200
C27 C 0.146230 0.462900 0.459090
S28 S 0.852240 0.763240 -0.068130
Cl29 Cl 0.962170 1.500560 0.174420
N30 N 0.750380 0.731010 0.086880
N31 N 0.680120 0.421900 0.058060
N32 N 0.734460 0.437870 -0.027260
C33 C 0.642290 0.493300 0.309740
H34 H 0.670100 0.357700 0.306000
C35 C 0.598290 0.541000 0.401820
H36 H 0.597100 0.437900 0.460000
C37 C 0.556290 0.741300 0.407220
H38 H 0.526400 0.771900 0.468600
C39 C 0.558560 0.896900 0.321170
H40 H 0.530200 1.031600 0.325000
C41 C 0.603090 0.851500 0.229430
H42 H 0.605200 0.956600 0.172200
C43 C 0.644690 0.648200 0.223270
C44 C 0.690480 0.596500 0.124560
C45 C 0.774130 0.623300 -0.007090
C46 C 0.795400 0.920200 0.118170
C47 C 0.788920 1.053500 0.211890
H48 H 0.750500 1.023900 0.263100
C49 C 0.841070 1.231700 0.227360
H50 H 0.838000 1.323400 0.289700
C51 C 0.898050 1.274400 0.150020
C52 C 0.905680 1.142500 0.055810
H53 H 0.944100 1.173400 0.004800
C54 C 0.853770 0.962900 0.040910
S55 S 0.852240 0.736760 0.431870
Cl56 Cl 0.962170 -0.000560 0.674420
N57 N 0.750380 0.768990 0.586880
N58 N 0.680120 1.078100 0.558060
N59 N 0.734460 1.062130 0.472740
C60 C 0.642290 1.006700 0.809740
H61 H 0.670100 1.142300 0.806000
C62 C 0.598290 0.959000 0.901820
H63 H 0.597100 1.062100 0.960000
C64 C 0.556290 0.758700 0.907220
H65 H 0.526400 0.728100 0.968600
C66 C 0.558560 0.603100 0.821170
H67 H 0.530200 0.468400 0.825000
C68 C 0.603090 0.648500 0.729430
H69 H 0.605200 0.543400 0.672200
C70 C 0.644690 0.851800 0.723270
C71 C 0.690480 0.903500 0.624560
C72 C 0.774130 0.876700 0.492910
C73 C 0.795400 0.579800 0.618170
C74 C 0.788920 0.446500 0.711890
H75 H 0.750500 0.476100 0.763100
C76 C 0.841070 0.268300 0.727360
H77 H 0.838000 0.176600 0.789700
C78 C 0.898050 0.225600 0.650020
C79 C 0.905680 0.357500 0.555810
H80 H 0.944100 0.326600 0.504800
C81 C 0.853770 0.537100 0.540910
S82 S 0.147760 0.236760 1.068130
Cl83 Cl 0.037830 -0.500560 0.825580
N84 N 0.249620 0.268990 0.913120
N85 N 0.319880 0.578100 0.941940
N86 N 0.265540 0.562130 1.027260
C87 C 0.357710 0.506700 0.690260
H88 H 0.329900 0.642300 0.694000
C89 C 0.401710 0.459000 0.598180
H90 H 0.402900 0.562100 0.540000
C91 C 0.443710 0.258700 0.592780
H92 H 0.473600 0.228100 0.531400
C93 C 0.441440 0.103100 0.678830
H94 H 0.469800 -0.031600 0.675000
C95 C 0.396910 0.148500 0.770570
H96 H 0.394800 0.043400 0.827800
C97 C 0.355310 0.351800 0.776730
C98 C 0.309520 0.403500 0.875440
C99 C 0.225870 0.376700 1.007090
C100 C 0.204600 0.079800 0.881830
C101 C 0.211080 -0.053500 0.788110
H102 H 0.249500 -0.023900 0.736900
C103 C 0.158930 -0.231700 0.772640
H104 H 0.162000 -0.323400 0.710300
C105 C 0.101950 -0.274400 0.849980
C106 C 0.094320 -0.142500 0.944190
H107 H 0.055900 -0.173400 0.995200
C108 C 0.146230 0.037100 0.959090

#END
