./ABAXUZ_from_xyz.cif_generated_by_CrystalShift
_symmetry_cell_setting triclinic
_symmetry_space_group_name_H-M 'P 1'
loop_
_symmetry_equiv_pos_site_id
_symmetry_equiv_pos_as_xyz
1 x,y,z
_cell_length_a 9.997000
_cell_length_b 10.946000
_cell_length_c 12.103000
_cell_angle_alpha 104.479000
_cell_angle_beta 101.153000
_cell_angle_gamma 109.891000
_cell_volume 1148.035948
loop_
_atom_site_label
_atom_site_type_symbol
_atom_site_fract_x
_atom_site_fract_y
_atom_site_fract_z
C1 C 0.328400 0.749000 -0.031700
C2 C 0.242700 0.603400 -0.042800
C3 C 0.305200 0.539900 0.025000
H4 H 0.402100 0.591600 0.081400
C5 C 0.229700 0.404400 0.011700
H6 H 0.274300 0.362500 0.058700
C7 C 0.088500 0.328300 -0.069900
H8 H 0.035900 0.234500 -0.077900
C9 C 0.022600 0.387600 -0.140600
C10 C 0.100300 0.524700 -0.126200
H11 H 0.056200 0.566400 -0.173700
C12 C -0.128300 0.303800 -0.226000
C13 C -0.370000 0.210600 -0.374600
H14 H -0.459500 0.189300 -0.434400
C15 C -0.344400 0.121600 -0.325300
H16 H -0.415500 0.028900 -0.349100
C17 C 0.360000 1.097100 0.131300
C18 C 0.267800 1.154800 0.193500
C19 C 0.132100 1.143400 0.127300
H20 H 0.096200 1.095300 0.043300
C21 C 0.048600 1.201100 0.181900
H22 H -0.045400 1.190800 0.135500
C23 C 0.100900 1.274400 0.304600
H24 H 0.044000 1.315700 0.341700
C25 C 0.236500 1.286600 0.371800
C26 C 0.319300 1.225300 0.316800
H27 H 0.411100 1.231700 0.363400
C28 C 0.299400 1.367400 0.501100
C29 C 0.451300 1.460000 0.685100
H30 H 0.535000 1.475500 0.748000
C31 C 0.358800 1.522100 0.702900
H32 H 0.368100 1.584300 0.777400
C33 C 0.775300 1.089900 0.369800
H34 H 0.728700 1.152200 0.384300
C35 C 0.875400 1.090000 0.465800
H36 H 0.896900 1.152300 0.543800
C37 C 0.944500 1.000300 0.449200
C38 C 0.907400 0.915800 0.333400
H39 H 0.951900 0.852100 0.315900
C40 C 0.807100 0.921900 0.242600
H41 H 0.783800 0.861100 0.163600
N42 N -0.208700 0.171600 -0.237700
N43 N 0.418400 1.372800 0.570800
N44 N 0.741100 1.008000 0.259400
O45 O 0.442400 0.820700 0.060000
O46 O 0.283800 0.791000 -0.113500
O47 O 0.474000 1.094700 0.194300
O48 O 0.314600 1.055900 0.018300
S49 S -0.222150 0.367250 -0.316850
S50 S 0.221900 1.472800 0.571970
Zn51 Zn 0.602320 1.016100 0.114920
C52 C 1.224700 0.910100 0.630200
H53 H 1.271300 0.847800 0.615700
C54 C 1.124600 0.910000 0.534200
H55 H 1.103100 0.847700 0.456200
C56 C 1.055500 0.999700 0.550800
C57 C 1.092600 1.084200 0.666600
H58 H 1.048100 1.147900 0.684100
C59 C 1.192900 1.078100 0.757400
H60 H 1.216200 1.138900 0.836400
N61 N 1.258900 0.992000 0.740600
C62 C 0.671600 1.251000 0.031700
C63 C 0.757300 1.396600 0.042800
C64 C 0.694800 1.460100 -0.025000
H65 H 0.597900 1.408400 -0.081400
C66 C 0.770300 1.595600 -0.011700
H67 H 0.725700 1.637500 -0.058700
C68 C 0.911500 1.671700 0.069900
H69 H 0.964100 1.765500 0.077900
C70 C 0.977400 1.612400 0.140600
C71 C 0.899700 1.475300 0.126200
H72 H 0.943800 1.433600 0.173700
C73 C 1.128300 1.696200 0.226000
C74 C 1.370000 1.789400 0.374600
H75 H 1.459500 1.810700 0.434400
C76 C 1.344400 1.878400 0.325300
H77 H 1.415500 1.971100 0.349100
C78 C 0.640000 0.902900 -0.131300
C79 C 0.732200 0.845200 -0.193500
C80 C 0.867900 0.856600 -0.127300
H81 H 0.903800 0.904700 -0.043300
C82 C 0.951400 0.798900 -0.181900
H83 H 1.045400 0.809200 -0.135500
C84 C 0.899100 0.725600 -0.304600
H85 H 0.956000 0.684300 -0.341700
C86 C 0.763500 0.713400 -0.371800
C87 C 0.680700 0.774700 -0.316800
H88 H 0.588900 0.768300 -0.363400
C89 C 0.700600 0.632600 -0.501100
C90 C 0.548700 0.540000 -0.685100
H91 H 0.465000 0.524500 -0.748000
C92 C 0.641200 0.477900 -0.702900
H93 H 0.631900 0.415700 -0.777400
N94 N 1.208700 1.828400 0.237700
N95 N 0.581600 0.627200 -0.570800
O96 O 0.557600 1.179300 -0.060000
O97 O 0.716200 1.209000 0.113500
O98 O 0.526000 0.905300 -0.194300
O99 O 0.685400 0.944100 -0.018300
S100 S 1.222150 1.632750 0.316850
S101 S 0.778100 0.527200 -0.571970
Zn102 Zn 0.397680 0.983900 -0.114920
N103 N 0.258900 0.992000 -0.259400
Zn104 Zn 1.397680 0.983900 0.885080
C105 C 0.671600 0.251000 1.031700
C106 C 0.757300 0.396600 1.042800
C107 C 0.694800 0.460100 0.975000
H108 H 0.597900 0.408400 0.918600
C109 C 0.770300 0.595600 0.988300
H110 H 0.725700 0.637500 0.941300
C111 C 0.911500 0.671700 1.069900
H112 H 0.964100 0.765500 1.077900
C113 C 0.977400 0.612400 1.140600
C114 C 0.899700 0.475300 1.126200
H115 H 0.943800 0.433600 1.173700
C116 C 1.128300 0.696200 1.226000
C117 C 1.370000 0.789400 1.374600
H118 H 1.459500 0.810700 1.434400
C119 C 1.344400 0.878400 1.325300
H120 H 1.415500 0.971100 1.349100
C121 C 0.640000 -0.097100 0.868700
C122 C 0.732200 -0.154800 0.806500
C123 C 0.867900 -0.143400 0.872700
H124 H 0.903800 -0.095300 0.956700
C125 C 0.951400 -0.201100 0.818100
H126 H 1.045400 -0.190800 0.864500
C127 C 0.899100 -0.274400 0.695400
H128 H 0.956000 -0.315700 0.658300
C129 C 0.763500 -0.286600 0.628200
C130 C 0.680700 -0.225300 0.683200
H131 H 0.588900 -0.231700 0.636600
C132 C 0.700600 -0.367400 0.498900
C133 C 0.548700 -0.460000 0.314900
H134 H 0.465000 -0.475500 0.252000
C135 C 0.641200 -0.522100 0.297100
H136 H 0.631900 -0.584300 0.222600
C137 C 0.224700 -0.089900 0.630200
H138 H 0.271300 -0.152200 0.615700
C139 C 0.124600 -0.090000 0.534200
H140 H 0.103100 -0.152300 0.456200
C141 C 0.055500 -0.000300 0.550800
C142 C 0.092600 0.084200 0.666600
H143 H 0.048100 0.147900 0.684100
C144 C 0.192900 0.078100 0.757400
H145 H 0.216200 0.138900 0.836400
N146 N 1.208700 0.828400 1.237700
N147 N 0.581600 -0.372800 0.429200
N148 N 0.258900 -0.008000 0.740600
O149 O 0.557600 0.179300 0.940000
O150 O 0.716200 0.209000 1.113500
O151 O 0.526000 -0.094700 0.805700
O152 O 0.685400 -0.055900 0.981700
S153 S 1.222150 0.632750 1.316850
S154 S 0.778100 -0.472800 0.428030
Zn155 Zn 0.397680 -0.016100 0.885080
C156 C -0.224700 0.089900 0.369800
H157 H -0.271300 0.152200 0.384300
C158 C -0.124600 0.090000 0.465800
H159 H -0.103100 0.152300 0.543800
C160 C -0.055500 0.000300 0.449200
C161 C -0.092600 -0.084200 0.333400
H162 H -0.048100 -0.147900 0.315900
C163 C -0.192900 -0.078100 0.242600
H164 H -0.216200 -0.138900 0.163600
N165 N -0.258900 0.008000 0.259400
C166 C 0.328400 -0.251000 0.968300
C167 C 0.242700 -0.396600 0.957200
C168 C 0.305200 -0.460100 1.025000
H169 H 0.402100 -0.408400 1.081400
C170 C 0.229700 -0.595600 1.011700
H171 H 0.274300 -0.637500 1.058700
C172 C 0.088500 -0.671700 0.930100
H173 H 0.035900 -0.765500 0.922100
C174 C 0.022600 -0.612400 0.859400
C175 C 0.100300 -0.475300 0.873800
H176 H 0.056200 -0.433600 0.826300
C177 C -0.128300 -0.696200 0.774000
C178 C -0.370000 -0.789400 0.625400
H179 H -0.459500 -0.810700 0.565600
C180 C -0.344400 -0.878400 0.674700
H181 H -0.415500 -0.971100 0.650900
C182 C 0.360000 0.097100 1.131300
C183 C 0.267800 0.154800 1.193500
C184 C 0.132100 0.143400 1.127300
H185 H 0.096200 0.095300 1.043300
C186 C 0.048600 0.201100 1.181900
H187 H -0.045400 0.190800 1.135500
C188 C 0.100900 0.274400 1.304600
H189 H 0.044000 0.315700 1.341700
C190 C 0.236500 0.286600 1.371800
C191 C 0.319300 0.225300 1.316800
H192 H 0.411100 0.231700 1.363400
C193 C 0.299400 0.367400 1.501100
C194 C 0.451300 0.460000 1.685100
H195 H 0.535000 0.475500 1.748000
C196 C 0.358800 0.522100 1.702900
H197 H 0.368100 0.584300 1.777400
N198 N -0.208700 -0.828400 0.762300
N199 N 0.418400 0.372800 1.570800
O200 O 0.442400 -0.179300 1.060000
O201 O 0.283800 -0.209000 0.886500
O202 O 0.474000 0.094700 1.194300
O203 O 0.314600 0.055900 1.018300
S204 S -0.222150 -0.632750 0.683150
S205 S 0.221900 0.472800 1.571970
Zn206 Zn 0.602320 0.016100 1.114920
N207 N 0.741100 0.008000 1.259400
Zn208 Zn -0.397680 0.016100 0.114920

#END
