
#######################################################################
#
#                 Cambridge Crystallographic Data Centre
#                                CCDC 
#
#######################################################################
#
# If this CIF has been generated from an entry in the Cambridge 
# Structural Database, then it will include bibliographic, chemical, 
# crystal, experimental, refinement or atomic coordinate data resulting 
# from the CCDC's data processing and validation procedures.
#
#######################################################################

data_ABCLUA10
_symmetry_cell_setting           monoclinic
_symmetry_space_group_name_H-M   'P 21'
_symmetry_Int_Tables_number      4
_space_group_name_Hall           'P 2yb'
loop_
_symmetry_equiv_pos_site_id
_symmetry_equiv_pos_as_xyz
1 x,y,z
2 -x,1/2+y,-z
_cell_length_a                   11.206(6)
_cell_length_b                   8.248(4)
_cell_length_c                   14.272(7)
_cell_angle_alpha                90
_cell_angle_beta                 107.66(2)
_cell_angle_gamma                90
_cell_volume                     1256.95
loop_
_atom_site_label
_atom_site_type_symbol
_atom_site_fract_x
_atom_site_fract_y
_atom_site_fract_z
C1 C 0.25990 0.57080 0.64380
C2 C 0.31960 0.53350 0.75070
C3 C 0.42560 0.64750 0.80230
C4 C 0.48490 0.60840 0.91160
C5 C 0.62250 0.63400 0.93000
C6 C 0.64540 0.56300 0.83720
C7 C 0.77780 0.58250 0.83210
C8 C 0.53490 0.64290 0.75670
C9 C 0.56000 0.81030 0.73090
C10 C 0.81130 0.51050 0.74480
C11 C 0.78680 0.32760 0.72870
C12 C 0.65380 0.27770 0.68530
C13 C 0.57440 0.33350 0.60190
C14 C 0.44300 0.28640 0.56390
C15 C 0.35680 0.36280 0.49340
C16 C 0.22200 0.32470 0.46130
C17 C 0.14020 0.44640 0.49240
O1 O 0.18370 0.45120 0.59950
H1 H 0.87300 -0.04500 0.94700
H2 H -0.04600 0.46300 0.49200
H3 H -0.02900 0.38500 0.40300
O2 O 0.55810 0.92850 0.76130
C18 C 0.76110 0.64240 1.09360
C19 C 0.80350 0.54650 1.18550
C20 C 0.33930 0.65850 1.00220
O3 O 0.83720 0.25280 0.82530
O4 O 0.87270 0.02160 0.75670
C21 C 0.00490 0.40310 0.46130
O5 O 0.69310 0.55150 1.01810
O6 O 0.78750 0.77990 1.08490
O7 O 0.43770 0.70970 0.97210
C22 C 0.94800 0.54820 0.75600
C23 C 0.87570 0.09950 0.82790
C24 C 0.92350 0.03900 0.93120
O8 O 0.27960 0.69100 0.60300
H4 H 0.26800 0.50300 0.78100
H5 H 0.39700 0.74700 0.79800
H6 H 0.64100 0.74900 0.93200
H7 H 0.79500 0.70100 0.83300
H8 H 0.76600 0.55600 0.68800
H9 H 0.62700 0.19200 0.70800
H10 H 0.41500 0.18600 0.58500
H11 H 0.20100 0.19200 0.47500
H12 H 0.15900 0.54300 0.46800
H13 H 0.60000 0.81000 0.67500
H14 H 0.85700 0.65400 1.22700
H15 H 0.96800 0.66300 0.76200
H16 H 1.00700 0.50600 0.81200
H17 H 0.33900 0.43100 0.76000
H18 H 0.46800 0.49400 0.91700
H19 H 0.62200 0.45000 0.83700
H20 H 0.83900 0.53500 0.89000
H21 H 0.82800 0.27800 0.68400
H22 H 0.60600 0.41600 0.57000
H23 H 0.37800 0.44100 0.46800
H24 H 0.18500 0.30100 0.39600
H25 H 0.51900 0.57600 0.69700
H26 H 0.75600 0.50300 1.20200
H27 H 0.81900 0.43100 1.16800
H28 H 0.95700 0.51200 0.69900
H29 H 0.93800 0.12800 0.98200
H30 H 0.99100 0.01000 0.92300
H31 H 0.00000 0.28400 0.49800
C1 C 0.74010 1.07080 0.35620
C2 C 0.68040 1.03350 0.24930
C3 C 0.57440 1.14750 0.19770
C4 C 0.51510 1.10840 0.08840
C5 C 0.37750 1.13400 0.07000
C6 C 0.35460 1.06300 0.16280
C7 C 0.22220 1.08250 0.16790
C8 C 0.46510 1.14290 0.24330
C9 C 0.44000 1.31030 0.26910
C10 C 0.18870 1.01050 0.25520
C11 C 0.21320 0.82760 0.27130
C12 C 0.34620 0.77770 0.31470
C13 C 0.42560 0.83350 0.39810
C14 C 0.55700 0.78640 0.43610
C15 C 0.64320 0.86280 0.50660
C16 C 0.77800 0.82470 0.53870
C17 C 0.85980 0.94640 0.50760
O1 O 0.81630 0.95120 0.40050
H1 H 0.12700 0.45500 0.05300
H2 H 1.04600 0.96300 0.50800
H3 H 1.02900 0.88500 0.59700
O2 O 0.44190 1.42850 0.23870
C18 C 0.23890 1.14240 -0.09360
C19 C 0.19650 1.04650 -0.18550
C20 C 0.66070 1.15850 -0.00220
O3 O 0.16280 0.75280 0.17470
O4 O 0.12730 0.52160 0.24330
C21 C 0.99510 0.90310 0.53870
O5 O 0.30690 1.05150 -0.01810
O6 O 0.21250 1.27990 -0.08490
O7 O 0.56230 1.20970 0.02790
C22 C 0.05200 1.04820 0.24400
C23 C 0.12430 0.59950 0.17210
C24 C 0.07650 0.53900 0.06880
O8 O 0.72040 1.19100 0.39700
H4 H 0.73200 1.00300 0.21900
H5 H 0.60300 1.24700 0.20200
H6 H 0.35900 1.24900 0.06800
H7 H 0.20500 1.20100 0.16700
H8 H 0.23400 1.05600 0.31200
H9 H 0.37300 0.69200 0.29200
H10 H 0.58500 0.68600 0.41500
H11 H 0.79900 0.69200 0.52500
H12 H 0.84100 1.04300 0.53200
H13 H 0.40000 1.31000 0.32500
H14 H 0.14300 1.15400 -0.22700
H15 H 0.03200 1.16300 0.23800
H16 H -0.00700 1.00600 0.18800
H17 H 0.66100 0.93100 0.24000
H18 H 0.53200 0.99400 0.08300
H19 H 0.37800 0.95000 0.16300
H20 H 0.16100 1.03500 0.11000
H21 H 0.17200 0.77800 0.31600
H22 H 0.39400 0.91600 0.43000
H23 H 0.62200 0.94100 0.53200
H24 H 0.81500 0.80100 0.60400
H25 H 0.48100 1.07600 0.30300
H26 H 0.24400 1.00300 -0.20200
H27 H 0.18100 0.93100 -0.16800
H28 H 0.04300 1.01200 0.30100
H29 H 0.06200 0.62800 0.01800
H30 H 0.00900 0.51000 0.07700
H31 H 1.00000 0.78400 0.50200

#END
