./ABEBIT_from_xyz.cif_generated_by_CrystalShift
_symmetry_cell_setting triclinic
_symmetry_space_group_name_H-M 'P 1'
loop_
_symmetry_equiv_pos_site_id
_symmetry_equiv_pos_as_xyz
1 x,y,z
_cell_length_a 8.543100
_cell_length_b 8.908000
_cell_length_c 12.083300
_cell_angle_alpha 73.705000
_cell_angle_beta 89.232000
_cell_angle_gamma 67.140000
_cell_volume 808.534647
loop_
_atom_site_label
_atom_site_type_symbol
_atom_site_fract_x
_atom_site_fract_y
_atom_site_fract_z
N1 N 0.127500 0.794700 0.104600
H2 H 0.028200 0.854200 0.066200
N3 N 0.259000 0.750500 0.355400
H4 H 0.235100 0.825000 0.392300
C5 C 0.165500 0.618900 0.162500
C6 C 0.398000 0.781200 0.176700
C7 C 0.408500 0.722700 0.296700
C8 C 0.175400 0.559800 0.283100
C9 C 0.151000 0.672400 0.359200
C10 C 0.229900 0.876500 0.103800
C11 C 0.176800 0.511200 0.096200
H12 H 0.168500 0.551900 0.015700
C13 C 0.197200 0.390600 0.335000
H14 H 0.202600 0.349300 0.415200
C15 C 0.547300 0.759700 0.122900
H16 H 0.541100 0.799000 0.042500
C17 C 0.567200 0.646700 0.361900
H18 H 0.574300 0.610500 0.442500
C19 C 0.713400 0.625100 0.307800
H20 H 0.819300 0.572900 0.351800
C21 C 0.200200 0.345300 0.148900
H22 H 0.209100 0.273200 0.104200
C23 C 0.210600 0.284900 0.268300
H24 H 0.226800 0.172100 0.303800
C25 C 0.703800 0.680400 0.188400
H26 H 0.803300 0.664200 0.152100
O27 O 0.189300 1.026100 0.043370
O28 O 0.039600 0.688400 0.424600
N29 N 0.872500 0.205300 0.895400
H30 H 0.971800 0.145800 0.933800
N31 N 0.741000 0.249500 0.644600
H32 H 0.764900 0.175000 0.607700
C33 C 0.834500 0.381100 0.837500
C34 C 0.602000 0.218800 0.823300
C35 C 0.591500 0.277300 0.703300
C36 C 0.824600 0.440200 0.716900
C37 C 0.849000 0.327600 0.640800
C38 C 0.770100 0.123500 0.896200
C39 C 0.823200 0.488800 0.903800
H40 H 0.831500 0.448100 0.984300
C41 C 0.802800 0.609400 0.665000
H42 H 0.797400 0.650700 0.584800
C43 C 0.452700 0.240300 0.877100
H44 H 0.458900 0.201000 0.957500
C45 C 0.432800 0.353300 0.638100
H46 H 0.425700 0.389500 0.557500
C47 C 0.286600 0.374900 0.692200
H48 H 0.180700 0.427100 0.648200
C49 C 0.799800 0.654700 0.851100
H50 H 0.790900 0.726800 0.895800
C51 C 0.789400 0.715100 0.731700
H52 H 0.773200 0.827900 0.696200
C53 C 0.296200 0.319600 0.811600
H54 H 0.196700 0.335800 0.847900
O55 O 0.810700 -0.026100 0.956630
O56 O 0.960400 0.311600 0.575400
N57 N 0.727500 0.111100 0.313000
C58 C 0.666700 0.052300 0.409200
H59 H 0.598300 -0.005400 0.403600
C60 C 0.846200 0.179100 0.319700
H61 H 0.788100 0.297500 0.314800
H62 H 0.915500 0.168300 0.256800
H63 H 0.917400 0.118700 0.392100
O64 O 0.690300 0.065600 0.503100
C65 C 0.694700 0.089000 0.205500
H66 H 0.648600 0.003700 0.217900
H67 H 0.799200 0.053200 0.170500
H68 H 0.614000 0.195000 0.155000
N69 N 0.272500 0.888900 0.687000
C70 C 0.333300 0.947700 0.590800
H71 H 0.401700 1.005400 0.596400
C72 C 0.153800 0.820900 0.680300
H73 H 0.211900 0.702500 0.685200
H74 H 0.084500 0.831700 0.743200
H75 H 0.082600 0.881300 0.607900
O76 O 0.309700 0.934400 0.496900
C77 C 0.305300 0.911000 0.794500
H78 H 0.351400 0.996300 0.782100
H79 H 0.200800 0.946800 0.829500
H80 H 0.386000 0.805000 0.845000

#END
