./KACTEQ_from_POSCAR.cif_generated_by_CrystalShift
_symmetry_cell_setting triclinic
_symmetry_space_group_name_H-M 'P 1'
loop_
_symmetry_equiv_pos_site_id
_symmetry_equiv_pos_as_xyz
1 x,y,z
_cell_length_a 15.713000
_cell_length_b 28.080000
_cell_length_c 28.507000
_cell_angle_alpha 90.000000
_cell_angle_beta 90.000000
_cell_angle_gamma 90.000000
_cell_volume 12577.888187
loop_
_atom_site_label
_atom_site_type_symbol
_atom_site_fract_x
_atom_site_fract_y
_atom_site_fract_z
H1 H 1.007800 0.319900 0.350600
H2 H 1.013500 0.374400 0.409700
H3 H 1.208400 0.308100 0.467600
H4 H 1.200500 0.250400 0.410400
H5 H 0.814900 0.031800 0.359600
H6 H 0.818900 -0.010000 0.323200
H7 H 0.893300 -0.002700 0.359000
H8 H 1.083200 0.013900 0.194600
H9 H 1.128500 0.062500 0.184600
H10 H 0.202400 0.714400 0.231600
H11 H 0.267000 0.673400 0.242900
H12 H 1.141100 0.037100 0.233100
H13 H 0.166700 0.712700 0.315700
H14 H 0.968000 0.118700 0.132200
H15 H 0.322300 0.662200 0.318900
H16 H 0.234000 0.642000 0.335000
H17 H 1.005700 0.050800 0.086800
H18 H 0.900000 0.004800 0.053200
H19 H 0.405000 0.716800 0.377000
H20 H 0.346700 0.746500 0.410900
H21 H 0.763600 0.021200 0.070100
H22 H 0.726500 0.083800 0.115500
H23 H 0.774800 0.140400 0.177900
H24 H 0.246300 0.792800 0.247200
H25 H 0.786900 0.172000 0.133200
H26 H 0.923600 0.188300 0.075100
H27 H 0.897100 0.225900 0.005500
H28 H 0.381000 0.848000 0.211600
H29 H 0.854300 0.302700 0.004800
H30 H 0.411300 0.920900 0.180200
H31 H 0.838600 0.341200 0.075000
H32 H 0.389700 0.985900 0.223200
H33 H 0.856900 0.302700 0.143900
H34 H 0.349000 0.981700 0.299200
H35 H 0.998200 0.260800 0.197100
H36 H 0.317500 0.909400 0.332500
H37 H 0.836800 0.128100 0.261200
H38 H 0.447900 0.852200 0.350300
H39 H 0.453200 0.805800 0.380600
H40 H 0.887200 0.095000 0.226600
H41 H 0.931200 0.172800 0.323900
H42 H 0.480700 0.879300 0.433700
H43 H 1.020800 0.150900 0.335000
H44 H 0.427500 0.917200 0.495800
H45 H 1.080900 0.184000 0.268500
H46 H 0.280700 0.923000 0.504200
H47 H 1.046300 0.266000 0.278800
H48 H 0.193400 0.883700 0.452400
H49 H 0.978400 0.249500 0.315600
H50 H 0.251600 0.837300 0.394600
H51 H -0.007800 0.680100 0.350600
H52 H -0.013500 0.625600 0.409700
H53 H 0.332300 0.590800 0.479600
H54 H 0.347100 0.629200 0.518700
H55 H 0.418700 0.618600 0.481900
H56 H -0.208400 0.691900 0.467600
H57 H -0.200500 0.749600 0.410400
H58 H 0.095500 0.779400 0.426100
H59 H 0.133000 0.770400 0.476200
H60 H 0.085300 0.729400 0.449800
H61 H 0.185100 0.968200 0.359600
H62 H 0.181100 1.010000 0.323200
H63 H 0.023600 0.597100 0.217900
H64 H 0.106700 1.002700 0.359000
H65 H 0.019200 0.545600 0.156300
H66 H -0.083200 0.986100 0.194600
H67 H -0.128500 0.937500 0.184600
H68 H 0.254500 0.576000 0.121100
H69 H -0.141100 0.962900 0.233100
H70 H 0.261000 0.630100 0.182700
H71 H 0.032000 0.881300 0.132200
H72 H -0.005700 0.949200 0.086800
H73 H 0.100000 0.995200 0.053200
H74 H 0.236400 0.978800 0.070100
H75 H 0.273500 0.916200 0.115500
H76 H 0.225200 0.859600 0.177900
H77 H 0.213100 0.828000 0.133200
H78 H 0.076400 0.811700 0.075100
H79 H 0.102900 0.774100 0.005500
H80 H 0.797600 0.285600 0.231600
H81 H 0.733000 0.326600 0.242900
H82 H 0.145700 0.697300 0.004800
H83 H 0.833300 0.287300 0.315700
H84 H 0.161400 0.658800 0.075000
H85 H 0.677700 0.337800 0.318900
H86 H 0.766000 0.358000 0.335000
H87 H 0.143100 0.697300 0.143900
H88 H 0.001800 0.739200 0.197100
H89 H 0.595000 0.283200 0.377000
H90 H 0.653300 0.253500 0.410900
H91 H 0.163200 0.871900 0.261200
H92 H 0.112800 0.905000 0.226600
H93 H 0.068800 0.827200 0.323900
H94 H 0.753700 0.207200 0.247200
H95 H -0.020800 0.849100 0.335000
H96 H -0.080900 0.816000 0.268500
H97 H -0.046300 0.734000 0.278800
H98 H 0.619000 0.152000 0.211600
H99 H 0.021600 0.750500 0.315600
H100 H 0.588700 0.079100 0.180200
H101 H 1.007800 0.680100 0.649400
H102 H 0.610300 0.014100 0.223200
H103 H 1.013500 0.625600 0.590300
H104 H 0.651000 0.018300 0.299200
H105 H 1.208400 0.691900 0.532400
H106 H 0.682500 0.090600 0.332500
H107 H 1.200500 0.749600 0.589600
H108 H 0.552100 0.147800 0.350300
H109 H 0.546800 0.194200 0.380600
H110 H 0.814900 0.968200 0.640400
H111 H 0.818900 1.010000 0.676800
H112 H 0.519300 0.120700 0.433700
H113 H 0.893300 1.002700 0.641000
H114 H 0.572500 0.082800 0.495800
H115 H 1.083200 0.986100 0.805400
H116 H 0.719300 0.077000 0.504200
H117 H 1.128500 0.937500 0.815400
H118 H 0.806600 0.116300 0.452400
H119 H 1.141100 0.962900 0.766900
H120 H 0.748400 0.162700 0.394600
H121 H 0.968000 0.881300 0.867800
H122 H 1.005700 0.949200 0.913200
H123 H 0.667700 0.409200 0.479600
H124 H 0.652900 0.370800 0.518700
H125 H 0.581300 0.381400 0.481900
H126 H 0.900000 0.995200 0.946800
H127 H 0.763600 0.978800 0.929900
H128 H 0.904500 0.220600 0.426100
H129 H 0.867000 0.229600 0.476200
H130 H 0.914700 0.270600 0.449800
H131 H 0.726500 0.916200 0.884500
H132 H 0.774800 0.859600 0.822100
H133 H 0.976400 0.402900 0.217900
H134 H 0.786900 0.828000 0.866800
H135 H 0.980800 0.454400 0.156300
H136 H 0.923600 0.811700 0.924900
H137 H 0.897100 0.774100 0.994500
H138 H 0.745500 0.424000 0.121100
H139 H 0.854300 0.697300 0.995200
H140 H 0.739000 0.369900 0.182700
H141 H 0.838600 0.658800 0.925000
H142 H 0.856900 0.697300 0.856100
H143 H 0.998200 0.739200 0.802900
H144 H 0.836800 0.871900 0.738800
H145 H 0.887200 0.905000 0.773400
H146 H 0.931200 0.827200 0.676100
H147 H 1.020800 0.849100 0.665000
H148 H 1.080900 0.816000 0.731500
H149 H 1.046300 0.734000 0.721200
H150 H 0.202400 0.285600 0.768400
H151 H 0.267000 0.326600 0.757100
H152 H 0.978400 0.750500 0.684400
H153 H 0.166700 0.287300 0.684300
H154 H -0.007800 0.319900 0.649400
H155 H 0.322300 0.337800 0.681100
H156 H 0.234000 0.358000 0.665000
H157 H -0.013500 0.374400 0.590300
H158 H -0.208400 0.308100 0.532400
H159 H 0.405000 0.283200 0.623000
H160 H 0.346700 0.253500 0.589100
H161 H -0.200500 0.250400 0.589600
H162 H 0.185100 0.031800 0.640400
H163 H 0.181100 -0.010000 0.676800
H164 H 0.246300 0.207200 0.752800
H165 H 0.106700 -0.002700 0.641000
H166 H -0.083200 0.013900 0.805400
H167 H -0.128500 0.062500 0.815400
H168 H 0.381000 0.152000 0.788400
H169 H -0.141100 0.037100 0.766900
H170 H 0.411300 0.079100 0.819800
H171 H 0.032000 0.118700 0.867800
H172 H 0.389700 0.014100 0.776800
H173 H -0.005700 0.050800 0.913200
H174 H 0.349000 0.018300 0.700800
H175 H 0.100000 0.004800 0.946800
H176 H 0.317500 0.090600 0.667500
H177 H 0.236400 0.021200 0.929900
H178 H 0.447900 0.147800 0.649700
H179 H 0.453200 0.194200 0.619400
H180 H 0.273500 0.083800 0.884500
H181 H 0.225200 0.140400 0.822100
H182 H 0.480700 0.120700 0.566300
H183 H 0.213100 0.172000 0.866800
H184 H 0.427500 0.082800 0.504200
H185 H 0.076400 0.188300 0.924900
H186 H 0.280700 0.077000 0.495800
H187 H 0.102900 0.225900 0.994500
H188 H 0.193400 0.116300 0.547600
H189 H 0.145700 0.302700 0.995200
H190 H 0.251600 0.162700 0.605400
H191 H 0.161400 0.341200 0.925000
H192 H 0.143100 0.302700 0.856100
H193 H 0.332300 0.409200 0.520400
H194 H 0.347100 0.370800 0.481300
H195 H 0.418700 0.381400 0.518100
H196 H 0.001800 0.260800 0.802900
H197 H 0.163200 0.128100 0.738800
H198 H 0.095500 0.220600 0.573900
H199 H 0.133000 0.229600 0.523800
H200 H 0.085300 0.270600 0.550200
H201 H 0.112800 0.095000 0.773400
H202 H 0.068800 0.172800 0.676100
H203 H 0.023600 0.402900 0.782100
H204 H -0.020800 0.150900 0.665000
H205 H 0.019200 0.454400 0.843700
H206 H -0.080900 0.184000 0.731500
H207 H -0.046300 0.266000 0.721200
H208 H 0.254500 0.424000 0.878900
H209 H 0.021600 0.249500 0.684400
H210 H 0.261000 0.369900 0.817300
H211 H 0.507800 0.819900 0.850600
H212 H 0.513500 0.874400 0.909700
H213 H 0.708400 0.808100 0.967600
H214 H 0.700500 0.750400 0.910400
H215 H 0.314900 0.531800 0.859600
H216 H 0.318900 0.490000 0.823200
H217 H 0.393300 0.497300 0.859000
H218 H 0.583200 0.513900 0.694600
H219 H 0.628500 0.562500 0.684600
H220 H 0.797600 0.714400 0.768400
H221 H 0.733000 0.673400 0.757100
H222 H 0.641100 0.537100 0.733100
H223 H 0.833300 0.712700 0.684300
H224 H 0.468000 0.618700 0.632200
H225 H 0.677700 0.662200 0.681100
H226 H 0.766000 0.642000 0.665000
H227 H 0.505700 0.550800 0.586800
H228 H 0.400000 0.504800 0.553200
H229 H 0.595000 0.716800 0.623000
H230 H 0.653300 0.746500 0.589100
H231 H 0.263600 0.521200 0.570100
H232 H 0.226500 0.583800 0.615500
H233 H 0.274800 0.640400 0.677900
H234 H 0.753700 0.792800 0.752800
H235 H 0.286900 0.672000 0.633200
H236 H 0.423600 0.688300 0.575100
H237 H 0.397100 0.725900 0.505500
H238 H 0.619000 0.848000 0.788400
H239 H 0.354300 0.802700 0.504800
H240 H 0.588700 0.920900 0.819800
H241 H 0.338600 0.841200 0.575000
H242 H 0.610300 0.985900 0.776800
H243 H 0.356900 0.802700 0.643900
H244 H 0.651000 0.981700 0.700800
H245 H 0.498200 0.760800 0.697100
H246 H 0.682500 0.909400 0.667500
H247 H 0.336800 0.628100 0.761200
H248 H 0.552100 0.852200 0.649700
H249 H 0.546800 0.805800 0.619400
H250 H 0.387200 0.595000 0.726600
H251 H 0.431200 0.672800 0.823900
H252 H 0.519300 0.879300 0.566300
H253 H 0.520800 0.650900 0.835000
H254 H 0.572500 0.917200 0.504200
H255 H 0.580900 0.684000 0.768500
H256 H 0.719300 0.923000 0.495800
H257 H 0.546300 0.766000 0.778800
H258 H 0.806600 0.883700 0.547600
H259 H 0.478400 0.749500 0.815600
H260 H 0.748400 0.837300 0.605400
H261 H 0.492200 0.180100 0.850600
H262 H 0.486500 0.125600 0.909700
H263 H 0.667700 0.590800 0.520400
H264 H 0.652900 0.629200 0.481300
H265 H 0.581300 0.618600 0.518100
H266 H 0.291600 0.191900 0.967600
H267 H 0.299500 0.249600 0.910400
H268 H 0.904500 0.779400 0.573900
H269 H 0.867000 0.770400 0.523800
H270 H 0.914700 0.729400 0.550200
H271 H 0.685100 0.468200 0.859600
H272 H 0.681100 0.510000 0.823200
H273 H 0.976400 0.597100 0.782100
H274 H 0.606700 0.502700 0.859000
H275 H 0.980800 0.545600 0.843700
H276 H 0.416800 0.486100 0.694600
H277 H 0.371500 0.437500 0.684600
H278 H 0.745500 0.576000 0.878900
H279 H 0.358900 0.462900 0.733100
H280 H 0.739000 0.630100 0.817300
H281 H 0.532000 0.381300 0.632200
H282 H 0.494300 0.449200 0.586800
H283 H 0.600000 0.495200 0.553200
H284 H 0.736400 0.478800 0.570100
H285 H 0.773500 0.416200 0.615500
H286 H 0.725200 0.359600 0.677900
H287 H 0.713100 0.328000 0.633200
H288 H 0.576400 0.311700 0.575100
H289 H 0.602900 0.274100 0.505500
H290 H 0.702400 0.214400 0.731600
H291 H 0.767000 0.173400 0.742900
H292 H 0.645700 0.197300 0.504800
H293 H 0.666700 0.212700 0.815700
H294 H 0.661400 0.158800 0.575000
H295 H 0.822300 0.162200 0.818900
H296 H 0.734000 0.142000 0.835000
H297 H 0.643100 0.197300 0.643900
H298 H 0.501800 0.239200 0.697100
H299 H 0.905000 0.216800 0.877000
H300 H 0.846700 0.246500 0.910900
H301 H 0.663200 0.371900 0.761200
H302 H 0.612800 0.405000 0.726600
H303 H 0.568800 0.327200 0.823900
H304 H 0.746300 0.292800 0.747200
H305 H 0.479200 0.349100 0.835000
H306 H 0.419100 0.316000 0.768500
H307 H 0.453700 0.234000 0.778800
H308 H 0.881000 0.348000 0.711600
H309 H 0.521600 0.250500 0.815600
H310 H 0.911300 0.420900 0.680200
H311 H 0.507800 0.180100 0.149400
H312 H 0.889700 0.485900 0.723200
H313 H 0.513500 0.125600 0.090300
H314 H 0.849000 0.481700 0.799200
H315 H 0.708400 0.191900 0.032400
H316 H 0.817500 0.409400 0.832500
H317 H 0.700500 0.249600 0.089600
H318 H 0.947900 0.352200 0.850300
H319 H 0.953200 0.305800 0.880600
H320 H 0.314900 0.468200 0.140400
H321 H 0.318900 0.510000 0.176800
H322 H 0.980700 0.379300 0.933700
H323 H 0.393300 0.502700 0.141000
H324 H 0.927500 0.417200 0.995800
H325 H 0.583200 0.486100 0.305400
H326 H 0.780700 0.423000 1.004200
H327 H 0.628500 0.437500 0.315400
H328 H 0.693400 0.383700 0.952400
H329 H 0.641100 0.462900 0.266900
H330 H 0.751600 0.337300 0.894600
H331 H 0.468000 0.381300 0.367800
H332 H 0.505700 0.449200 0.413200
H333 H 0.832300 0.090800 0.979600
H334 H 0.847100 0.129200 1.018700
H335 H 0.918700 0.118600 0.981900
H336 H 0.400000 0.495200 0.446800
H337 H 0.263600 0.478800 0.429900
H338 H 0.595500 0.279400 0.926100
H339 H 0.633000 0.270400 0.976200
H340 H 0.585300 0.229400 0.949800
H341 H 0.226500 0.416200 0.384500
H342 H 0.274800 0.359600 0.322100
H343 H 0.523600 0.097100 0.717900
H344 H 0.286900 0.328000 0.366800
H345 H 0.519200 0.045600 0.656300
H346 H 0.423600 0.311700 0.424900
H347 H 0.397100 0.274100 0.494500
H348 H 0.754500 0.076000 0.621100
H349 H 0.354300 0.197300 0.495200
H350 H 0.761000 0.130100 0.682700
H351 H 0.338600 0.158800 0.425000
H352 H 0.356900 0.197300 0.356100
H353 H 0.498200 0.239200 0.302900
H354 H 0.336800 0.371900 0.238800
H355 H 0.387200 0.405000 0.273400
H356 H 0.431200 0.327200 0.176100
H357 H 0.520800 0.349100 0.165000
H358 H 0.580900 0.316000 0.231500
H359 H 0.546300 0.234000 0.221200
H360 H 0.297600 0.785600 0.731600
H361 H 0.233000 0.826600 0.742900
H362 H 0.478400 0.250500 0.184400
H363 H 0.333300 0.787300 0.815700
H364 H 0.492200 0.819900 0.149400
H365 H 0.177700 0.837800 0.818900
H366 H 0.266000 0.858000 0.835000
H367 H 0.486500 0.874400 0.090300
H368 H 0.291600 0.808100 0.032400
H369 H 0.095000 0.783200 0.877000
H370 H 0.153300 0.753500 0.910900
H371 H 0.299500 0.750400 0.089600
H372 H 0.685100 0.531800 0.140400
H373 H 0.681100 0.490000 0.176800
H374 H 0.253700 0.707200 0.747200
H375 H 0.606700 0.497300 0.141000
H376 H 0.416800 0.513900 0.305400
H377 H 0.371500 0.562500 0.315400
H378 H 0.119000 0.652000 0.711600
H379 H 0.358900 0.537100 0.266900
H380 H 0.088700 0.579100 0.680200
H381 H 0.532000 0.618700 0.367800
H382 H 0.110300 0.514100 0.723200
H383 H 0.494300 0.550800 0.413200
H384 H 0.151000 0.518300 0.799200
H385 H 0.600000 0.504800 0.446800
H386 H 0.182500 0.590600 0.832500
H387 H 0.736400 0.521200 0.429900
H388 H 0.052100 0.647800 0.850300
H389 H 0.046800 0.694200 0.880600
H390 H 0.773500 0.583800 0.384500
H391 H 0.725200 0.640400 0.322100
H392 H 0.019300 0.620700 0.933700
H393 H 0.713100 0.672000 0.366800
H394 H 0.072500 0.582800 0.995800
H395 H 0.576400 0.688300 0.424900
H396 H 0.219300 0.577000 1.004200
H397 H 0.602900 0.725900 0.494500
H398 H 0.306600 0.616300 0.952400
H399 H 0.645700 0.802700 0.495200
H400 H 0.248400 0.662700 0.894600
H401 H 0.661400 0.841200 0.425000
H402 H 0.643100 0.802700 0.356100
H403 H 0.167700 0.909200 0.979600
H404 H 0.152900 0.870800 1.018700
H405 H 0.081300 0.881400 0.981900
H406 H 0.501800 0.760800 0.302900
H407 H 0.663200 0.628100 0.238800
H408 H 0.404500 0.720600 0.926100
H409 H 0.367000 0.729600 0.976200
H410 H 0.414700 0.770600 0.949800
H411 H 0.612800 0.595000 0.273400
H412 H 0.568800 0.672800 0.176100
H413 H 0.476400 0.902900 0.717900
H414 H 0.479200 0.650900 0.165000
H415 H 0.480800 0.954400 0.656300
H416 H 0.419100 0.684000 0.231500
H417 H 0.453700 0.766000 0.221200
H418 H 0.245500 0.924000 0.621100
H419 H 0.521600 0.749500 0.184400
H420 H 0.239000 0.869900 0.682700
H421 H 0.239000 0.130100 0.317300
H422 H 0.245500 0.076000 0.378900
H423 H 0.480800 0.045600 0.343700
H424 H 0.476400 0.097100 0.282100
H425 H 0.414700 0.229400 0.050200
H426 H 0.367000 0.270400 0.023800
H427 H 0.404500 0.279400 0.073900
H428 H 0.081300 0.118600 0.018100
H429 H 0.152900 0.129200 -0.018700
H430 H 0.702400 0.785600 0.268400
H431 H 0.767000 0.826600 0.257100
H432 H 0.167700 0.090800 0.020400
H433 H 0.666700 0.787300 0.184300
H434 H 0.248400 0.337300 0.105400
H435 H 0.822300 0.837800 0.181100
H436 H 0.734000 0.858000 0.165000
H437 H 0.306600 0.383700 0.047600
H438 H 0.219300 0.423000 -0.004200
H439 H 0.905000 0.783200 0.123000
H440 H 0.846700 0.753500 0.089100
H441 H 0.072500 0.417200 0.004200
H442 H 0.019300 0.379300 0.066300
H443 H 0.046800 0.305800 0.119400
H444 H 0.746300 0.707200 0.252800
H445 H 0.052100 0.352200 0.149700
H446 H 0.182500 0.409400 0.167500
H447 H 0.151000 0.481700 0.200800
H448 H 0.881000 0.652000 0.288400
H449 H 0.110300 0.485900 0.276800
H450 H 0.911300 0.579100 0.319800
H451 H 0.088700 0.420900 0.319800
H452 H 0.889700 0.514100 0.276800
H453 H 0.119000 0.348000 0.288400
H454 H 0.849000 0.518300 0.200800
H455 H 0.253700 0.292800 0.252800
H456 H 0.817500 0.590600 0.167500
H457 H 0.153300 0.246500 0.089100
H458 H 0.947900 0.647800 0.149700
H459 H 0.953200 0.694200 0.119400
H460 H 0.095000 0.216800 0.123000
H461 H 0.266000 0.142000 0.165000
H462 H 0.980700 0.620700 0.066300
H463 H 0.177700 0.162200 0.181100
H464 H 0.927500 0.582800 0.004200
H465 H 0.333300 0.212700 0.184300
H466 H 0.780700 0.577000 -0.004200
H467 H 0.233000 0.173400 0.257100
H468 H 0.693400 0.616300 0.047600
H469 H 0.297600 0.214400 0.268400
H470 H 0.751600 0.662700 0.105400
H471 H 0.761000 0.869900 0.317300
H472 H 0.754500 0.924000 0.378900
H473 H 0.832300 0.909200 0.020400
H474 H 0.847100 0.870800 -0.018700
H475 H 0.918700 0.881400 0.018100
H476 H 0.519200 0.954400 0.343700
H477 H 0.523600 0.902900 0.282100
H478 H 0.595500 0.720600 0.073900
H479 H 0.633000 0.729600 0.023800
H480 H 0.585300 0.770600 0.050200
C481 C 0.644000 0.880000 0.291100
C482 C 0.571400 0.906400 0.301000
C483 C 0.622200 0.743600 0.053900
C484 C 0.568800 0.937300 0.337900
C485 C 0.704600 0.801300 0.094400
C486 C 0.635800 0.943600 0.365600
C487 C 0.708000 0.919500 0.359200
C488 C 0.858400 0.879100 0.013400
C489 C 0.711300 0.887300 0.321800
C490 C 0.826100 0.849700 0.088500
C491 C 1.052400 0.349400 0.409400
C492 C 1.111300 0.347000 0.443400
C493 C 1.167300 0.310100 0.444200
C494 C 1.162400 0.275700 0.409800
C495 C 1.102600 0.277900 0.374700
C496 C 0.851800 0.013200 0.340000
C497 C 0.919100 0.080400 0.320400
C498 C 0.356300 0.152300 0.251000
C499 C 0.286000 0.188100 0.247300
C500 C 0.786500 0.644800 0.085700
C501 C 0.752200 0.618400 0.050700
C502 C 0.276400 0.207000 0.197200
C503 C 0.804000 0.594700 0.020100
C504 C 0.231500 0.170600 0.166600
C505 C 0.891300 0.597400 0.025600
C506 C 0.922200 0.620900 0.061600
C507 C 0.214600 0.188400 0.116500
C508 C 0.152100 0.229100 0.118500
C509 C 0.873500 0.645200 0.091900
C510 C 0.914300 0.670700 0.132100
C511 C 0.175100 0.262100 0.158600
C512 C 0.226500 0.252600 0.195100
C513 C 0.224600 0.290500 0.224500
C514 C 0.836400 0.589000 0.198400
C515 C 0.174800 0.323700 0.206300
C516 C 0.153400 0.369800 0.224500
C517 C 0.125900 0.375100 0.270000
C518 C 0.854400 0.546100 0.218300
C519 C 0.108400 0.418400 0.289200
C520 C 0.880000 0.543800 0.263500
C521 C 0.120000 0.456200 0.263500
C522 C 0.891600 0.581600 0.289200
C523 C 0.145600 0.453900 0.218300
C524 C 0.874100 0.624900 0.270000
C525 C 0.163600 0.411000 0.198400
C526 C 0.846600 0.630200 0.224500
C527 C 0.085700 0.329300 0.132100
C528 C 0.825200 0.676300 0.206300
C529 C 0.775400 0.709500 0.224500
C530 C 0.126500 0.354800 0.091900
C531 C 0.077800 0.379100 0.061600
C532 C 0.773500 0.747400 0.195100
C533 C 0.108700 0.402600 0.025600
C534 C 0.824900 0.737900 0.158600
C535 C 0.196000 0.405300 0.020100
C536 C 0.847900 0.770900 0.118500
C537 C 0.247800 0.381600 0.050700
C538 C 0.785400 0.811600 0.116500
C539 C 0.213500 0.355200 0.085700
C540 C 0.768500 0.829400 0.166600
C541 C 0.173900 0.150300 0.088500
C542 C 0.141600 0.120900 0.013400
C543 C 0.723600 0.793000 0.197200
C544 C 0.714000 0.811900 0.247300
C545 C 0.643700 0.847700 0.251000
C546 C 0.295400 0.198700 0.094400
C547 C 0.377800 0.256400 0.053900
C548 C 0.143700 0.652300 0.249000
C549 C 0.214000 0.688100 0.252700
C550 C 0.223600 0.707000 0.302800
C551 C 0.356000 0.120000 0.291100
C552 C 0.428600 0.093600 0.301000
C553 C 1.101500 0.043400 0.208200
C554 C 0.431200 0.062700 0.337900
C555 C 1.032800 0.090900 0.267100
C556 C 0.364200 0.056400 0.365600
C557 C 0.292000 0.080500 0.359200
C558 C 0.268500 0.670600 0.333400
C559 C 0.288700 0.112700 0.321800
C560 C 0.926200 0.098900 0.119800
C561 C 0.285400 0.688400 0.383500
C562 C 0.948800 0.058200 0.091800
C563 C 0.347900 0.729100 0.381500
C564 C 0.886300 0.030300 0.072600
C565 C 0.324900 0.762100 0.341400
C566 C 0.806200 0.040600 0.082300
C567 C 0.273500 0.752600 0.304900
C568 C 0.400700 0.741000 0.161200
C569 C 0.467400 0.741300 0.198600
C570 C 0.288700 0.887300 0.678200
C571 C 0.292000 0.919500 0.640800
C572 C 0.476100 0.695500 0.223400
C573 C 0.364200 0.943600 0.634400
C574 C 0.518400 0.658800 0.190100
C575 C 0.431200 0.937300 0.662100
C576 C 0.428600 0.906400 0.699000
C577 C 0.543200 0.613400 0.216000
C578 C 0.608100 0.622600 0.253200
C579 C 0.356000 0.880000 0.708900
C580 C 0.377800 0.743600 0.946100
C581 C 0.584000 0.663800 0.280700
C582 C 0.527900 0.697800 0.267300
C583 C 0.532100 0.732400 0.302800
C584 C 0.295400 0.801300 0.905600
C585 C 0.585600 0.718700 0.336300
C586 C 0.604600 0.739700 0.382700
C587 C 0.632800 0.786600 0.384000
C588 C 0.141600 0.879100 0.986600
C589 C 0.645300 0.809300 0.425300
C590 C 0.173900 0.849700 0.911500
C591 C 0.635300 0.787000 0.467100
C592 C 0.213500 0.644800 0.914300
C593 C 0.610300 0.742300 0.466400
C594 C 0.247800 0.618400 0.949300
C595 C 0.594900 0.719700 0.424100
C596 C 0.196000 0.594700 0.979900
C597 C 0.684200 0.650500 0.345500
C598 C 0.108700 0.597400 0.974400
C599 C 0.077800 0.620900 0.938400
C600 C 0.656200 0.607700 0.372500
C601 C 0.716300 0.578100 0.390700
C602 C 0.126500 0.645200 0.908100
C603 C 0.693800 0.540600 0.417700
C604 C 0.085700 0.670700 0.867900
C605 C 0.613700 0.530300 0.427400
C606 C 0.163600 0.589000 0.801600
C607 C 0.551200 0.558200 0.408200
C608 C 0.145600 0.546100 0.781700
C609 C 0.573800 0.598900 0.380200
C610 C 0.120000 0.543800 0.736500
C611 C 0.467200 0.590900 0.232900
C612 C 0.398500 0.543400 0.291800
C613 C 0.108400 0.581600 0.710800
C614 C 0.125900 0.624900 0.730000
C615 C 0.153400 0.630200 0.775500
C616 C 0.580900 0.580400 0.179600
C617 C 0.648200 0.513200 0.160000
C618 C 0.174800 0.676300 0.793700
C619 C 0.224600 0.709500 0.775500
C620 C 0.226500 0.747400 0.804900
C621 C 0.397400 0.777900 0.125300
C622 C 0.337600 0.775700 0.090200
C623 C 0.175100 0.737900 0.841400
C624 C 0.332700 0.810100 0.055800
C625 C 0.152100 0.770900 0.881500
C626 C 0.388700 0.847000 0.056600
C627 C 0.447600 0.849400 0.090600
C628 C 0.214600 0.811600 0.883500
C629 C 0.452300 0.816500 0.125500
C630 C 0.231500 0.829400 0.833400
C631 C 0.783700 0.078100 0.109300
C632 C 0.843800 0.107700 0.127500
C633 C 0.275400 0.790500 0.275500
C634 C 0.325200 0.823700 0.293700
C635 C 0.815800 0.150500 0.154500
C636 C 0.346600 0.869800 0.275500
C637 C 0.905100 0.219700 0.075900
C638 C 0.599300 0.259000 0.161200
C639 C 0.532600 0.258700 0.198600
C640 C 0.276400 0.793000 0.802800
C641 C 0.286000 0.811900 0.752700
C642 C 0.523900 0.304500 0.223400
C643 C 0.356300 0.847700 0.749000
C644 C 0.481600 0.341200 0.190100
C645 C 0.374100 0.875100 0.230000
C646 C 0.889700 0.242300 0.033600
C647 C 0.456800 0.386600 0.216000
C648 C 0.391900 0.377400 0.253200
C649 C 0.391600 0.918400 0.210800
C650 C 0.864700 0.287000 0.032900
C651 C 0.416000 0.336200 0.280700
C652 C 0.472100 0.302200 0.267300
C653 C 0.467900 0.267600 0.302800
C654 C 0.380000 0.956200 0.236500
C655 C 0.414400 0.281300 0.336300
C656 C 0.395400 0.260300 0.382700
C657 C 0.367200 0.213400 0.384000
C658 C 0.854700 0.309300 0.074700
C659 C 0.354700 0.190700 0.425300
C660 C 0.354400 0.953900 0.281700
C661 C 0.364700 0.213000 0.467100
C662 C 0.711300 0.112700 0.678200
C663 C 0.389700 0.257700 0.466400
C664 C 0.708000 0.080500 0.640800
C665 C 0.405100 0.280300 0.424100
C666 C 0.635800 0.056400 0.634400
C667 C 0.315800 0.349500 0.345500
C668 C 0.568800 0.062700 0.662100
C669 C 0.571400 0.093600 0.699000
C670 C 0.343800 0.392300 0.372500
C671 C 0.283700 0.421900 0.390700
C672 C 0.644000 0.120000 0.708900
C673 C 0.306200 0.459400 0.417700
C674 C 0.622200 0.256400 0.946100
C675 C 0.386300 0.469700 0.427400
C676 C 0.704600 0.198700 0.905600
C677 C 0.448800 0.441800 0.408200
C678 C 0.858400 0.120900 0.986600
C679 C 0.426200 0.401100 0.380200
C680 C 0.826100 0.150300 0.911500
C681 C 0.532800 0.409100 0.232900
C682 C 0.601500 0.456600 0.291800
C683 C 0.786500 0.355200 0.914300
C684 C 0.752200 0.381600 0.949300
C685 C 0.804000 0.405300 0.979900
C686 C 0.419100 0.419600 0.179600
C687 C 0.351800 0.486800 0.160000
C688 C 0.891300 0.402600 0.974400
C689 C 0.922200 0.379100 0.938400
C690 C 0.873500 0.354800 0.908100
C691 C 0.602600 0.222100 0.125300
C692 C 0.662400 0.224300 0.090200
C693 C 0.914300 0.329300 0.867900
C694 C 0.667300 0.189900 0.055800
C695 C 0.836400 0.411000 0.801600
C696 C 0.611300 0.153000 0.056600
C697 C 0.552400 0.150600 0.090600
C698 C 0.854400 0.453900 0.781700
C699 C 0.547700 0.183500 0.125500
C700 C 0.880000 0.456200 0.736500
C701 C 0.867200 0.286600 0.116000
C702 C 0.895400 0.239700 0.117300
C703 C 0.914400 0.218700 0.163700
C704 C 0.336400 0.911000 0.301600
C705 C 0.967900 0.232400 0.197200
C706 C 0.972100 0.197800 0.232700
C707 C 0.916000 0.163800 0.219300
C708 C 0.400700 0.259000 0.838800
C709 C 0.467400 0.258700 0.801400
C710 C 0.891600 0.418400 0.710800
C711 C 0.874100 0.375100 0.730000
C712 C 0.476100 0.304500 0.776600
C713 C 0.846600 0.369800 0.775500
C714 C 0.518400 0.341200 0.809900
C715 C 0.825200 0.323700 0.793700
C716 C 0.775400 0.290500 0.775500
C717 C 0.543200 0.386600 0.784000
C718 C 0.608100 0.377400 0.746800
C719 C 0.773500 0.252600 0.804900
C720 C 0.824900 0.262100 0.841400
C721 C 0.584000 0.336200 0.719300
C722 C 0.527900 0.302200 0.732700
C723 C 0.532100 0.267600 0.697200
C724 C 0.847900 0.229100 0.881500
C725 C 0.585600 0.281300 0.663700
C726 C 0.604600 0.260300 0.617300
C727 C 0.632800 0.213400 0.616000
C728 C 0.785400 0.188400 0.883500
C729 C 0.645300 0.190700 0.574700
C730 C 0.768500 0.170600 0.833400
C731 C 0.635300 0.213000 0.532900
C732 C 0.723600 0.207000 0.802800
C733 C 0.610300 0.257700 0.533600
C734 C 0.714000 0.188100 0.752700
C735 C 0.594900 0.280300 0.575900
C736 C 0.643700 0.152300 0.749000
C737 C 0.684200 0.349500 0.654500
C738 C 0.414300 0.829300 0.367900
C739 C 0.373500 0.854800 0.408100
C740 C 0.656200 0.392300 0.627500
C741 C 0.716300 0.421900 0.609300
C742 C 0.891900 0.122600 0.246800
C743 C 0.693800 0.459400 0.582300
C744 C 0.956800 0.113400 0.284000
C745 C 0.613700 0.469700 0.572600
C746 C 0.422200 0.879100 0.438400
C747 C 0.551200 0.441800 0.591800
C748 C 0.391300 0.902600 0.474400
C749 C 0.573800 0.401100 0.619800
C750 C 0.981600 0.158800 0.309900
C751 C 0.467200 0.409100 0.767100
C752 C 0.398500 0.456600 0.708200
C753 C 0.788700 0.612700 0.821800
C754 C 0.792000 0.580500 0.859200
C755 C 0.864200 0.556400 0.865600
C756 C 0.580900 0.419600 0.820400
C757 C 0.648200 0.486800 0.840000
C758 C 0.931200 0.562700 0.837900
C759 C 0.928600 0.593600 0.801000
C760 C 0.856000 0.620000 0.791100
C761 C 0.397400 0.222100 0.874700
C762 C 0.337600 0.224300 0.909800
C763 C 0.877800 0.756400 0.553900
C764 C 0.332700 0.189900 0.944200
C765 C 0.795400 0.698700 0.594400
C766 C 0.388700 0.153000 0.943400
C767 C 0.447600 0.150600 0.909400
C768 C 0.641600 0.620900 0.513400
C769 C 0.452300 0.183500 0.874500
C770 C 0.673900 0.650300 0.588500
C771 C 0.304000 0.905300 0.479900
C772 C 1.023900 0.195500 0.276600
C773 C 0.252200 0.881600 0.449300
C774 C 0.286500 0.855200 0.414300
C775 C 1.032600 0.241300 0.301400
C776 C 1.099300 0.241000 0.338800
C777 C 0.326100 0.650300 0.411500
C778 C 0.599300 0.741000 0.838800
C779 C 0.532600 0.741300 0.801400
C780 C 0.713500 0.855200 0.585700
C781 C 0.747800 0.881600 0.550700
C782 C 0.523900 0.695500 0.776600
C783 C 0.696000 0.905300 0.520100
C784 C 0.481600 0.658800 0.809900
C785 C 0.608700 0.902600 0.525600
C786 C 0.577800 0.879100 0.561600
C787 C 0.456800 0.613400 0.784000
C788 C 0.391900 0.622600 0.746800
C789 C 0.626500 0.854800 0.591900
C790 C 0.585700 0.829300 0.632100
C791 C 0.416000 0.663800 0.719300
C792 C 0.472100 0.697800 0.732700
C793 C 0.467900 0.732400 0.697200
C794 C 0.663600 0.911000 0.698400
C795 C 0.414400 0.718700 0.663700
C796 C 0.395400 0.739700 0.617300
C797 C 0.367200 0.786600 0.616000
C798 C 0.645600 0.953900 0.718300
C799 C 0.354700 0.809300 0.574700
C800 C 0.620000 0.956200 0.763500
C801 C 0.364700 0.787000 0.532900
C802 C 0.608400 0.918400 0.789200
C803 C 0.389700 0.742300 0.533600
C804 C 0.625900 0.875100 0.770000
C805 C 0.405100 0.719700 0.575900
C806 C 0.653400 0.869800 0.724500
C807 C 0.315800 0.650500 0.654500
C808 C 0.674800 0.823700 0.706300
C809 C 0.724600 0.790500 0.724500
C810 C 0.343800 0.607700 0.627500
C811 C 0.283700 0.578100 0.609300
C812 C 0.726500 0.752600 0.695100
C813 C 0.306200 0.540600 0.582300
C814 C 0.675100 0.762100 0.658600
C815 C 0.386300 0.530300 0.572600
C816 C 0.652100 0.729100 0.618500
C817 C 0.448800 0.558200 0.591800
C818 C 0.714600 0.688400 0.616500
C819 C 0.426200 0.598900 0.619800
C820 C 0.731500 0.670600 0.666600
C821 C 0.532800 0.590900 0.767100
C822 C 0.601500 0.543400 0.708200
C823 C 0.776400 0.707000 0.697200
C824 C 0.786000 0.688100 0.747300
C825 C 0.856300 0.652300 0.751000
C826 C 0.419100 0.580400 0.820400
C827 C 0.351800 0.513200 0.840000
C828 C -0.047700 0.683500 0.374500
C829 C 0.358400 0.620900 0.486600
C830 C -0.052400 0.650600 0.409400
C831 C 0.602600 0.777900 0.874700
C832 C 0.662400 0.775700 0.909800
C833 C -0.111300 0.653000 0.443400
C834 C 0.667300 0.810100 0.944200
C835 C 0.204600 0.698700 0.405600
C836 C 0.611300 0.847000 0.943400
C837 C 0.552400 0.849400 0.909400
C838 C -0.167300 0.689900 0.444200
C839 C 0.547700 0.816500 0.874500
C840 C 0.122200 0.756400 0.446100
C841 C -0.162400 0.724300 0.409800
C842 C -0.102600 0.722100 0.374700
C843 C 0.144000 0.620000 0.208900
C844 C 0.071400 0.593600 0.199000
C845 C 0.068800 0.562700 0.162100
C846 C 0.148200 0.986800 0.340000
C847 C 0.080900 0.919600 0.320400
C848 C -0.099300 0.241000 0.661200
C849 C -0.032600 0.241300 0.698600
C850 C 0.211300 0.387300 0.821800
C851 C 0.208000 0.419500 0.859200
C852 C -0.023900 0.195500 0.723400
C853 C 0.135800 0.443600 0.865600
C854 C 0.018400 0.158800 0.690100
C855 C 0.068800 0.437300 0.837900
C856 C 0.071400 0.406400 0.801000
C857 C 0.043200 0.113400 0.716000
C858 C 0.108100 0.122600 0.753200
C859 C 0.144000 0.380000 0.791100
C860 C 0.122200 0.243600 0.553900
C861 C 0.084000 0.163800 0.780700
C862 C 0.027900 0.197800 0.767300
C863 C 0.032100 0.232400 0.802800
C864 C 0.204600 0.301300 0.594400
C865 C 0.085600 0.218700 0.836300
C866 C 0.104600 0.239700 0.882700
C867 C 0.132800 0.286600 0.884000
C868 C 0.358400 0.379100 0.513400
C869 C 0.145300 0.309300 0.925300
C870 C 0.326100 0.349700 0.588500
C871 C 0.135300 0.287000 0.967100
C872 C 0.286500 0.144800 0.585700
C873 C 0.110300 0.242300 0.966400
C874 C 0.252200 0.118400 0.550700
C875 C 0.094900 0.219700 0.924100
C876 C 0.304000 0.094700 0.520100
C877 C 0.184200 0.150500 0.845500
C878 C 0.391300 0.097400 0.525600
C879 C 0.422200 0.120900 0.561600
C880 C 0.156200 0.107700 0.872500
C881 C 0.216300 0.078100 0.890700
C882 C 0.373500 0.145200 0.591900
C883 C 0.193800 0.040600 0.917700
C884 C 0.414300 0.170700 0.632100
C885 C 0.113700 0.030300 0.927400
C886 C 0.336400 0.089000 0.698400
C887 C 0.051200 0.058200 0.908200
C888 C 0.354400 0.046100 0.718300
C889 C 0.073800 0.098900 0.880200
C890 C 0.380000 0.043800 0.763500
C891 C -0.032800 0.090900 0.732900
C892 C -0.101500 0.043400 0.791800
C893 C 0.391600 0.081600 0.789200
C894 C 0.374100 0.124900 0.770000
C895 C 0.346600 0.130200 0.724500
C896 C 0.080900 0.080400 0.679600
C897 C 0.148200 0.013200 0.660000
C898 C 0.325200 0.176300 0.706300
C899 C 0.275400 0.209500 0.724500
C900 C 0.273500 0.247400 0.695100
C901 C -0.102600 0.277900 0.625300
C902 C -0.162400 0.275700 0.590200
C903 C 0.324900 0.237900 0.658600
C904 C -0.167300 0.310100 0.555800
C905 C 0.347900 0.270900 0.618500
C906 C -0.111300 0.347000 0.556600
C907 C -0.052400 0.349400 0.590600
C908 C 0.285400 0.311600 0.616500
C909 C -0.047700 0.316500 0.625500
C910 C 0.268500 0.329400 0.666600
C911 C 0.135800 0.556400 0.134400
C912 C 0.208000 0.580500 0.140800
C913 C 0.211300 0.612700 0.178200
C914 C -0.101500 0.956600 0.208200
C915 C -0.032800 0.909100 0.267100
C916 C 0.073800 0.901100 0.119800
C917 C 0.051200 0.941800 0.091800
C918 C 1.099300 0.759000 0.661200
C919 C 1.032600 0.758700 0.698600
C920 C 0.223600 0.293000 0.697200
C921 C 0.214000 0.311900 0.747300
C922 C 1.023900 0.804500 0.723400
C923 C 0.143700 0.347700 0.751000
C924 C 0.981600 0.841200 0.690100
C925 C 0.113700 0.969700 0.072600
C926 C 0.193800 0.959400 0.082300
C927 C 0.956800 0.886600 0.716000
C928 C 0.891900 0.877400 0.753200
C929 C 0.216300 0.921900 0.109300
C930 C 0.156200 0.892300 0.127500
C931 C 0.916000 0.836200 0.780700
C932 C 0.972100 0.802200 0.767300
C933 C 0.967900 0.767600 0.802800
C934 C 0.184200 0.849500 0.154500
C935 C 0.914400 0.781300 0.836300
C936 C 0.895400 0.760300 0.882700
C937 C 0.867200 0.713400 0.884000
C938 C 0.856300 0.347700 0.249000
C939 C 0.854700 0.690700 0.925300
C940 C 0.094900 0.780300 0.075900
C941 C 0.864700 0.713000 0.967100
C942 C 0.788700 0.387300 0.178200
C943 C 0.889700 0.757700 0.966400
C944 C 0.792000 0.419500 0.140800
C945 C 0.905100 0.780300 0.924100
C946 C 0.864200 0.443600 0.134400
C947 C 0.815800 0.849500 0.845500
C948 C 0.931200 0.437300 0.162100
C949 C 0.928600 0.406400 0.199000
C950 C 0.843800 0.892300 0.872500
C951 C 0.783700 0.921900 0.890700
C952 C 0.856000 0.380000 0.208900
C953 C 0.806200 0.959400 0.917700
C954 C 0.877800 0.243600 0.446100
C955 C 0.886300 0.969700 0.927400
C956 C 0.795400 0.301300 0.405600
C957 C 0.948800 0.941800 0.908200
C958 C 0.641600 0.379100 0.486600
C959 C 0.926200 0.901100 0.880200
C960 C 0.673900 0.349700 0.411500
C961 C 1.032800 0.909100 0.732900
C962 C 1.101500 0.956600 0.791800
C963 C 0.713500 0.144800 0.414300
C964 C 0.747800 0.118400 0.449300
C965 C 0.696000 0.094700 0.479900
C966 C 0.919100 0.919600 0.679600
C967 C 0.851800 0.986800 0.660000
C968 C 0.608700 0.097400 0.474400
C969 C 0.577800 0.120900 0.438400
C970 C 0.626500 0.145200 0.408100
C971 C 1.102600 0.722100 0.625300
C972 C 1.162400 0.724300 0.590200
C973 C 0.585700 0.170700 0.367900
C974 C 1.167300 0.689900 0.555800
C975 C 0.663600 0.089000 0.301600
C976 C 1.111300 0.653000 0.556600
C977 C 1.052400 0.650600 0.590600
C978 C 0.645600 0.046100 0.281700
C979 C 1.047700 0.683500 0.625500
C980 C 0.620000 0.043800 0.236500
C981 C 0.786000 0.311900 0.252700
C982 C 0.110300 0.757700 0.033600
C983 C 0.776400 0.293000 0.302800
C984 C 0.135300 0.713000 0.032900
C985 C 0.731500 0.329400 0.333400
C986 C 0.145300 0.690700 0.074700
C987 C 0.714600 0.311600 0.383500
C988 C -0.099300 0.759000 0.338800
C989 C -0.032600 0.758700 0.301400
C990 C 0.608400 0.081600 0.210800
C991 C 0.625900 0.124900 0.230000
C992 C -0.023900 0.804500 0.276600
C993 C 0.653400 0.130200 0.275500
C994 C 0.018400 0.841200 0.309900
C995 C 0.674800 0.176300 0.293700
C996 C 0.724600 0.209500 0.275500
C997 C 0.043200 0.886600 0.284000
C998 C 0.108100 0.877400 0.246800
C999 C 0.726500 0.247400 0.304900
C1000 C 0.675100 0.237900 0.341400
C1001 C 0.084000 0.836200 0.219300
C1002 C 0.027900 0.802200 0.232700
C1003 C 0.032100 0.767600 0.197200
C1004 C 0.652100 0.270900 0.381500
C1005 C 0.085600 0.781300 0.163700
C1006 C 0.104600 0.760300 0.117300
C1007 C 0.132800 0.713400 0.116000
C1008 C 1.047700 0.316500 0.374500
N1009 N 0.618200 0.676000 0.322500
N1010 N 0.381800 0.324000 0.322500
N1011 N 0.143600 0.694900 0.835000
N1012 N 0.618200 0.324000 0.677500
N1013 N 0.118200 0.824000 0.177500
N1014 N 0.356400 0.805100 0.335000
N1015 N 0.143600 0.305100 0.165000
N1016 N 0.356400 0.194900 0.665000
N1017 N 0.856400 0.305100 0.835000
N1018 N 0.381800 0.676000 0.677500
N1019 N 0.856400 0.694900 0.165000
N1020 N 0.881800 0.176000 0.177500
N1021 N 0.643600 0.805100 0.665000
N1022 N 0.118200 0.176000 0.822500
N1023 N 0.881800 0.824000 0.822500
N1024 N 0.643600 0.194900 0.335000
O1025 O 0.202200 0.258900 0.574700
O1026 O 0.912500 0.349600 0.277400
O1027 O 0.893900 0.956400 0.692500
O1028 O 0.642800 0.384300 0.395300
O1029 O 0.905900 0.908000 0.640700
O1030 O 0.087500 0.650400 0.277400
O1031 O 1.027300 0.931000 0.772900
O1032 O 1.096800 0.908100 0.713800
O1033 O 1.153100 0.789700 0.661000
O1034 O 0.145200 0.325100 0.594300
O1035 O 0.412500 0.150400 0.222600
O1036 O 0.106100 0.043600 0.692500
O1037 O 0.094100 0.092000 0.640700
O1038 O -0.027300 0.069000 0.772900
O1039 O -0.096800 0.091900 0.713800
O1040 O -0.153100 0.210300 0.661000
O1041 O 0.676600 0.342500 0.455600
O1042 O 0.357200 0.615700 0.395300
O1043 O 0.142800 0.115700 0.104700
O1044 O 0.323400 0.342500 0.544400
O1045 O 0.912500 0.650400 0.722600
O1046 O 0.642800 0.615700 0.604700
O1047 O 0.676600 0.657500 0.544400
O1048 O 0.854800 0.674900 0.594300
O1049 O 0.797800 0.741100 0.574700
O1050 O 0.393900 0.543600 0.807500
O1051 O 0.176600 0.157500 0.044400
O1052 O 0.357200 0.384300 0.604700
O1053 O 1.153100 0.210300 0.339000
O1054 O 0.854800 0.325100 0.405700
O1055 O 1.027300 0.069000 0.227100
O1056 O 0.905900 0.092000 0.359300
O1057 O 0.893900 0.043600 0.307500
O1058 O 0.405900 0.592000 0.859300
O1059 O 0.527300 0.569000 0.727100
O1060 O 0.596800 0.591900 0.786200
O1061 O 0.653100 0.710300 0.839000
O1062 O 0.797800 0.258900 0.425300
O1063 O 0.323400 0.657500 0.455600
O1064 O 0.106100 0.956400 0.307500
O1065 O 0.087500 0.349600 0.722600
O1066 O 0.587500 0.150400 0.777400
O1067 O 0.857200 0.115700 0.895300
O1068 O 0.823400 0.157500 0.955600
O1069 O 0.645200 0.174900 0.905700
O1070 O 0.702200 0.241100 0.925300
O1071 O 0.606100 0.456400 0.807500
O1072 O 0.594100 0.408000 0.859300
O1073 O 0.472700 0.431000 0.727100
O1074 O 0.403200 0.408100 0.786200
O1075 O 0.346900 0.289700 0.839000
O1076 O -0.153100 0.789700 0.339000
O1077 O 0.145200 0.674900 0.405700
O1078 O 0.202200 0.741100 0.425300
O1079 O -0.096800 0.908100 0.286200
O1080 O 0.412500 0.849600 0.777400
O1081 O 0.142800 0.884300 0.895300
O1082 O 0.176600 0.842500 0.955600
O1083 O 0.354800 0.825100 0.905700
O1084 O 0.297800 0.758900 0.925300
O1085 O 0.393900 0.456400 0.192500
O1086 O 0.405900 0.408000 0.140700
O1087 O 0.527300 0.431000 0.272900
O1088 O 0.596800 0.408100 0.213800
O1089 O 0.653100 0.289700 0.161000
O1090 O -0.027300 0.931000 0.227100
O1091 O 0.354800 0.174900 0.094300
O1092 O 0.606100 0.543600 0.192500
O1093 O 0.594100 0.592000 0.140700
O1094 O 0.472700 0.569000 0.272900
O1095 O 0.403200 0.591900 0.213800
O1096 O 0.346900 0.710300 0.161000
O1097 O 0.094100 0.908000 0.359300
O1098 O 0.297800 0.241100 0.074700
O1099 O 0.702200 0.758900 0.074700
O1100 O 1.096800 0.091900 0.286200
O1101 O 0.587500 0.849600 0.222600
O1102 O 0.857200 0.884300 0.104700
O1103 O 0.823400 0.842500 0.044400
O1104 O 0.645200 0.825100 0.094300
Br1105 Br 0.632210 0.988790 0.413600
Br1106 Br 0.378950 0.894300 0.010700
Br1107 Br 0.621050 0.105700 0.010700
Br1108 Br 0.367790 0.988790 0.586400
Br1109 Br 0.378950 0.105700 0.989300
Br1110 Br 0.621050 0.894300 0.989300
Br1111 Br 1.121050 0.394300 0.489300
Br1112 Br 0.867790 0.511210 0.913600
Br1113 Br -0.121050 0.394300 0.510700
Br1114 Br 1.121050 0.605700 0.510700
Br1115 Br 0.867790 0.488790 0.086400
Br1116 Br 0.132210 0.488790 0.913600
Br1117 Br 0.367790 0.011210 0.413600
Br1118 Br -0.121050 0.605700 0.489300
Br1119 Br 0.632210 0.011210 0.586400
Br1120 Br 0.132210 0.511210 0.086400

#END
