./KACTOY_from_POSCAR.cif_generated_by_CrystalShift
_symmetry_cell_setting triclinic
_symmetry_space_group_name_H-M 'P 1'
loop_
_symmetry_equiv_pos_site_id
_symmetry_equiv_pos_as_xyz
1 x,y,z
_cell_length_a 7.948800
_cell_length_b 6.402300
_cell_length_c 8.084400
_cell_angle_alpha 90.000000
_cell_angle_beta 112.987000
_cell_angle_gamma 90.000000
_cell_volume 378.750557
loop_
_atom_site_label
_atom_site_type_symbol
_atom_site_fract_x
_atom_site_fract_y
_atom_site_fract_z
H1 H 1.179300 0.372000 0.842700
H2 H 0.114100 0.750000 0.003400
H3 H 0.431600 0.750000 0.156500
H4 H 0.557300 0.750000 0.467200
H5 H 0.064000 0.750000 0.454700
H6 H 1.179300 0.128000 0.842700
H7 H 1.162300 0.250000 1.005200
H8 H -0.162300 0.750000 -0.005200
H9 H 0.936000 0.250000 0.545300
H10 H -0.179300 0.872000 0.157300
H11 H -0.179300 0.628000 0.157300
H12 H 0.442700 0.250000 0.532800
H13 H 0.885900 0.250000 0.996600
H14 H 0.568400 0.250000 0.843500
C15 C 0.822000 0.250000 0.866100
C16 C 0.634700 0.250000 0.775500
C17 C 0.608100 0.250000 0.306200
C18 C 0.558900 0.250000 0.589000
C19 C 0.391900 0.750000 0.693800
C20 C 0.178000 0.750000 0.133900
C21 C -0.132700 0.750000 0.127100
C22 C 0.677300 0.250000 0.499900
C23 C 0.863900 0.250000 0.594600
C24 C 0.136100 0.750000 0.405400
C25 C 1.132700 0.250000 0.872900
C26 C 0.322700 0.750000 0.500100
C27 C 0.441100 0.750000 0.411000
C28 C 0.365300 0.750000 0.224500
N29 N 0.931620 0.250000 0.774770
N30 N 0.447900 0.750000 0.847500
N31 N 0.068380 0.750000 0.225230
N32 N 0.552100 0.250000 0.152500
Cl33 Cl 0.904460 0.750000 0.679350
Cl34 Cl 0.095540 0.250000 0.320650

#END
