./KACTAM_from_POSCAR.cif_generated_by_CrystalShift
_symmetry_cell_setting triclinic
_symmetry_space_group_name_H-M 'P 1'
loop_
_symmetry_equiv_pos_site_id
_symmetry_equiv_pos_as_xyz
1 x,y,z
_cell_length_a 8.575200
_cell_length_b 21.046000
_cell_length_c 8.294100
_cell_angle_alpha 90.000000
_cell_angle_beta 101.131000
_cell_angle_gamma 90.000000
_cell_volume 1468.708056
loop_
_atom_site_label
_atom_site_type_symbol
_atom_site_fract_x
_atom_site_fract_y
_atom_site_fract_z
H1 H 0.832600 0.301400 0.414500
H2 H 0.757500 0.348200 0.267800
H3 H 0.691000 0.847700 0.094000
H4 H 0.973500 0.491700 0.248600
H5 H 0.805900 0.512300 0.140300
H6 H 0.835000 0.440300 0.200000
H7 H 1.110100 0.631200 0.067700
H8 H 1.038700 0.691900 -0.037300
H9 H 0.941100 0.626700 -0.053700
H10 H 1.003200 0.702200 0.238200
H11 H 0.833600 0.698900 0.115300
H12 H 0.600800 0.727700 0.748800
H13 H 0.586000 0.957800 0.379500
H14 H 0.473600 0.756400 0.961200
H15 H 0.468600 0.927600 0.599500
H16 H 0.407800 0.678800 1.139900
H17 H 0.407800 0.821200 0.639900
H18 H 0.468600 0.572400 1.099500
H19 H 0.473600 0.743600 0.461200
H20 H 0.586000 0.542200 0.879500
H21 H 0.600800 0.772300 0.248800
H22 H 0.691000 0.652300 0.594000
H23 H 0.167400 -0.198600 1.085500
H24 H 0.833600 0.801100 -0.384700
H25 H 1.003200 0.797800 -0.261800
H26 H 0.068200 -0.138500 1.128000
H27 H 0.941100 0.873300 -0.553700
H28 H 1.038700 0.808100 -0.537300
H29 H 1.110100 0.868800 -0.432300
H30 H 0.242500 -0.151800 1.232200
H31 H 0.835000 1.059700 -0.300000
H32 H 0.805900 0.987700 -0.359700
H33 H 0.973500 1.008300 -0.251400
H34 H 0.026500 -0.008300 1.251400
H35 H 0.194100 0.012300 1.359700
H36 H 0.757500 1.151800 -0.232200
H37 H 0.931800 1.138500 -0.128000
H38 H 0.832600 1.198600 -0.085500
H39 H 0.165000 -0.059700 1.300000
H40 H -0.110100 0.131200 1.432300
H41 H 0.309000 0.347700 0.406000
H42 H -0.038700 0.191900 1.537300
H43 H 0.058900 0.126700 1.553700
H44 H -0.003200 0.202200 1.261800
H45 H 0.166400 0.198900 1.384700
H46 H 0.399200 0.227700 0.751200
H47 H 0.526400 0.256400 0.538800
H48 H 0.592200 0.178800 0.360100
H49 H 0.531400 0.072400 0.400500
H50 H 0.414000 0.042200 0.620500
H51 H 0.414000 0.457800 0.120500
H52 H 0.309000 0.152300 0.906000
H53 H 0.531400 0.427600 -0.099500
H54 H 0.167400 0.698600 0.585500
H55 H 0.592200 0.321200 -0.139900
H56 H 0.068200 0.638500 0.628000
H57 H 0.526400 0.243600 0.038800
H58 H 0.242500 0.651800 0.732200
H59 H 0.399200 0.272300 0.251200
H60 H 0.026500 0.508300 0.751400
H61 H 0.194100 0.487700 0.859700
H62 H 0.166400 0.301100 0.884700
H63 H -0.003200 0.297800 0.761800
H64 H 0.165000 0.559700 0.800000
H65 H 0.058900 0.373300 1.053700
H66 H -0.038700 0.308100 1.037300
H67 H -0.110100 0.368800 0.932300
H68 H 0.931800 0.361500 0.372000
C69 C -0.012500 0.345620 0.977950
C70 C 0.068250 0.325180 0.840600
C71 C 0.185550 0.375950 0.637200
C72 C 0.245250 0.614290 0.504080
C73 C 0.174700 0.654320 0.622860
C74 C 0.428700 0.304210 0.181880
C75 C 0.502500 0.286980 0.054190
C76 C 0.541950 0.332850 -0.051700
C77 C 0.825300 0.345680 0.377140
C78 C 0.754750 0.385710 0.495920
C79 C 0.506700 0.396130 -0.026380
C80 C 0.709150 0.934240 0.080250
C81 C 0.290850 0.065760 0.919750
C82 C 0.858380 0.484790 0.229790
C83 C 0.224800 0.063950 1.063100
C84 C 0.775200 0.936050 -0.063100
C85 C 0.201880 0.000220 1.116020
C86 C 0.246300 -0.044530 1.011820
C87 C 0.396880 0.131960 0.710460
C88 C 0.435770 0.085770 0.604060
C89 C 0.435770 0.414230 0.104060
C90 C 0.506700 0.103870 0.473620
C91 C 0.396880 0.368040 0.210460
C92 C 0.541950 0.167150 0.448300
C93 C 0.246300 0.544530 0.511820
C94 C 0.502500 0.213020 0.554190
C95 C 0.201880 0.499780 0.616020
C96 C 0.428700 0.195790 0.681880
C97 C 0.798120 0.999780 -0.116020
C98 C 0.185550 0.124050 1.137200
C99 C 0.068250 0.174820 1.340600
C100 C 0.224800 0.436050 0.563100
C101 C 1.012500 0.654380 0.022050
C102 C -0.012500 0.154380 1.477950
C103 C 0.290850 0.434240 0.419750
C104 C 0.753700 1.044530 -0.011820
C105 C 0.603120 0.868040 0.289540
C106 C 0.141620 -0.015210 1.270210
C107 C 0.931750 0.674820 0.159400
C108 C 0.825300 1.154320 -0.122860
C109 C 0.754750 1.114290 -0.004080
C110 C 0.245250 -0.114290 1.004080
C111 C 0.174700 -0.154320 1.122860
C112 C 0.858380 1.015210 -0.270210
C113 C 1.012500 0.845620 -0.477950
C114 C 0.931750 0.825180 -0.340600
C115 C 0.814450 0.624050 0.362800
C116 C 0.564230 0.914230 0.395940
C117 C 0.814450 0.875950 -0.137200
C118 C 0.571300 0.695790 0.818120
C119 C 0.709150 0.565760 0.580250
C120 C 0.493300 0.896130 0.526380
C121 C 0.775200 0.563950 0.436900
C122 C 0.497500 0.713020 0.945810
C123 C 0.798120 0.500220 0.383980
C124 C 0.753700 0.455470 0.488180
C125 C 0.603120 0.631960 0.789540
C126 C 0.564230 0.585770 0.895940
C127 C 0.571300 0.804210 0.318120
C128 C 0.493300 0.603870 1.026380
C129 C 0.497500 0.786980 0.445810
C130 C 0.458050 0.667150 1.051700
C131 C 0.458050 0.832850 0.551700
C132 C 0.141620 0.515210 0.770210
N133 N 0.325420 0.120310 0.846760
N134 N 0.674580 0.620310 0.653240
N135 N 0.674580 0.879690 0.153240
N136 N 0.325420 0.379690 0.346760
O137 O 0.698000 0.359770 0.604890
O138 O 0.782030 0.676870 0.410450
O139 O 0.302000 0.640230 0.395110
O140 O 0.217970 0.323130 0.589550
O141 O 0.106150 0.383260 0.759850
O142 O 0.893850 0.883260 -0.259850
O143 O 0.106150 0.116740 1.259850
O144 O 0.217970 0.176870 1.089550
O145 O 0.782030 0.823130 -0.089550
O146 O 0.302000 -0.140230 0.895110
O147 O 0.698000 1.140230 0.104890
O148 O 0.893850 0.616740 0.240150
S149 S 0.680160 0.490165 0.650300
S150 S 0.319840 -0.009835 0.849700
S151 S 0.319840 0.509835 0.349700
S152 S 0.680160 1.009835 0.150300

#END
