
#######################################################################
#
#                 Cambridge Crystallographic Data Centre
#                                CCDC 
#
#######################################################################
#
# If this CIF has been generated from an entry in the Cambridge 
# Structural Database, then it will include bibliographic, chemical, 
# crystal, experimental, refinement or atomic coordinate data resulting 
# from the CCDC's data processing and validation procedures.
#
#######################################################################

data_KACVES01
_symmetry_cell_setting           monoclinic
_symmetry_space_group_name_H-M   'P 21/c'
_symmetry_Int_Tables_number      14
_space_group_name_Hall           '-P 2ybc'
loop_
_symmetry_equiv_pos_site_id
_symmetry_equiv_pos_as_xyz
1 x,y,z
2 -x,1/2+y,1/2-z
3 -x,-y,-z
4 x,1/2-y,1/2+z
_cell_length_a                   16.4638(14)
_cell_length_b                   6.3346(3)
_cell_length_c                   10.9922(7)
_cell_angle_alpha                90
_cell_angle_beta                 106.369(8)
_cell_angle_gamma                90
_cell_volume                     1099.93
loop_
_atom_site_label
_atom_site_type_symbol
_atom_site_fract_x
_atom_site_fract_y
_atom_site_fract_z
C1 C 0.36153(18) 0.2733(4) 0.5490(2)
C2 C 0.3102(2) 0.3173(4) 0.6435(2)
H1 H 0.3020 0.1822 0.6818
C3 C 0.2244(2) 0.4054(5) 0.5797(3)
H2 H 0.1964 0.4405 0.6439
H3 H 0.1909 0.2976 0.5255
C4 C 0.2266(2) 0.6016(4) 0.5002(3)
C5 C 0.2762(2) 0.5538(4) 0.4073(3)
H4 H 0.2816 0.6819 0.3619
H5 H 0.2452 0.4517 0.3458
C6 C 0.3637(2) 0.4675(5) 0.4708(3)
H6 H 0.3915 0.4334 0.4064
H7 H 0.3969 0.5758 0.5251
C7 C 0.4499(2) 0.1947(6) 0.6148(4)
H8 H 0.4814 0.3046 0.6676
H9 H 0.4464 0.0742 0.6660
H10 H 0.4778 0.1555 0.5524
C8 C 0.1377(3) 0.6876(7) 0.4317(5)
H11 H 0.1504 0.7913 0.3735
C9 C 0.0820(4) 0.5331(11) 0.3413(6)
H12 H 0.1156 0.4543 0.2985
H13 H 0.0564 0.4380 0.3877
H14 H 0.0386 0.6085 0.2800
C10 C 0.0968(4) 0.8023(13) 0.4943(9)
H15 H 0.1355 0.8970 0.5500
H16 H 0.0535 0.8822 0.4356
H17 H 0.0713 0.7117 0.5433
O1 O 0.31439(15) 0.1084(3) 0.46992(17)
H18 H 0.332(2) 0.090(5) 0.4077(19)
O2 O 0.35622(16) 0.4519(3) 0.74309(18)
H19 H 0.346(2) 0.574(2) 0.716(3)
O3 O 0.27017(16) 0.7569(3) 0.58911(19)
H20 H 0.2970(19) 0.855(4) 0.570(3)
C1 C 0.63847(18) 0.7733(4) 0.9510(2)
C2 C 0.6898(2) 0.8173(4) 0.8565(2)
H1 H 0.6980 0.6822 0.8182
C3 C 0.7756(2) 0.9054(5) 0.9203(3)
H2 H 0.8036 0.9405 0.8561
H3 H 0.8091 0.7976 0.9745
C4 C 0.7734(2) 1.1016(4) 0.9998(3)
C5 C 0.7238(2) 1.0538(4) 1.0927(3)
H4 H 0.7184 1.1819 1.1381
H5 H 0.7548 0.9517 1.1542
C6 C 0.6363(2) 0.9675(5) 1.0292(3)
H6 H 0.6085 0.9334 1.0936
H7 H 0.6031 1.0758 0.9749
C7 C 0.5501(2) 0.6947(6) 0.8852(4)
H8 H 0.5186 0.8046 0.8324
H9 H 0.5536 0.5742 0.8340
H10 H 0.5222 0.6555 0.9476
C8 C 0.8623(3) 1.1876(7) 1.0683(5)
H11 H 0.8496 1.2913 1.1265
C9 C 0.9180(4) 1.0331(11) 1.1587(6)
H12 H 0.8844 0.9543 1.2015
H13 H 0.9436 0.9380 1.1123
H14 H 0.9614 1.1085 1.2200
C10 C 0.9032(4) 1.3023(13) 1.0057(9)
H15 H 0.8645 1.3970 0.9500
H16 H 0.9465 1.3822 1.0644
H17 H 0.9287 1.2117 0.9567
O1 O 0.68561(15) 0.6084(3) 1.03008(17)
H18 H 0.668(2) 0.590(5) 1.0923(19)
O2 O 0.64378(16) 0.9519(3) 0.75691(18)
H19 H 0.654(2) 1.074(2) 0.784(3)
O3 O 0.72983(16) 1.2569(3) 0.91089(19)
H20 H 0.7030(19) 1.355(4) 0.930(3)
C1 C 0.63847(18) 0.7267(4) 0.4510(2)
C2 C 0.6898(2) 0.6827(4) 0.3565(2)
H1 H 0.6980 0.8178 0.3182
C3 C 0.7756(2) 0.5946(5) 0.4203(3)
H2 H 0.8036 0.5595 0.3561
H3 H 0.8091 0.7024 0.4745
C4 C 0.7734(2) 0.3984(4) 0.4998(3)
C5 C 0.7238(2) 0.4462(4) 0.5927(3)
H4 H 0.7184 0.3181 0.6381
H5 H 0.7548 0.5483 0.6542
C6 C 0.6363(2) 0.5325(5) 0.5292(3)
H6 H 0.6085 0.5666 0.5936
H7 H 0.6031 0.4242 0.4749
C7 C 0.5501(2) 0.8053(6) 0.3852(4)
H8 H 0.5186 0.6954 0.3324
H9 H 0.5536 0.9258 0.3340
H10 H 0.5222 0.8445 0.4476
C8 C 0.8623(3) 0.3124(7) 0.5683(5)
H11 H 0.8496 0.2087 0.6265
C9 C 0.9180(4) 0.4669(11) 0.6587(6)
H12 H 0.8844 0.5457 0.7015
H13 H 0.9436 0.5620 0.6123
H14 H 0.9614 0.3915 0.7200
C10 C 0.9032(4) 0.1977(13) 0.5057(9)
H15 H 0.8645 0.1030 0.4500
H16 H 0.9465 0.1178 0.5644
H17 H 0.9287 0.2883 0.4567
O1 O 0.68561(15) 0.8916(3) 0.53008(17)
H18 H 0.668(2) 0.910(5) 0.5923(19)
O2 O 0.64378(16) 0.5481(3) 0.25691(18)
H19 H 0.654(2) 0.426(2) 0.284(3)
O3 O 0.72983(16) 0.2431(3) 0.41089(19)
H20 H 0.7030(19) 0.145(4) 0.430(3)
C1 C 0.36153(18) 0.2267(4) 0.0490(2)
C2 C 0.3102(2) 0.1827(4) 0.1435(2)
H1 H 0.3020 0.3178 0.1818
C3 C 0.2244(2) 0.0946(5) 0.0797(3)
H2 H 0.1964 0.0595 0.1439
H3 H 0.1909 0.2024 0.0255
C4 C 0.2266(2) -0.1016(4) 0.0002(3)
C5 C 0.2762(2) -0.0538(4) -0.0927(3)
H4 H 0.2816 -0.1819 -0.1381
H5 H 0.2452 0.0483 -0.1542
C6 C 0.3637(2) 0.0325(5) -0.0292(3)
H6 H 0.3915 0.0666 -0.0936
H7 H 0.3969 -0.0758 0.0251
C7 C 0.4499(2) 0.3053(6) 0.1148(4)
H8 H 0.4814 0.1954 0.1676
H9 H 0.4464 0.4258 0.1660
H10 H 0.4778 0.3445 0.0524
C8 C 0.1377(3) -0.1876(7) -0.0683(5)
H11 H 0.1504 -0.2913 -0.1265
C9 C 0.0820(4) -0.0331(11) -0.1587(6)
H12 H 0.1156 0.0457 -0.2015
H13 H 0.0564 0.0620 -0.1123
H14 H 0.0386 -0.1085 -0.2200
C10 C 0.0968(4) -0.3023(13) -0.0057(9)
H15 H 0.1355 -0.3970 0.0500
H16 H 0.0535 -0.3822 -0.0644
H17 H 0.0713 -0.2117 0.0433
O1 O 0.31439(15) 0.3916(3) -0.03008(17)
H18 H 0.332(2) 0.410(5) -0.0923(19)
O2 O 0.35622(16) 0.0481(3) 0.24309(18)
H19 H 0.346(2) -0.074(2) 0.216(3)
O3 O 0.27017(16) -0.2569(3) 0.08911(19)
H20 H 0.2970(19) -0.355(4) 0.070(3)

#END
