./KACWAO_from_POSCAR.cif_generated_by_CrystalShift
_symmetry_cell_setting triclinic
_symmetry_space_group_name_H-M 'P 1'
loop_
_symmetry_equiv_pos_site_id
_symmetry_equiv_pos_as_xyz
1 x,y,z
_cell_length_a 9.478000
_cell_length_b 38.683000
_cell_length_c 9.899000
_cell_angle_alpha 90.000000
_cell_angle_beta 101.680000
_cell_angle_gamma 90.000000
_cell_volume 3554.193471
loop_
_atom_site_label
_atom_site_type_symbol
_atom_site_fract_x
_atom_site_fract_y
_atom_site_fract_z
H1 H 0.363900 0.530900 0.745800
H2 H 0.119500 0.541400 0.695700
H3 H -0.041500 0.495700 0.652900
H4 H 0.041100 0.439600 0.645500
H5 H 0.288000 0.429400 0.690800
H6 H 0.807800 0.428000 0.922100
H7 H 0.855400 0.389100 1.104300
H8 H 0.678400 0.374200 1.220300
H9 H 0.685700 0.251700 0.995400
H10 H 0.449800 0.397700 1.157500
H11 H 0.578900 0.303400 1.031700
H12 H 0.397600 0.434700 0.970200
H13 H 0.463300 0.335900 0.848800
H14 H 0.610000 0.525300 0.597400
H15 H 0.456300 0.317700 0.625800
H16 H 0.760000 0.572700 0.614800
H17 H 0.551800 0.265400 0.585600
H18 H 0.908900 0.586100 0.824200
H19 H 0.926800 0.548100 1.007000
H20 H 0.441900 0.199800 0.585600
H21 H 0.785900 0.499600 0.989300
H22 H 0.341200 0.167100 0.394400
H23 H 1.136100 1.030900 0.754200
H24 H 0.484600 0.131400 0.294200
H25 H 1.380500 1.041400 0.804300
H26 H 0.727900 0.127300 0.383900
H27 H 1.541500 0.995700 0.847100
H28 H 0.830500 0.161000 0.573200
H29 H 1.458900 0.939600 0.854500
H30 H 1.212000 0.929400 0.809200
H31 H 0.999100 0.170300 0.843500
H32 H 0.692200 0.928000 0.577900
H33 H 1.243700 0.179400 0.886100
H34 H 0.644600 0.889100 0.395700
H35 H 1.332400 0.234200 0.856100
H36 H 0.821600 0.874200 0.279700
H37 H 1.176000 0.278900 0.776900
H38 H 1.050200 0.897700 0.342500
H39 H 0.931200 0.269700 0.733200
H40 H 1.102400 0.934700 0.529800
H41 H 0.890000 1.025300 0.902600
H42 H 0.740000 1.072700 0.885200
H43 H 0.591100 1.086100 0.675800
H44 H 0.573200 1.048100 0.493000
H45 H 0.714100 0.999600 0.510700
H46 H 0.636100 0.469100 0.254200
H47 H 0.880500 0.458600 0.304300
H48 H 0.814300 0.751700 0.504600
H49 H 1.041500 0.504300 0.347100
H50 H 0.921100 0.803400 0.468300
H51 H 0.958900 0.560400 0.354500
H52 H 1.036700 0.835900 0.651200
H53 H 0.712000 0.570600 0.309200
H54 H 1.043700 0.817700 0.874200
H55 H 0.192200 0.572000 0.077900
H56 H 0.948200 0.765400 0.914400
H57 H 0.144600 0.610900 -0.104300
H58 H 0.321600 0.625800 -0.220300
H59 H 1.058100 0.699800 0.914400
H60 H 0.550200 0.602300 -0.157500
H61 H 1.158800 0.667100 1.105600
H62 H 0.602400 0.565300 0.029800
H63 H 1.015400 0.631400 1.205800
H64 H 0.390000 0.474700 0.402600
H65 H 0.772100 0.627300 1.116100
H66 H 0.240000 0.427300 0.385200
H67 H 0.669500 0.661000 0.926800
H68 H 0.091100 0.413900 0.175800
H69 H 0.073200 0.451900 -0.007000
H70 H 0.500900 0.670300 0.656500
H71 H 0.214100 0.500400 0.010700
H72 H 0.256300 0.679400 0.613900
H73 H -0.136100 -0.030900 0.245800
H74 H 0.167600 0.734200 0.643900
H75 H -0.380500 -0.041400 0.195700
H76 H 0.324000 0.778900 0.723100
H77 H -0.541500 0.004300 0.152900
H78 H 0.568800 0.769700 0.766800
H79 H -0.458900 0.060400 0.145500
H80 H -0.212000 0.070600 0.190800
H81 H 0.307800 0.072000 0.422100
H82 H 0.355400 0.110900 0.604300
H83 H 0.178400 0.125800 0.720300
H84 H -0.050200 0.102300 0.657500
H85 H -0.102400 0.065300 0.470200
H86 H 0.110000 -0.025300 0.097400
H87 H 0.314300 0.748300 0.004600
H88 H 0.260000 -0.072700 0.114800
H89 H 0.421100 0.696600 -0.031700
H90 H 0.408900 -0.086100 0.324200
H91 H 0.536700 0.664100 0.151200
H92 H 0.426800 -0.048100 0.507000
H93 H 0.543700 0.682300 0.374200
H94 H 0.285900 0.000400 0.489300
H95 H 0.448200 0.734600 0.414400
H96 H 0.431200 0.230300 0.233200
H97 H 0.676000 0.221100 0.276900
H98 H 0.558100 0.800200 0.414400
H99 H 0.832400 0.265800 0.356100
H100 H 0.658800 0.832900 0.605600
H101 H 0.743700 0.320600 0.386100
H102 H 0.515400 0.868600 0.705800
H103 H 0.499100 0.329700 0.343500
H104 H 0.272100 0.872700 0.616100
H105 H 0.330500 0.339000 0.073200
H106 H 0.169500 0.839000 0.426800
H107 H 0.227900 0.372700 -0.116100
H108 H -0.015400 0.368600 -0.205800
H109 H 0.000900 0.829700 0.156500
H110 H -0.158800 0.332900 -0.105600
H111 H -0.243700 0.820600 0.113900
H112 H -0.058100 0.300200 0.085600
H113 H -0.332400 0.765800 0.143900
H114 H 0.051800 0.234600 0.085600
H115 H -0.176000 0.721100 0.223100
H116 H -0.043700 0.182300 0.125800
H117 H 0.068800 0.730300 0.266800
H118 H -0.036700 0.164100 0.348800
H119 H 0.078900 0.196600 0.531700
H120 H 0.185700 0.248300 0.495400
C121 C 0.479200 0.596500 -0.109000
C122 C 0.153500 0.518900 0.696800
C123 C 0.057100 0.491400 0.669200
C124 C 0.132500 0.247310 0.285300
C125 C 0.138700 0.235300 0.420600
C126 C 0.105800 0.457800 0.665800
C127 C 0.075100 0.204400 0.442100
C128 C 0.254100 0.451900 0.693500
C129 C 0.006300 0.184900 0.332900
C130 C 0.353800 0.479200 0.725500
C131 C 0.000600 0.196000 0.199600
C132 C 0.006300 0.748500 0.236400
C133 C 0.059700 0.226900 0.175800
C134 C -0.140100 0.742900 0.209700
C135 C 0.146900 0.315800 0.097000
C136 C 0.000100 0.314400 0.044400
C137 C -0.233600 0.769700 0.162900
C138 C -0.060400 0.334200 -0.069500
C139 C -0.180700 0.802500 0.144200
C140 C 0.025400 0.355500 -0.128900
C141 C -0.034500 0.807900 0.170600
C142 C 0.170900 0.357900 -0.076300
C143 C 0.062100 0.781200 0.218400
C144 C 0.232100 0.337700 0.037400
C145 C 0.267900 0.837700 0.462600
C146 C 0.437900 0.281200 0.281600
C147 C 0.534500 0.307900 0.329400
C148 C 0.329100 0.857900 0.576300
C149 C 0.680700 0.302500 0.355800
C150 C 0.474600 0.855500 0.628900
C151 C 0.733600 0.269700 0.337100
C152 C 0.560400 0.834200 0.569500
C153 C 0.640100 0.242900 0.290300
C154 C 0.499900 0.814400 0.455600
C155 C 0.493700 0.248500 0.263600
C156 C 0.353100 0.815800 0.403000
C157 C 0.735100 0.421800 0.968000
C158 C 0.632500 0.252690 0.785300
C159 C 0.763800 0.398600 1.077800
C160 C 0.638700 0.264700 0.920600
C161 C 0.658000 0.389700 1.147000
C162 C 0.575100 0.295600 0.942100
C163 C 0.180700 -0.007190 0.292600
C164 C 0.278000 -0.014500 0.414400
C165 C 0.440300 0.726900 0.324200
C166 C 0.362500 -0.043500 0.424800
C167 C 0.499400 0.696000 0.300400
C168 C 0.353700 -0.066000 0.314900
C169 C 0.493700 0.684900 0.167100
C170 C 0.262100 -0.058400 0.190800
C171 C 0.424900 0.704400 0.057900
C172 C 0.174100 -0.029800 0.179800
C173 C 0.361300 0.735300 0.079400
C174 C 0.097700 0.064300 0.427200
C175 C -0.009600 0.074000 0.498000
C176 C 0.367500 0.747310 0.214700
C177 C 0.020800 0.096500 0.609000
C178 C 0.520800 0.403500 1.109000
C179 C 0.158000 0.110300 0.647000
C180 C 0.506300 0.315100 0.832900
C181 C 0.263800 0.101400 0.577800
C182 C 0.490400 0.426000 0.998000
C183 C 0.235100 0.078200 0.468000
C184 C 0.597700 0.435700 0.927200
C185 C -0.146200 0.020800 0.225500
C186 C -0.245900 0.048100 0.193500
C187 C 0.500600 0.304000 0.699600
C188 C -0.394200 0.042200 0.165800
C189 C 0.674100 0.529800 0.679800
C190 C -0.442900 0.008600 0.169200
C191 C 0.506300 0.751500 0.736400
C192 C -0.346500 -0.018900 0.196800
C193 C 0.359900 0.757100 0.709700
C194 C -0.199900 -0.012400 0.225700
C195 C 0.266400 0.730300 0.662900
C196 C 0.559700 0.273100 0.675800
C197 C 0.762100 0.558400 0.690800
C198 C 0.646900 0.184200 0.597000
C199 C 0.853700 0.566000 0.814900
C200 C 0.500100 0.185600 0.544400
C201 C 0.862500 0.543500 0.924800
C202 C 0.319300 0.492810 0.207400
C203 C 0.222000 0.485500 0.085600
C204 C 0.319300 0.697500 0.644200
C205 C 0.137500 0.456500 0.075200
C206 C 0.465500 0.692100 0.670600
C207 C 0.146300 0.434000 0.185100
C208 C 0.562100 0.718800 0.718400
C209 C 0.237900 0.441600 0.309200
C210 C 0.767900 0.662300 0.962600
C211 C 0.325900 0.470200 0.320200
C212 C 0.829100 0.642100 1.076300
C213 C 0.402300 0.564300 0.072800
C214 C 0.509600 0.574000 0.002000
C215 C 0.974600 0.644500 1.128900
C216 C 0.300100 0.512400 0.725700
C217 C 1.060400 0.665800 1.069500
C218 C 0.342000 0.610300 -0.147000
C219 C 0.999900 0.685600 0.955600
C220 C 0.236200 0.601400 -0.077800
C221 C 0.853100 0.684200 0.903000
C222 C 0.264900 0.578200 0.032000
C223 C 0.940300 0.773100 0.824200
C224 C 0.646200 0.520800 0.274500
C225 C 0.745900 0.548100 0.306500
C226 C 0.999400 0.804000 0.800400
C227 C 0.894200 0.542200 0.334200
C228 C 0.993700 0.815100 0.667100
C229 C 0.942900 0.508600 0.330800
C230 C 0.924900 0.795600 0.557900
C231 C 0.846500 0.481100 0.303200
C232 C 0.861300 0.764700 0.579400
C233 C 0.699900 0.487600 0.274300
C234 C 0.867500 0.752690 0.714700
C235 C 0.439600 0.165800 0.430500
C236 C 0.778000 0.514500 0.914400
C237 C 0.680700 0.507190 0.792600
C238 C 0.525400 0.144500 0.371100
C239 C 1.199900 1.012400 0.774300
C240 C 0.670900 0.142100 0.423700
C241 C 0.819300 1.007190 0.707400
C242 C 0.722000 1.014500 0.585600
C243 C 1.346500 1.018900 0.803200
C244 C 0.637500 1.043500 0.575200
C245 C 0.732100 0.162300 0.537400
C246 C 0.646300 1.066000 0.685100
C247 C 1.442900 0.991400 0.830800
C248 C 0.737900 1.058400 0.809200
C249 C 0.937900 0.218800 0.781600
C250 C 0.825900 1.029800 0.820200
C251 C 1.394200 0.957800 0.834200
C252 C 0.902300 0.935700 0.572800
C253 C 1.009600 0.926000 0.502000
C254 C 1.034500 0.192100 0.829400
C255 C 0.979200 0.903500 0.391000
C256 C 0.993700 0.251500 0.763600
C257 C 0.842000 0.889700 0.353000
C258 C 1.140100 0.257100 0.790300
C259 C 0.736200 0.898600 0.422200
C260 C 1.233600 0.230300 0.837100
C261 C 0.764900 0.921800 0.532000
C262 C 1.180700 0.197500 0.855800
C263 C 1.146200 0.979200 0.774500
C264 C 1.245900 0.951900 0.806500
O265 O 0.202600 0.372050 0.583400
O266 O 0.777400 0.684150 0.594700
O267 O 0.997900 0.634460 0.659600
O268 O 0.797400 0.627950 0.416600
O269 O 1.000200 0.678490 0.443900
O270 O -0.000200 0.321510 0.556100
O271 O 0.502100 0.134460 0.840400
O272 O 0.985100 0.888020 1.058300
O273 O 0.825200 0.876240 0.800800
O274 O 0.702600 0.127950 1.083400
O275 O 0.593500 0.445210 0.625100
O276 O 0.791300 0.407600 0.504400
O277 O 0.674800 0.376240 0.699200
O278 O 0.514900 0.388020 0.441700
O279 O 0.002100 0.365540 0.340400
O280 O 0.708700 0.907600 0.995600
O281 O 0.906500 0.945210 0.874900
O282 O 0.499800 0.178490 1.056100
O283 O 0.222600 0.315850 0.405300
O284 O 0.485100 0.611980 0.558300
O285 O 0.325200 0.623760 0.300800
O286 O 0.208700 0.592400 0.495600
O287 O 0.406500 0.554790 0.374900
O288 O 0.722600 0.184150 0.905300
O289 O 0.093500 0.054790 0.125100
O290 O 0.277400 0.815850 0.094700
O291 O 0.497900 0.865540 0.159600
O292 O 0.297400 0.872050 -0.083400
O293 O 0.500200 0.821510 -0.056100
O294 O 0.291300 0.092400 0.004400
O295 O 0.174800 0.123760 0.199200
O296 O 0.014900 0.111980 -0.058300
Ge297 Ge 0.054580 0.031930 0.276960
Ge298 Ge 0.266720 0.788250 0.245350
Ge299 Ge 0.945420 0.968070 0.723040
Ge300 Ge 0.233280 0.288250 0.254650
Ge301 Ge 0.733280 0.211750 0.754650
Ge302 Ge 0.554580 0.468070 0.776960
Ge303 Ge 0.445420 0.531930 0.223040
Ge304 Ge 0.766720 0.711750 0.745350
Tc305 Tc 0.644970 0.403711 0.568050
Tc306 Tc 0.144970 0.096289 0.068050
Tc307 Tc 0.395240 0.844211 0.027890
Tc308 Tc 0.104760 0.344211 0.472110
Tc309 Tc 0.855030 0.903711 0.931950
Tc310 Tc 0.355030 0.596289 0.431950
Tc311 Tc 0.895240 0.655789 0.527890
Tc312 Tc 0.604760 0.155789 0.972110

#END
