
#######################################################################
#
#                 Cambridge Crystallographic Data Centre
#                                CCDC 
#
#######################################################################
#
# If this CIF has been generated from an entry in the Cambridge 
# Structural Database, then it will include bibliographic, chemical, 
# crystal, experimental, refinement or atomic coordinate data resulting 
# from the CCDC's data processing and validation procedures.
#
#######################################################################

data_KACWAP
_symmetry_cell_setting           triclinic
_symmetry_space_group_name_H-M   'P -1'
_symmetry_Int_Tables_number      2
_space_group_name_Hall           '-P 1'
loop_
_symmetry_equiv_pos_site_id
_symmetry_equiv_pos_as_xyz
1 x,y,z
2 -x,-y,-z
_cell_length_a                   6.0180(12)
_cell_length_b                   8.2370(16)
_cell_length_c                   21.600(4)
_cell_angle_alpha                87.08(3)
_cell_angle_beta                 87.46(3)
_cell_angle_gamma                82.30(3)
_cell_volume                     1058.93
loop_
_atom_site_label
_atom_site_type_symbol
_atom_site_fract_x
_atom_site_fract_y
_atom_site_fract_z
S1 S 0.3580(5) 1.2937(3) 0.55860(10)
O1 O 0.8672(9) 1.0932(6) 0.3974(2)
N1 N 0.6141(10) 1.2198(6) 0.4632(2)
C1 C 0.6332(18) 1.1960(10) 0.5754(3)
H1 H 0.7185 1.2727 0.5933
H2 H 0.6247 1.1038 0.6048
S2 S 0.2025(4) 1.3916(3) 0.43581(11)
N2 N 0.5238(9) 1.0397(6) 0.2829(2)
O2 O 0.7317(9) 1.2564(6) 0.2939(2)
C2 C 0.7488(14) 1.1360(9) 0.5128(3)
H3 H 0.9009 1.1631 0.5089
H4 H 0.7541 1.0181 0.5109
Cl1 Cl 0.9517(3) 1.1900(2) 0.15966(9)
N3 N 0.5126(8) 0.9330(6) 0.2377(2)
O3 O 0.7251(10) 0.6358(6) -0.0351(2)
C3 C 0.4011(13) 1.3032(8) 0.4790(3)
C4 C 0.7031(12) 1.1923(8) 0.4023(3)
C5 C 0.6019(13) 1.2922(8) 0.3489(3)
H5 H 0.4501 1.2684 0.3442
H6 H 0.5948 1.4078 0.3565
C6 C 0.6709(11) 1.1353(8) 0.2632(3)
C7 C 0.7544(10) 1.0928(8) 0.2028(3)
C8 C 0.6471(10) 0.9655(7) 0.1873(3)
C9 C 0.6640(11) 0.8793(7) 0.1285(3)
C10 C 0.4864(12) 0.8856(8) 0.0921(3)
H7 H 0.3517 0.9451 0.1051
C11 C 0.4928(12) 0.8090(8) 0.0367(3)
H8 H 0.3663 0.8184 0.0129
C12 C 0.6885(14) 0.7190(9) 0.0174(3)
C13 C 0.8745(14) 0.7089(10) 0.0538(4)
H9 H 1.0080 0.6482 0.0404
C14 C 0.8676(12) 0.7874(8) 0.1102(3)
H10 H 0.9930 0.7788 0.1344
C15 C 0.5420(16) 0.6435(10) -0.0758(3)
H11 H 0.5887 0.5803 -0.1113
H12 H 0.4961 0.7555 -0.0890
H13 H 0.4184 0.5999 -0.0542
C16 C 0.3698(10) 0.8087(8) 0.2460(3)
C17 C 0.1632(11) 0.8482(9) 0.2779(3)
H14 H 0.1221 0.9536 0.2916
C18 C 0.0202(12) 0.7308(11) 0.2891(3)
H15 H -0.1153 0.7572 0.3110
C19 C 0.0771(14) 0.5754(11) 0.2680(3)
H16 H -0.0208 0.4973 0.2742
C20 C 0.2867(12) 0.5373(9) 0.2370(3)
H17 H 0.3287 0.4324 0.2229
C21 C 0.4305(11) 0.6538(8) 0.2272(3)
H18 H 0.5702 0.6260 0.2077
S1 S 0.6420(5) -0.2937(3) 0.44140(10)
O1 O 0.1328(9) -0.0932(6) 0.6026(2)
N1 N 0.3859(10) -0.2198(6) 0.5368(2)
C1 C 0.3668(18) -0.1960(10) 0.4246(3)
H1 H 0.2815 -0.2727 0.4067
H2 H 0.3753 -0.1038 0.3952
S2 S 0.7975(4) -0.3916(3) 0.56419(11)
N2 N 0.4762(9) -0.0397(6) 0.7171(2)
O2 O 0.2683(9) -0.2564(6) 0.7061(2)
C2 C 0.2512(14) -0.1360(9) 0.4872(3)
H3 H 0.0991 -0.1631 0.4911
H4 H 0.2459 -0.0181 0.4891
Cl1 Cl 0.0483(3) -0.1900(2) 0.84034(9)
N3 N 0.4874(8) 0.0670(6) 0.7623(2)
O3 O 0.2749(10) 0.3642(6) 1.0351(2)
C3 C 0.5989(13) -0.3032(8) 0.5210(3)
C4 C 0.2969(12) -0.1923(8) 0.5977(3)
C5 C 0.3981(13) -0.2922(8) 0.6511(3)
H5 H 0.5499 -0.2684 0.6558
H6 H 0.4052 -0.4078 0.6435
C6 C 0.3291(11) -0.1353(8) 0.7368(3)
C7 C 0.2456(10) -0.0928(8) 0.7972(3)
C8 C 0.3529(10) 0.0345(7) 0.8127(3)
C9 C 0.3360(11) 0.1207(7) 0.8715(3)
C10 C 0.5136(12) 0.1144(8) 0.9079(3)
H7 H 0.6483 0.0549 0.8949
C11 C 0.5072(12) 0.1910(8) 0.9633(3)
H8 H 0.6337 0.1816 0.9871
C12 C 0.3115(14) 0.2810(9) 0.9826(3)
C13 C 0.1255(14) 0.2911(10) 0.9462(4)
H9 H -0.0080 0.3518 0.9596
C14 C 0.1324(12) 0.2126(8) 0.8898(3)
H10 H 0.0070 0.2212 0.8656
C15 C 0.4580(16) 0.3565(10) 1.0758(3)
H11 H 0.4113 0.4197 1.1113
H12 H 0.5039 0.2445 1.0890
H13 H 0.5816 0.4001 1.0542
C16 C 0.6302(10) 0.1913(8) 0.7540(3)
C17 C 0.8368(11) 0.1518(9) 0.7221(3)
H14 H 0.8779 0.0464 0.7084
C18 C 0.9798(12) 0.2692(11) 0.7109(3)
H15 H 1.1153 0.2428 0.6890
C19 C 0.9229(14) 0.4246(11) 0.7320(3)
H16 H 1.0208 0.5027 0.7258
C20 C 0.7133(12) 0.4627(9) 0.7630(3)
H17 H 0.6713 0.5676 0.7771
C21 C 0.5695(11) 0.3462(8) 0.7728(3)
H18 H 0.4298 0.3740 0.7923

#END
