
#######################################################################
#
#                 Cambridge Crystallographic Data Centre
#                                CCDC 
#
#######################################################################
#
# If this CIF has been generated from an entry in the Cambridge 
# Structural Database, then it will include bibliographic, chemical, 
# crystal, experimental, refinement or atomic coordinate data resulting 
# from the CCDC's data processing and validation procedures.
#
#######################################################################

data_KACXAP
_symmetry_cell_setting           triclinic
_symmetry_space_group_name_H-M   'P -1'
_symmetry_Int_Tables_number      2
_space_group_name_Hall           '-P 1'
loop_
_symmetry_equiv_pos_site_id
_symmetry_equiv_pos_as_xyz
1 x,y,z
2 -x,-y,-z
_cell_length_a                   7.2052(2)
_cell_length_b                   8.2040(2)
_cell_length_c                   11.3088(3)
_cell_angle_alpha                91.461(1)
_cell_angle_beta                 92.761(1)
_cell_angle_gamma                90.699(1)
_cell_volume                     667.426
loop_
_atom_site_label
_atom_site_type_symbol
_atom_site_fract_x
_atom_site_fract_y
_atom_site_fract_z
S1 S 0.48926(8) 0.61981(6) 0.32522(5)
O1 O 0.0829(3) -0.1380(2) -0.23463(15)
N1 N 0.3041(3) 0.6588(3) 0.39746(19)
C1 C 0.1583(3) -0.1538(3) -0.1285(2)
O2 O 0.1819(2) -0.2875(2) -0.08159(15)
C2 C 0.2116(3) 0.0019(3) -0.0685(2)
H1 H 0.1902 0.1002 -0.1093
O3 O -0.0660(2) 0.5661(2) 0.18374(15)
C3 C 0.2887(3) 0.0103(3) 0.0406(2)
H2 H 0.3112 -0.0899 0.0788
O4 O 0.0332(2) 0.4189(2) 0.33728(15)
C4 C 0.3420(3) 0.1607(3) 0.10754(19)
O5 O 0.5147(3) 0.7508(2) 0.24606(15)
C5 C 0.3233(3) 0.3141(3) 0.0577(2)
H3 H 0.2759 0.3221 -0.0217
O6 O 0.6323(2) 0.5865(2) 0.41349(14)
C6 C 0.3729(3) 0.4542(3) 0.1227(2)
H4 H 0.3597 0.5583 0.0885
C7 C 0.4424(3) 0.4405(3) 0.23897(19)
C8 C 0.4628(3) 0.2893(3) 0.2904(2)
H5 H 0.5097 0.2816 0.3700
C9 C 0.4137(3) 0.1503(3) 0.2241(2)
H6 H 0.4288 0.0463 0.2581
C10 C 0.0270(3) 0.5472(3) 0.2838(2)
C11 C 0.1341(4) 0.7013(3) 0.3288(2)
H7 H 0.1694 0.7653 0.2590
C12 C 0.0132(4) 0.8057(3) 0.4047(3)
H8 H -0.0253 0.7432 0.4722
H9 H -0.0970 0.8387 0.3575
H10 H 0.0835 0.9029 0.4335
H11 H 0.046(6) -0.235(6) -0.271(4)
H12 H -0.115(9) 0.461(8) 0.149(6)
H13 H 0.287(3) 0.596(3) 0.447(2)
S1 S 0.51074(8) 0.38019(6) 0.67478(5)
O1 O 0.9171(3) 1.1380(2) 1.23463(15)
N1 N 0.6959(3) 0.3412(3) 0.60254(19)
C1 C 0.8417(3) 1.1538(3) 1.1285(2)
O2 O 0.8181(2) 1.2875(2) 1.08159(15)
C2 C 0.7884(3) 0.9981(3) 1.0685(2)
H1 H 0.8098 0.8998 1.1093
O3 O 1.0660(2) 0.4339(2) 0.81626(15)
C3 C 0.7113(3) 0.9897(3) 0.9594(2)
H2 H 0.6888 1.0899 0.9212
O4 O 0.9668(2) 0.5811(2) 0.66272(15)
C4 C 0.6580(3) 0.8393(3) 0.89246(19)
O5 O 0.4853(3) 0.2492(2) 0.75394(15)
C5 C 0.6767(3) 0.6859(3) 0.9423(2)
H3 H 0.7241 0.6779 1.0217
O6 O 0.3677(2) 0.4135(2) 0.58651(14)
C6 C 0.6271(3) 0.5458(3) 0.8773(2)
H4 H 0.6403 0.4417 0.9115
C7 C 0.5576(3) 0.5595(3) 0.76103(19)
C8 C 0.5372(3) 0.7107(3) 0.7096(2)
H5 H 0.4903 0.7184 0.6300
C9 C 0.5863(3) 0.8497(3) 0.7759(2)
H6 H 0.5712 0.9537 0.7419
C10 C 0.9730(3) 0.4528(3) 0.7162(2)
C11 C 0.8659(4) 0.2987(3) 0.6712(2)
H7 H 0.8306 0.2347 0.7410
C12 C 0.9868(4) 0.1943(3) 0.5953(3)
H8 H 1.0253 0.2568 0.5278
H9 H 1.0970 0.1613 0.6425
H10 H 0.9165 0.0971 0.5665
H11 H 0.954(6) 1.235(6) 1.271(4)
H12 H 1.115(9) 0.539(8) 0.851(6)
H13 H 0.713(3) 0.404(3) 0.553(2)

#END
