
#######################################################################
#
#                 Cambridge Crystallographic Data Centre
#                                CCDC 
#
#######################################################################
#
# If this CIF has been generated from an entry in the Cambridge 
# Structural Database, then it will include bibliographic, chemical, 
# crystal, experimental, refinement or atomic coordinate data resulting 
# from the CCDC's data processing and validation procedures.
#
#######################################################################

data_KADTIS
_symmetry_cell_setting           orthorhombic
_symmetry_space_group_name_H-M   'P 21 21 21'
_symmetry_Int_Tables_number      19
_space_group_name_Hall           'P 2ac 2ab'
loop_
_symmetry_equiv_pos_site_id
_symmetry_equiv_pos_as_xyz
1 x,y,z
2 1/2+x,1/2-y,-z
3 -x,1/2+y,1/2-z
4 1/2-x,-y,1/2+z
_cell_length_a                   10.732(3)
_cell_length_b                   14.838(2)
_cell_length_c                   7.077(1)
_cell_angle_alpha                90
_cell_angle_beta                 90
_cell_angle_gamma                90
_cell_volume                     1126.95
loop_
_atom_site_label
_atom_site_type_symbol
_atom_site_fract_x
_atom_site_fract_y
_atom_site_fract_z
S1 S 0.1256(2) 0.3509(1) 0.4313(2)
S2 S -0.0978(2) 0.4854(1) 0.5351(3)
C1 C 0.2359(6) 0.3154(4) 0.267(1)
C2 C 0.3248(7) 0.2491(5) 0.294(1)
C3 C 0.4045(7) 0.2294(5) 0.149(1)
C4 C 0.3975(8) 0.2740(5) -0.025(1)
C5 C 0.3100(7) 0.3408(5) -0.050(1)
C6 C 0.2282(6) 0.3628(4) 0.094(1)
C7 C 0.1326(6) 0.4319(4) 0.1027(8)
C8 C 0.1012(7) 0.4956(5) -0.0348(9)
C9 C 0.0084(7) 0.5567(5) 0.004(1)
C10 C -0.0556(6) 0.5570(4) 0.173(1)
C11 C -0.0243(6) 0.4947(4) 0.3147(9)
C12 C 0.0696(6) 0.4331(4) 0.2737(8)
C13 C -0.1902(7) 0.5839(5) 0.552(1)
H1 H 0.3305 0.2178 0.4104
H2 H 0.4661 0.1842 0.1662
H3 H 0.4526 0.2584 -0.1246
H4 H 0.3056 0.3719 -0.1672
H5 H 0.1432 0.4967 -0.1530
H6 H -0.0124 0.6004 -0.0886
H7 H -0.1206 0.5993 0.1940
H8 H -0.1382 0.6355 0.5441
H9 H -0.2489 0.5848 0.4516
H10 H -0.2330 0.5841 0.6695
S1 S 0.6256(2) 0.1491(1) 0.5687(2)
S2 S 0.4022(2) 0.0146(1) 0.4649(3)
C1 C 0.7359(6) 0.1846(4) 0.733(1)
C2 C 0.8248(7) 0.2509(5) 0.706(1)
C3 C 0.9045(7) 0.2706(5) 0.851(1)
C4 C 0.8975(8) 0.2260(5) 1.025(1)
C5 C 0.8100(7) 0.1592(5) 1.050(1)
C6 C 0.7282(6) 0.1372(4) 0.906(1)
C7 C 0.6326(6) 0.0681(4) 0.8973(8)
C8 C 0.6012(7) 0.0044(5) 1.0348(9)
C9 C 0.5084(7) -0.0567(5) 0.996(1)
C10 C 0.4444(6) -0.0570(4) 0.827(1)
C11 C 0.4757(6) 0.0053(4) 0.6853(9)
C12 C 0.5696(6) 0.0669(4) 0.7263(8)
C13 C 0.3098(7) -0.0839(5) 0.448(1)
H1 H 0.8305 0.2822 0.5896
H2 H 0.9661 0.3158 0.8338
H3 H 0.9526 0.2416 1.1246
H4 H 0.8056 0.1281 1.1672
H5 H 0.6432 0.0033 1.1530
H6 H 0.4876 -0.1004 1.0886
H7 H 0.3794 -0.0993 0.8060
H8 H 0.3618 -0.1355 0.4559
H9 H 0.2511 -0.0848 0.5484
H10 H 0.2670 -0.0841 0.3305
S1 S 0.8744(2) 0.8509(1) 0.0687(2)
S2 S 1.0978(2) 0.9854(1) -0.0351(3)
C1 C 0.7641(6) 0.8154(4) 0.233(1)
C2 C 0.6752(7) 0.7491(5) 0.206(1)
C3 C 0.5955(7) 0.7294(5) 0.351(1)
C4 C 0.6025(8) 0.7740(5) 0.525(1)
C5 C 0.6900(7) 0.8408(5) 0.550(1)
C6 C 0.7718(6) 0.8628(4) 0.406(1)
C7 C 0.8674(6) 0.9319(4) 0.3973(8)
C8 C 0.8988(7) 0.9956(5) 0.5348(9)
C9 C 0.9916(7) 1.0567(5) 0.496(1)
C10 C 1.0556(6) 1.0570(4) 0.327(1)
C11 C 1.0243(6) 0.9947(4) 0.1853(9)
C12 C 0.9304(6) 0.9331(4) 0.2263(8)
C13 C 1.1902(7) 1.0839(5) -0.052(1)
H1 H 0.6695 0.7178 0.0896
H2 H 0.5339 0.6842 0.3338
H3 H 0.5474 0.7584 0.6246
H4 H 0.6944 0.8719 0.6672
H5 H 0.8568 0.9967 0.6530
H6 H 1.0124 1.1004 0.5886
H7 H 1.1206 1.0993 0.3060
H8 H 1.1382 1.1355 -0.0441
H9 H 1.2489 1.0848 0.0484
H10 H 1.2330 1.0841 -0.1695
S1 S 0.3744(2) 0.6491(1) 0.9313(2)
S2 S 0.5978(2) 0.5146(1) 1.0351(3)
C1 C 0.2641(6) 0.6846(4) 0.767(1)
C2 C 0.1752(7) 0.7509(5) 0.794(1)
C3 C 0.0955(7) 0.7706(5) 0.649(1)
C4 C 0.1025(8) 0.7260(5) 0.475(1)
C5 C 0.1900(7) 0.6592(5) 0.450(1)
C6 C 0.2718(6) 0.6372(4) 0.594(1)
C7 C 0.3674(6) 0.5681(4) 0.6027(8)
C8 C 0.3988(7) 0.5044(5) 0.4652(9)
C9 C 0.4916(7) 0.4433(5) 0.504(1)
C10 C 0.5556(6) 0.4430(4) 0.673(1)
C11 C 0.5243(6) 0.5053(4) 0.8147(9)
C12 C 0.4304(6) 0.5669(4) 0.7737(8)
C13 C 0.6902(7) 0.4161(5) 1.052(1)
H1 H 0.1695 0.7822 0.9104
H2 H 0.0339 0.8158 0.6662
H3 H 0.0474 0.7416 0.3754
H4 H 0.1944 0.6281 0.3328
H5 H 0.3568 0.5033 0.3470
H6 H 0.5124 0.3996 0.4114
H7 H 0.6206 0.4007 0.6940
H8 H 0.6382 0.3645 1.0441
H9 H 0.7489 0.4152 0.9516
H10 H 0.7330 0.4159 1.1695

#END
