./KADWAQ_from_POSCAR.cif_generated_by_CrystalShift
_symmetry_cell_setting triclinic
_symmetry_space_group_name_H-M 'P 1'
loop_
_symmetry_equiv_pos_site_id
_symmetry_equiv_pos_as_xyz
1 x,y,z
_cell_length_a 6.682100
_cell_length_b 9.196000
_cell_length_c 15.886500
_cell_angle_alpha 96.246000
_cell_angle_beta 100.362000
_cell_angle_gamma 110.893000
_cell_volume 881.113374
loop_
_atom_site_label
_atom_site_type_symbol
_atom_site_fract_x
_atom_site_fract_y
_atom_site_fract_z
H1 H 0.113400 -0.135700 0.698900
H2 H 0.343400 -0.157200 0.709700
H3 H 0.529400 0.266800 0.934600
H4 H 0.380200 0.036500 0.827000
H5 H 0.492700 0.308000 0.642500
H6 H 0.650800 0.534900 0.750200
H7 H 0.622800 0.564800 0.969300
H8 H 1.024800 0.571900 0.925200
H9 H 0.927400 0.493600 1.001700
H10 H 1.048000 0.836000 0.859800
H11 H 0.879300 1.030500 0.954800
H12 H 0.572200 -0.213800 0.544200
H13 H 0.799800 1.051700 0.568200
H14 H 0.493000 -0.466800 0.579900
H15 H 0.931100 1.305500 0.532100
H16 H 0.355000 -0.694500 0.471100
H17 H 1.115300 1.530800 0.639700
H18 H 0.283600 -0.673900 0.322200
H19 H 1.159900 1.513200 0.788900
H20 H 0.976800 0.983100 0.414100
H21 H 1.187300 1.044900 0.494600
H22 H 1.209100 0.986800 0.399200
H23 H 0.349000 -0.190700 0.156000
H24 H 0.789900 0.573500 0.178600
H25 H 0.795400 0.002800 0.252100
H26 H 0.961000 0.802600 0.285100
H27 H 0.933900 0.530700 0.468800
H28 H 0.903100 0.343500 0.114000
H29 H 0.975900 0.259200 0.190000
H30 H 0.778600 0.302800 0.362400
H31 H 0.550900 0.276000 0.141400
H32 H 0.177300 -0.206500 0.615800
C33 C 0.812800 0.403800 0.346200
C34 C 0.671200 0.268600 0.186100
C35 C 0.906900 0.539600 0.409200
C36 C 0.850200 0.253100 0.144000
C37 C 0.962500 0.687400 0.388100
C38 C 0.921600 0.701300 0.301100
C39 C 0.714800 -0.028400 0.115900
C40 C 0.821900 0.564100 0.238000
C41 C 0.670100 -0.005900 0.204000
C42 C 1.111800 0.968900 0.439800
C43 C 0.440200 -0.122700 0.213500
C44 C 0.392200 0.030400 0.230000
C45 C 0.366200 -0.382700 0.263400
C46 C 0.234800 -0.130700 0.671200
C47 C 0.523600 0.275400 0.875300
C48 C 0.433100 0.138000 0.811400
C49 C 0.421700 0.152300 0.724500
C50 C 0.501400 0.299400 0.701900
C51 C 0.594000 0.434000 0.766100
C52 C 0.605600 0.424600 0.853800
C53 C 0.714900 0.571500 0.925600
C54 C 1.000100 1.222900 0.849000
C55 C 1.001400 1.272200 0.763700
C56 C 1.086500 1.421400 0.744500
C57 C 0.391100 -0.433000 0.349400
C58 C 1.058800 1.430300 0.656100
C59 C 0.342300 -0.582700 0.367200
C60 C 0.950300 1.295000 0.591600
C61 C 0.383800 -0.593600 0.455200
C62 C 0.869000 1.144500 0.612100
C63 C 0.467800 -0.456600 0.520400
C64 C 0.894100 1.137000 0.699500
C65 C 0.826300 0.998400 0.742300
C66 C 0.637900 0.812700 0.882200
C67 C 0.852500 0.961800 0.897400
C68 C 0.515100 -0.305900 0.499800
C69 C 0.971600 0.846000 0.907500
C70 C 0.476100 -0.295100 0.413100
C71 C 1.113100 0.866700 0.998000
C72 C 0.943000 0.582600 0.970100
C73 C 0.514800 -0.157200 0.371000
C74 C 0.767900 0.415900 0.258000
N75 N 0.753700 0.719000 0.893500
N76 N 0.440400 -0.217900 0.281100
N77 N 0.888500 1.056300 0.831000
N78 N 0.589200 0.120900 0.218700
O79 O 1.057200 0.811800 0.456200
O80 O 1.068800 0.731400 1.030900
O81 O 0.777000 0.105900 0.081600
O82 O 0.338200 0.027100 0.655100
O83 O 0.442900 0.786500 0.867900
O84 O 0.691000 -0.152700 0.072900
O85 O 0.731600 0.857200 0.709500
O86 O 0.232400 0.054100 0.243500
O87 O 1.072900 1.301000 0.922500
O88 O 0.298200 -0.462400 0.190300
O89 O 1.249800 0.990000 1.039700
O90 O 0.592700 -0.015100 0.402400

#END
