./KAFDIE01_from_POSCAR.cif_generated_by_CrystalShift
_symmetry_cell_setting triclinic
_symmetry_space_group_name_H-M 'P 1'
loop_
_symmetry_equiv_pos_site_id
_symmetry_equiv_pos_as_xyz
1 x,y,z
_cell_length_a 8.381000
_cell_length_b 9.314200
_cell_length_c 15.510000
_cell_angle_alpha 73.259000
_cell_angle_beta 79.626000
_cell_angle_gamma 82.543000
_cell_volume 1136.570037
loop_
_atom_site_label
_atom_site_type_symbol
_atom_site_fract_x
_atom_site_fract_y
_atom_site_fract_z
H1 H 0.896800 0.251600 0.410000
H2 H 0.808200 0.269100 0.326300
H3 H 0.627200 0.402600 0.517400
H4 H 0.717200 0.247600 0.561600
H5 H -0.018100 0.693500 0.218700
H6 H 0.528700 0.260700 0.562000
H7 H 0.212500 0.424300 0.336500
H8 H 0.154700 0.450400 0.427800
H9 H 0.068100 -0.002700 0.376500
H10 H 0.379300 0.175800 0.532200
H11 H 0.272400 0.504000 -0.168700
H12 H 0.178100 0.082100 0.487900
H13 H 0.127100 0.620200 -0.064600
H14 H 0.064300 0.123700 0.025400
H15 H 0.147400 0.154400 0.094600
H16 H 0.361500 0.343700 0.130900
H17 H -0.067000 -0.038300 0.278600
H18 H 0.507000 0.224200 0.028600
H19 H 0.441100 0.120300 0.240900
H20 H 0.057200 0.652100 0.087400
H21 H 0.645000 0.212000 0.284300
H22 H 0.103200 0.748400 0.590000
H23 H 0.407900 0.427600 -0.250500
H24 H 0.445400 0.263500 -0.260800
H25 H 0.587900 0.366200 -0.276700
H26 H 0.190700 0.592700 0.635300
H27 H 0.609600 0.127700 -0.053500
H28 H 0.718400 0.171600 -0.149100
H29 H 0.575500 0.069300 -0.133200
H30 H 0.191800 0.730900 0.673700
H31 H 0.372800 0.597400 0.482600
H32 H 0.282800 0.752400 0.438400
H33 H 0.471300 0.739300 0.438000
H34 H 1.018100 0.306500 0.781300
H35 H 0.931900 1.002700 0.623500
H36 H 0.787500 0.575700 0.663500
H37 H 0.845300 0.549600 0.572200
H38 H 0.620700 0.824200 0.467800
H39 H 0.821900 0.917900 0.512100
H40 H 0.727600 0.496000 1.168700
H41 H 0.935700 0.876300 0.974600
H42 H 0.872900 0.379800 1.064600
H43 H 0.852600 0.845600 0.905400
H44 H 1.067000 1.038300 0.721400
H45 H 0.638500 0.656300 0.869100
H46 H 0.558900 0.879700 0.759100
H47 H 0.493000 0.775800 0.971400
H48 H 0.355000 0.788000 0.715700
H49 H 0.942800 0.347900 0.912600
H50 H 0.424500 0.930700 1.133200
H51 H 0.281600 0.828400 1.149100
H52 H 0.592100 0.572400 1.250500
H53 H 0.554600 0.736500 1.260800
H54 H 0.412100 0.633800 1.276700
H55 H 0.390400 0.872300 1.053500
H56 H 0.809300 0.407300 0.364700
C57 C 0.516000 0.659800 1.241500
C58 C 0.952100 0.413300 0.665980
C59 C 0.805100 0.300200 0.380500
C60 C 0.464000 0.793900 0.586240
C61 C 0.630400 0.295600 0.527900
C62 C 0.449300 0.812800 0.674610
C63 C 0.868800 0.428200 0.891160
C64 C -0.021500 0.022800 0.147140
C65 C 0.572300 0.867200 0.700830
C66 C 0.568400 0.695600 0.990920
C67 C 0.409900 0.351100 -0.083600
C68 C 0.656700 0.624300 0.929310
C69 C 0.717100 0.904300 0.641770
C70 C 0.147900 0.045200 0.331420
C71 C 0.773400 0.504900 0.954840
C72 C 0.796300 0.459300 1.045850
C73 C 0.729000 0.889600 0.553710
C74 C 0.708500 0.528800 1.108640
C75 C 0.607400 0.834600 0.526630
C76 C 0.590100 0.648900 1.083600
C77 C 0.852100 0.954800 0.668580
C78 C 0.291500 0.471200 -0.108640
C79 C 1.021500 0.977200 0.852860
C80 C 0.369600 0.704400 0.472100
C81 C 0.392600 0.165400 0.473370
C82 C 0.203700 0.540700 -0.045850
C83 C 0.271000 0.110400 0.446290
C84 C 0.194900 0.699800 0.619500
C85 C 0.226600 0.495100 0.045160
C86 C 0.610300 0.152200 -0.118100
C87 C 0.484000 0.340200 -0.241500
C88 C 0.343300 0.375700 0.070690
C89 C 0.536000 0.206100 0.413760
C90 C 0.282900 0.095700 0.358230
C91 C 0.550700 0.187200 0.325390
C92 C 0.047900 0.586700 0.334020
C93 C 0.431600 0.304400 0.009080
C94 C 0.427700 0.132800 0.299170
C95 C 0.131200 0.571800 0.108840
C96 C 0.389700 0.847800 1.118100
N97 N 0.134500 0.064000 0.248110
N98 N 0.657400 0.259300 0.441030
N99 N 0.074600 0.110500 0.081370
N100 N 0.500500 0.284600 -0.145900
N101 N 0.144800 0.533300 0.193650
N102 N 0.499500 0.715400 1.145900
N103 N 0.855200 0.466700 0.806350
N104 N 0.954800 0.380600 0.755470
N105 N 0.849600 0.526100 0.629640
N106 N 0.925400 0.889500 0.918630
N107 N 0.999100 0.993200 0.766590
N108 N 0.865500 0.936000 0.751890
N109 N 0.342600 0.740700 0.558970
N110 N 0.150400 0.473900 0.370360
N111 N 0.045200 0.619400 0.244530
N112 N 0.000900 0.006800 0.233410
S113 S -0.170810 -0.067750 0.129140
S114 S 1.170810 1.067750 0.870860
S115 S 1.080150 0.311460 0.602750
S116 S -0.080150 0.688540 0.397250

#END
