./KAFDIE02_from_POSCAR.cif_generated_by_CrystalShift
_symmetry_cell_setting triclinic
_symmetry_space_group_name_H-M 'P 1'
loop_
_symmetry_equiv_pos_site_id
_symmetry_equiv_pos_as_xyz
1 x,y,z
_cell_length_a 5.698400
_cell_length_b 8.949300
_cell_length_c 22.813000
_cell_angle_alpha 90.000000
_cell_angle_beta 93.860000
_cell_angle_gamma 90.000000
_cell_volume 1160.748392
loop_
_atom_site_label
_atom_site_type_symbol
_atom_site_fract_x
_atom_site_fract_y
_atom_site_fract_z
H1 H 0.598400 0.209200 0.941900
H2 H 1.044200 0.239000 0.161100
H3 H 0.312300 0.507400 0.848600
H4 H 0.877100 0.478300 0.723800
H5 H 0.654800 0.034900 0.088700
H6 H 0.782000 0.009300 0.034600
H7 H 0.608200 0.522600 0.791600
H8 H 0.445100 0.333600 0.969000
H9 H 0.898500 0.195600 0.893200
H10 H 1.167600 0.155900 0.825300
H11 H 0.853900 0.282900 0.237400
H12 H 1.353900 0.217100 0.737400
H13 H 0.483400 0.606700 0.888700
H14 H 0.667600 0.344100 0.325300
H15 H 1.282000 0.490700 0.534600
H16 H 0.398500 0.304400 0.393200
H17 H 1.154800 0.465100 0.588700
H18 H 1.544200 0.261000 0.661100
H19 H 0.108200 -0.022600 0.291600
H20 H 0.901600 0.709200 0.558100
H21 H 0.377100 0.021700 0.223800
H22 H 1.054900 0.833600 0.531000
H23 H -0.187700 -0.007400 0.348600
H24 H -0.208200 -0.009200 0.416800
H25 H -0.016600 -0.106700 0.388700
H26 H 0.780700 0.850500 0.528900
H27 H 0.219300 0.149500 0.471100
H28 H -0.054900 0.166400 0.469000
H29 H 0.098400 0.290800 0.441900
H30 H 1.016600 1.106700 0.611300
H31 H -0.544200 0.739000 0.338900
H32 H 1.208200 1.009200 0.583200
H33 H 1.187700 1.007400 0.651400
H34 H -0.154800 0.534900 0.411300
H35 H -0.282000 0.509300 0.465400
H36 H 0.622900 0.978300 0.776200
H37 H 0.719300 0.350500 0.971100
H38 H 0.891800 1.022600 0.708400
H39 H 0.601500 0.695600 0.606800
H40 H -0.353900 0.782900 0.262600
H41 H 0.332400 0.655900 0.674700
H42 H 0.146100 0.717100 0.762600
H43 H -0.167600 0.844100 0.174700
H44 H 0.218000 0.990700 0.965400
H45 H 0.101500 0.804400 0.106800
H46 H 0.345200 0.965100 0.911300
H47 H -0.044200 0.761000 0.838900
H48 H 0.391800 0.477400 0.208400
H49 H 0.401600 0.790800 0.058100
H50 H 0.122900 0.521700 0.276200
H51 H 0.554900 0.666400 0.031000
H52 H 0.687700 0.492600 0.151400
H53 H 0.708200 0.490800 0.083200
H54 H 0.516600 0.393300 0.111300
H55 H 0.280700 0.649500 0.028900
H56 H 0.291800 0.509200 0.916800
C57 C 0.601100 0.486100 0.113900
C58 C 0.116900 0.578200 0.241910
C59 C 0.398900 0.513900 0.886100
C60 C 0.279000 0.551400 0.201140
C61 C 0.883100 0.421800 0.758090
C62 C 0.721000 0.448600 0.798860
C63 C 0.277200 0.634600 0.148570
C64 C 0.106300 0.745700 0.140550
C65 C 0.722800 0.365400 0.851430
C66 C 0.583200 0.314700 0.948320
C67 C 0.043000 0.875100 0.908050
C68 C 0.262900 0.786400 0.773220
C69 C -0.054900 0.769900 0.181620
C70 C 0.444600 0.812800 0.733230
C71 C 0.445100 0.730100 0.681620
C72 C -0.055400 0.687200 0.233230
C73 C 0.606300 0.754300 0.640550
C74 C -0.237100 0.713600 0.273220
C75 C 0.777200 0.865400 0.648570
C76 C 0.779000 0.948600 0.701140
C77 C -0.457000 0.624900 0.408050
C78 C 0.616900 0.921800 0.741910
C79 C 0.957000 0.124900 0.091950
C80 C 1.101100 1.013900 0.613900
C81 C 0.893700 0.254300 0.859450
C82 C 0.737100 0.213600 0.226780
C83 C 1.054900 0.230100 0.818380
C84 C 0.916800 0.814700 0.551680
C85 C 0.083200 0.185300 0.448320
C86 C -0.101100 -0.013900 0.386100
C87 C 0.383100 0.078200 0.258090
C88 C 1.055400 0.312800 0.766770
C89 C 0.221000 0.051400 0.298860
C90 C 0.555400 0.187200 0.266770
C91 C 1.237100 0.286400 0.726780
C92 C 0.222800 0.134600 0.351430
C93 C 0.393700 0.245700 0.359450
C94 C 1.457000 0.375100 0.591950
C95 C 0.554900 0.269900 0.318380
C96 C 0.416800 0.685300 0.051680
N97 N 1.277200 0.452600 0.569100
N98 N 1.245400 0.353300 0.677560
N99 N 1.436400 0.319200 0.645920
N100 N -0.436400 0.680800 0.354080
N101 N -0.245400 0.646700 0.322440
N102 N -0.277200 0.547400 0.430900
N103 N 0.436700 0.609000 0.107590
N104 N 0.936700 0.891000 0.607590
N105 N 0.222800 0.952600 0.930900
N106 N 0.063300 0.109000 0.392410
N107 N 0.254600 0.853300 0.822440
N108 N 0.777200 0.047400 0.069100
N109 N 0.063600 0.819200 0.854080
N110 N 0.745400 0.146700 0.177560
N111 N 0.563300 0.391000 0.892410
N112 N 0.936400 0.180800 0.145920
S113 S -0.702400 0.655510 0.442650
S114 S 1.202400 0.155510 0.057350
S115 S -0.202400 0.844490 0.942650
S116 S 1.702400 0.344490 0.557350

#END
