./KAFHIK_from_POSCAR.cif_generated_by_CrystalShift
_symmetry_cell_setting triclinic
_symmetry_space_group_name_H-M 'P 1'
loop_
_symmetry_equiv_pos_site_id
_symmetry_equiv_pos_as_xyz
1 x,y,z
_cell_length_a 10.562000
_cell_length_b 10.695800
_cell_length_c 11.061000
_cell_angle_alpha 80.503000
_cell_angle_beta 84.722000
_cell_angle_gamma 73.553000
_cell_volume 1180.641675
loop_
_atom_site_label
_atom_site_type_symbol
_atom_site_fract_x
_atom_site_fract_y
_atom_site_fract_z
H1 H 0.189900 0.593200 0.388700
H2 H 0.529900 0.545200 0.305100
H3 H 0.640700 0.407700 0.163500
H4 H 0.183400 0.495300 0.220400
H5 H 0.299400 -0.103300 0.299700
H6 H 0.443500 -0.106600 0.336400
H7 H 0.378900 -0.009500 0.218500
H8 H 0.372100 0.290400 0.494700
H9 H 0.464200 0.119800 0.380600
H10 H 0.117500 0.024500 0.411000
H11 H 0.023900 0.194900 0.525200
H12 H 0.253700 0.839700 0.586400
H13 H 0.060400 0.516800 0.795400
H14 H 0.022300 0.717800 0.867000
H15 H 0.751800 -0.151300 0.169100
H16 H -0.090700 0.950800 0.822800
H17 H -0.138800 1.156900 0.888700
H18 H 1.138800 -0.156900 0.111300
H19 H 0.248200 1.151300 0.830900
H20 H 1.090700 0.049200 0.177200
H21 H 0.810100 0.406800 0.611300
H22 H 0.470100 0.454800 0.694900
H23 H 0.359300 0.592300 0.836500
H24 H 0.977700 0.282200 0.133000
H25 H 0.816600 0.504700 0.779600
H26 H 0.939600 0.483200 0.204600
H27 H 0.700600 1.103300 0.700300
H28 H 0.556500 1.106600 0.663600
H29 H 0.621100 1.009500 0.781500
H30 H 0.746300 0.160300 0.413600
H31 H 0.627900 0.709600 0.505300
H32 H 0.535800 0.880200 0.619400
H33 H 0.882500 0.975500 0.589000
H34 H 0.976100 0.805100 0.474800
C35 C 0.830780 0.920830 0.573270
C36 C 0.886690 0.819470 0.504930
C37 C 0.700000 0.944040 0.619400
C38 C 0.625880 0.864340 0.591160
C39 C 0.812320 0.738600 0.480290
C40 C 0.680320 0.762750 0.522970
C41 C 0.877220 0.626060 0.414600
C42 C 0.639250 1.050130 0.698060
C43 C 0.788050 0.224480 0.372700
C44 C 0.769180 0.341590 0.420050
C45 C 0.826840 0.437200 0.356120
C46 C 0.677200 0.365540 0.531290
C47 C 0.653320 0.474360 0.716800
C48 C 0.722990 0.525060 0.789670
C49 C 0.902620 0.416600 0.248330
C50 C 0.658170 0.604280 0.876110
C51 C 0.520600 0.632780 0.888630
C52 C 0.452330 0.575870 0.823040
C53 C 0.923600 0.297680 0.205470
C54 C 0.517430 0.495350 0.738150
C55 C 0.867100 0.199550 0.266280
C56 C 0.742650 0.648330 0.954590
C57 C 0.894350 0.071900 0.219210
C58 C 0.482570 0.504650 0.261850
C59 C 0.547670 0.424130 0.176960
C60 C 0.479400 0.367220 0.111370
C61 C 0.341830 0.395720 0.123890
C62 C 0.277010 0.474940 0.210330
C63 C 0.346680 0.525640 0.283200
C64 C 0.322800 0.634460 0.468710
C65 C 0.360750 -0.050130 0.301940
C66 C 0.319680 0.237250 0.477030
C67 C 0.374120 0.135660 0.408840
C68 C 0.300000 0.055960 0.380600
C69 C 0.169220 0.079170 0.426730
C70 C 0.202720 0.991480 0.786330
C71 C 0.179230 1.111310 0.827510
C72 C 1.021980 0.007860 0.177740
C73 C 0.050820 1.169890 0.863330
C74 C -0.051350 1.113820 0.862550
C75 C 1.051350 -0.113820 0.137450
C76 C -0.021980 0.992140 0.822260
C77 C 0.949180 -0.169890 0.136670
C78 C 0.105650 0.928100 0.780790
C79 C 0.132900 0.800450 0.733720
C80 C 0.076400 0.702320 0.794530
C81 C 0.820770 -0.111310 0.172490
C82 C 0.097380 0.583400 0.751670
C83 C 0.797280 0.008520 0.213670
C84 C 0.173160 0.562800 0.643880
C85 C 0.230820 0.658410 0.579950
C86 C 0.211950 0.775520 0.627300
C87 C 0.113310 0.180530 0.495070
C88 C 0.122780 0.373940 0.585400
C89 C 0.187680 0.261400 0.519710
C90 C 0.257350 0.351670 0.045410
N91 N 0.726530 0.407680 0.623100
N92 N 0.559300 0.272440 0.032580
N93 N 0.440700 0.727560 0.967420
N94 N 0.273470 0.592320 0.376900
O95 O 0.516380 0.182440 0.014550
O96 O 0.332170 0.713110 1.007250
O97 O 0.667830 0.286890 -0.007250
O98 O 0.567800 0.347120 0.536730
O99 O 0.432200 0.652880 0.463270
O100 O 0.992180 0.592740 0.379990
O101 O 0.788610 0.559200 0.399010
O102 O 0.483620 0.817560 0.985450
O103 O 0.007820 0.407260 0.620010
O104 O 0.211390 0.440800 0.600990
F105 F 0.246490 0.229420 0.085480
F106 F 0.698860 0.644390 1.072530
F107 F 0.301140 0.355610 -0.072530
F108 F 0.133340 0.431740 0.045020
F109 F 0.023520 1.290200 0.901430
F110 F 0.866660 0.568260 0.954980
F111 F 0.329020 0.932320 0.751030
F112 F 0.976480 -0.290200 0.098570
F113 F 0.753510 0.770580 0.914520
F114 F 0.670980 0.067680 0.248970

#END
