
#######################################################################
#
#                 Cambridge Crystallographic Data Centre
#                                CCDC 
#
#######################################################################
#
# If this CIF has been generated from an entry in the Cambridge 
# Structural Database, then it will include bibliographic, chemical, 
# crystal, experimental, refinement or atomic coordinate data resulting 
# from the CCDC's data processing and validation procedures.
#
#######################################################################

data_KAGGEG
_symmetry_cell_setting           monoclinic
_symmetry_space_group_name_H-M   'P 21/c'
_symmetry_Int_Tables_number      14
_space_group_name_Hall           '-P 2ybc'
loop_
_symmetry_equiv_pos_site_id
_symmetry_equiv_pos_as_xyz
1 x,y,z
2 -x,1/2+y,1/2-z
3 -x,-y,-z
4 x,1/2-y,1/2+z
_cell_length_a                   11.6145(5)
_cell_length_b                   5.4260(2)
_cell_length_c                   11.3520(5)
_cell_angle_alpha                90
_cell_angle_beta                 90.756(2)
_cell_angle_gamma                90
_cell_volume                     715.344
loop_
_atom_site_label
_atom_site_type_symbol
_atom_site_fract_x
_atom_site_fract_y
_atom_site_fract_z
C1 C 0.31017(10) 0.3375(2) -0.24900(10)
H1 H 0.3441 0.4422 -0.3059
C2 C 0.19392(10) 0.3685(2) -0.21992(9)
H2 H 0.1503 0.4961 -0.2565
C3 C 0.14180(9) 0.2155(2) -0.13851(9)
C4 C 0.02343(9) 0.2490(2) -0.10684(9)
H3 H -0.0186 0.3802 -0.1424
C5 C 0.03139(9) -0.1013(2) 0.02814(9)
C6 C 0.37470(9) 0.1573(2) -0.19583(10)
H4 H 0.4537 0.1402 -0.2151
C7 C 0.32519(9) -0.0051(2) -0.11204(9)
C8 C 0.20672(9) 0.0230(2) -0.08356(9)
C9 C 0.15410(9) -0.1376(2) -0.00081(9)
C10 C 0.22164(10) -0.3206(2) 0.05087(10)
H5 H 0.1880 -0.4302 0.1059
C11 C 0.33830(10) -0.3466(2) 0.02340(10)
H6 H 0.3825 -0.4729 0.0602
C12 C 0.38947(9) -0.1921(2) -0.05602(10)
H7 H 0.4688 -0.2114 -0.0732
C1B C -0.31017(10) -0.3375(2) 0.24900(10)
H1B H -0.3441 -0.4422 0.3059
C2B C -0.19392(10) -0.3685(2) 0.21992(9)
H2B H -0.1503 -0.4961 0.2565
C3B C -0.14180(9) -0.2155(2) 0.13851(9)
C4B C -0.02343(9) -0.2490(2) 0.10684(9)
H3B H 0.0186 -0.3802 0.1424
C5B C -0.03139(9) 0.1013(2) -0.02814(9)
C6B C -0.37470(9) -0.1573(2) 0.19583(10)
H4B H -0.4537 -0.1402 0.2151
C7B C -0.32519(9) 0.0051(2) 0.11204(9)
C8B C -0.20672(9) -0.0230(2) 0.08356(9)
C9B C -0.15410(9) 0.1376(2) 0.00081(9)
C10B C -0.22164(10) 0.3206(2) -0.05087(10)
H5B H -0.1880 0.4302 -0.1059
C11B C -0.33830(10) 0.3466(2) -0.02340(10)
H6B H -0.3825 0.4729 -0.0602
C12B C -0.38947(9) 0.1921(2) 0.05602(10)
H7B H -0.4688 0.2114 0.0732
C1 C 0.31017(10) 0.3375(2) 0.75100(10)
H1 H 0.3441 0.4422 0.6941
C2 C 0.19392(10) 0.3685(2) 0.78008(9)
H2 H 0.1503 0.4961 0.7435
C3 C 0.14180(9) 0.2155(2) 0.86149(9)
C4 C 0.02343(9) 0.2490(2) 0.89316(9)
H3 H -0.0186 0.3802 0.8576
C5 C 0.03139(9) -0.1013(2) 1.02814(9)
C6 C 0.37470(9) 0.1573(2) 0.80417(10)
H4 H 0.4537 0.1402 0.7849
C7 C 0.32519(9) -0.0051(2) 0.88796(9)
C8 C 0.20672(9) 0.0230(2) 0.91644(9)
C9 C 0.15410(9) -0.1376(2) 0.99919(9)
C10 C 0.22164(10) -0.3206(2) 1.05087(10)
H5 H 0.1880 -0.4302 1.1059
C11 C 0.33830(10) -0.3466(2) 1.02340(10)
H6 H 0.3825 -0.4729 1.0602
C12 C 0.38947(9) -0.1921(2) 0.94398(10)
H7 H 0.4688 -0.2114 0.9268
C1B C -0.31017(10) -0.3375(2) 1.24900(10)
H1B H -0.3441 -0.4422 1.3059
C2B C -0.19392(10) -0.3685(2) 1.21992(9)
H2B H -0.1503 -0.4961 1.2565
C3B C -0.14180(9) -0.2155(2) 1.13851(9)
C4B C -0.02343(9) -0.2490(2) 1.10684(9)
H3B H 0.0186 -0.3802 1.1424
C5B C -0.03139(9) 0.1013(2) 0.97186(9)
C6B C -0.37470(9) -0.1573(2) 1.19583(10)
H4B H -0.4537 -0.1402 1.2151
C7B C -0.32519(9) 0.0051(2) 1.11204(9)
C8B C -0.20672(9) -0.0230(2) 1.08356(9)
C9B C -0.15410(9) 0.1376(2) 1.00081(9)
C10B C -0.22164(10) 0.3206(2) 0.94913(10)
H5B H -0.1880 0.4302 0.8941
C11B C -0.33830(10) 0.3466(2) 0.97660(10)
H6B H -0.3825 0.4729 0.9398
C12B C -0.38947(9) 0.1921(2) 1.05602(10)
H7B H -0.4688 0.2114 1.0732
C1 C 0.31017(10) 1.3375(2) -0.24900(10)
H1 H 0.3441 1.4422 -0.3059
C2 C 0.19392(10) 1.3685(2) -0.21992(9)
H2 H 0.1503 1.4961 -0.2565
C3 C 0.14180(9) 1.2155(2) -0.13851(9)
C4 C 0.02343(9) 1.2490(2) -0.10684(9)
H3 H -0.0186 1.3802 -0.1424
C5 C 0.03139(9) 0.8987(2) 0.02814(9)
C6 C 0.37470(9) 1.1573(2) -0.19583(10)
H4 H 0.4537 1.1402 -0.2151
C7 C 0.32519(9) 0.9949(2) -0.11204(9)
C8 C 0.20672(9) 1.0230(2) -0.08356(9)
C9 C 0.15410(9) 0.8624(2) -0.00081(9)
C10 C 0.22164(10) 0.6794(2) 0.05087(10)
H5 H 0.1880 0.5698 0.1059
C11 C 0.33830(10) 0.6534(2) 0.02340(10)
H6 H 0.3825 0.5271 0.0602
C12 C 0.38947(9) 0.8079(2) -0.05602(10)
H7 H 0.4688 0.7886 -0.0732
C1B C -0.31017(10) 0.6625(2) 0.24900(10)
H1B H -0.3441 0.5578 0.3059
C2B C -0.19392(10) 0.6315(2) 0.21992(9)
H2B H -0.1503 0.5039 0.2565
C3B C -0.14180(9) 0.7845(2) 0.13851(9)
C4B C -0.02343(9) 0.7510(2) 0.10684(9)
H3B H 0.0186 0.6198 0.1424
C5B C -0.03139(9) 1.1013(2) -0.02814(9)
C6B C -0.37470(9) 0.8427(2) 0.19583(10)
H4B H -0.4537 0.8598 0.2151
C7B C -0.32519(9) 1.0051(2) 0.11204(9)
C8B C -0.20672(9) 0.9770(2) 0.08356(9)
C9B C -0.15410(9) 1.1376(2) 0.00081(9)
C10B C -0.22164(10) 1.3206(2) -0.05087(10)
H5B H -0.1880 1.4302 -0.1059
C11B C -0.33830(10) 1.3466(2) -0.02340(10)
H6B H -0.3825 1.4729 -0.0602
C12B C -0.38947(9) 1.1921(2) 0.05602(10)
H7B H -0.4688 1.2114 0.0732
C1 C 0.31017(10) 1.3375(2) 0.75100(10)
H1 H 0.3441 1.4422 0.6941
C2 C 0.19392(10) 1.3685(2) 0.78008(9)
H2 H 0.1503 1.4961 0.7435
C3 C 0.14180(9) 1.2155(2) 0.86149(9)
C4 C 0.02343(9) 1.2490(2) 0.89316(9)
H3 H -0.0186 1.3802 0.8576
C5 C 0.03139(9) 0.8987(2) 1.02814(9)
C6 C 0.37470(9) 1.1573(2) 0.80417(10)
H4 H 0.4537 1.1402 0.7849
C7 C 0.32519(9) 0.9949(2) 0.88796(9)
C8 C 0.20672(9) 1.0230(2) 0.91644(9)
C9 C 0.15410(9) 0.8624(2) 0.99919(9)
C10 C 0.22164(10) 0.6794(2) 1.05087(10)
H5 H 0.1880 0.5698 1.1059
C11 C 0.33830(10) 0.6534(2) 1.02340(10)
H6 H 0.3825 0.5271 1.0602
C12 C 0.38947(9) 0.8079(2) 0.94398(10)
H7 H 0.4688 0.7886 0.9268
C1B C -0.31017(10) 0.6625(2) 1.24900(10)
H1B H -0.3441 0.5578 1.3059
C2B C -0.19392(10) 0.6315(2) 1.21992(9)
H2B H -0.1503 0.5039 1.2565
C3B C -0.14180(9) 0.7845(2) 1.13851(9)
C4B C -0.02343(9) 0.7510(2) 1.10684(9)
H3B H 0.0186 0.6198 1.1424
C5B C -0.03139(9) 1.1013(2) 0.97186(9)
C6B C -0.37470(9) 0.8427(2) 1.19583(10)
H4B H -0.4537 0.8598 1.2151
C7B C -0.32519(9) 1.0051(2) 1.11204(9)
C8B C -0.20672(9) 0.9770(2) 1.08356(9)
C9B C -0.15410(9) 1.1376(2) 1.00081(9)
C10B C -0.22164(10) 1.3206(2) 0.94913(10)
H5B H -0.1880 1.4302 0.8941
C11B C -0.33830(10) 1.3466(2) 0.97660(10)
H6B H -0.3825 1.4729 0.9398
C12B C -0.38947(9) 1.1921(2) 1.05602(10)
H7B H -0.4688 1.2114 1.0732
C1 C 1.31017(10) 0.3375(2) -0.24900(10)
H1 H 1.3441 0.4422 -0.3059
C2 C 1.19392(10) 0.3685(2) -0.21992(9)
H2 H 1.1503 0.4961 -0.2565
C3 C 1.14180(9) 0.2155(2) -0.13851(9)
C4 C 1.02343(9) 0.2490(2) -0.10684(9)
H3 H 0.9814 0.3802 -0.1424
C5 C 1.03139(9) -0.1013(2) 0.02814(9)
C6 C 1.37470(9) 0.1573(2) -0.19583(10)
H4 H 1.4537 0.1402 -0.2151
C7 C 1.32519(9) -0.0051(2) -0.11204(9)
C8 C 1.20672(9) 0.0230(2) -0.08356(9)
C9 C 1.15410(9) -0.1376(2) -0.00081(9)
C10 C 1.22164(10) -0.3206(2) 0.05087(10)
H5 H 1.1880 -0.4302 0.1059
C11 C 1.33830(10) -0.3466(2) 0.02340(10)
H6 H 1.3825 -0.4729 0.0602
C12 C 1.38947(9) -0.1921(2) -0.05602(10)
H7 H 1.4688 -0.2114 -0.0732
C1B C 0.68983(10) -0.3375(2) 0.24900(10)
H1B H 0.6559 -0.4422 0.3059
C2B C 0.80608(10) -0.3685(2) 0.21992(9)
H2B H 0.8497 -0.4961 0.2565
C3B C 0.85820(9) -0.2155(2) 0.13851(9)
C4B C 0.97657(9) -0.2490(2) 0.10684(9)
H3B H 1.0186 -0.3802 0.1424
C5B C 0.96861(9) 0.1013(2) -0.02814(9)
C6B C 0.62530(9) -0.1573(2) 0.19583(10)
H4B H 0.5463 -0.1402 0.2151
C7B C 0.67481(9) 0.0051(2) 0.11204(9)
C8B C 0.79328(9) -0.0230(2) 0.08356(9)
C9B C 0.84590(9) 0.1376(2) 0.00081(9)
C10B C 0.77836(10) 0.3206(2) -0.05087(10)
H5B H 0.8120 0.4302 -0.1059
C11B C 0.66170(10) 0.3466(2) -0.02340(10)
H6B H 0.6175 0.4729 -0.0602
C12B C 0.61053(9) 0.1921(2) 0.05602(10)
H7B H 0.5312 0.2114 0.0732
C1 C 1.31017(10) 0.3375(2) 0.75100(10)
H1 H 1.3441 0.4422 0.6941
C2 C 1.19392(10) 0.3685(2) 0.78008(9)
H2 H 1.1503 0.4961 0.7435
C3 C 1.14180(9) 0.2155(2) 0.86149(9)
C4 C 1.02343(9) 0.2490(2) 0.89316(9)
H3 H 0.9814 0.3802 0.8576
C5 C 1.03139(9) -0.1013(2) 1.02814(9)
C6 C 1.37470(9) 0.1573(2) 0.80417(10)
H4 H 1.4537 0.1402 0.7849
C7 C 1.32519(9) -0.0051(2) 0.88796(9)
C8 C 1.20672(9) 0.0230(2) 0.91644(9)
C9 C 1.15410(9) -0.1376(2) 0.99919(9)
C10 C 1.22164(10) -0.3206(2) 1.05087(10)
H5 H 1.1880 -0.4302 1.1059
C11 C 1.33830(10) -0.3466(2) 1.02340(10)
H6 H 1.3825 -0.4729 1.0602
C12 C 1.38947(9) -0.1921(2) 0.94398(10)
H7 H 1.4688 -0.2114 0.9268
C1B C 0.68983(10) -0.3375(2) 1.24900(10)
H1B H 0.6559 -0.4422 1.3059
C2B C 0.80608(10) -0.3685(2) 1.21992(9)
H2B H 0.8497 -0.4961 1.2565
C3B C 0.85820(9) -0.2155(2) 1.13851(9)
C4B C 0.97657(9) -0.2490(2) 1.10684(9)
H3B H 1.0186 -0.3802 1.1424
C5B C 0.96861(9) 0.1013(2) 0.97186(9)
C6B C 0.62530(9) -0.1573(2) 1.19583(10)
H4B H 0.5463 -0.1402 1.2151
C7B C 0.67481(9) 0.0051(2) 1.11204(9)
C8B C 0.79328(9) -0.0230(2) 1.08356(9)
C9B C 0.84590(9) 0.1376(2) 1.00081(9)
C10B C 0.77836(10) 0.3206(2) 0.94913(10)
H5B H 0.8120 0.4302 0.8941
C11B C 0.66170(10) 0.3466(2) 0.97660(10)
H6B H 0.6175 0.4729 0.9398
C12B C 0.61053(9) 0.1921(2) 1.05602(10)
H7B H 0.5312 0.2114 1.0732
C1 C 1.31017(10) 1.3375(2) -0.24900(10)
H1 H 1.3441 1.4422 -0.3059
C2 C 1.19392(10) 1.3685(2) -0.21992(9)
H2 H 1.1503 1.4961 -0.2565
C3 C 1.14180(9) 1.2155(2) -0.13851(9)
C4 C 1.02343(9) 1.2490(2) -0.10684(9)
H3 H 0.9814 1.3802 -0.1424
C5 C 1.03139(9) 0.8987(2) 0.02814(9)
C6 C 1.37470(9) 1.1573(2) -0.19583(10)
H4 H 1.4537 1.1402 -0.2151
C7 C 1.32519(9) 0.9949(2) -0.11204(9)
C8 C 1.20672(9) 1.0230(2) -0.08356(9)
C9 C 1.15410(9) 0.8624(2) -0.00081(9)
C10 C 1.22164(10) 0.6794(2) 0.05087(10)
H5 H 1.1880 0.5698 0.1059
C11 C 1.33830(10) 0.6534(2) 0.02340(10)
H6 H 1.3825 0.5271 0.0602
C12 C 1.38947(9) 0.8079(2) -0.05602(10)
H7 H 1.4688 0.7886 -0.0732
C1B C 0.68983(10) 0.6625(2) 0.24900(10)
H1B H 0.6559 0.5578 0.3059
C2B C 0.80608(10) 0.6315(2) 0.21992(9)
H2B H 0.8497 0.5039 0.2565
C3B C 0.85820(9) 0.7845(2) 0.13851(9)
C4B C 0.97657(9) 0.7510(2) 0.10684(9)
H3B H 1.0186 0.6198 0.1424
C5B C 0.96861(9) 1.1013(2) -0.02814(9)
C6B C 0.62530(9) 0.8427(2) 0.19583(10)
H4B H 0.5463 0.8598 0.2151
C7B C 0.67481(9) 1.0051(2) 0.11204(9)
C8B C 0.79328(9) 0.9770(2) 0.08356(9)
C9B C 0.84590(9) 1.1376(2) 0.00081(9)
C10B C 0.77836(10) 1.3206(2) -0.05087(10)
H5B H 0.8120 1.4302 -0.1059
C11B C 0.66170(10) 1.3466(2) -0.02340(10)
H6B H 0.6175 1.4729 -0.0602
C12B C 0.61053(9) 1.1921(2) 0.05602(10)
H7B H 0.5312 1.2114 0.0732
C1 C 1.31017(10) 1.3375(2) 0.75100(10)
H1 H 1.3441 1.4422 0.6941
C2 C 1.19392(10) 1.3685(2) 0.78008(9)
H2 H 1.1503 1.4961 0.7435
C3 C 1.14180(9) 1.2155(2) 0.86149(9)
C4 C 1.02343(9) 1.2490(2) 0.89316(9)
H3 H 0.9814 1.3802 0.8576
C5 C 1.03139(9) 0.8987(2) 1.02814(9)
C6 C 1.37470(9) 1.1573(2) 0.80417(10)
H4 H 1.4537 1.1402 0.7849
C7 C 1.32519(9) 0.9949(2) 0.88796(9)
C8 C 1.20672(9) 1.0230(2) 0.91644(9)
C9 C 1.15410(9) 0.8624(2) 0.99919(9)
C10 C 1.22164(10) 0.6794(2) 1.05087(10)
H5 H 1.1880 0.5698 1.1059
C11 C 1.33830(10) 0.6534(2) 1.02340(10)
H6 H 1.3825 0.5271 1.0602
C12 C 1.38947(9) 0.8079(2) 0.94398(10)
H7 H 1.4688 0.7886 0.9268
C1B C 0.68983(10) 0.6625(2) 1.24900(10)
H1B H 0.6559 0.5578 1.3059
C2B C 0.80608(10) 0.6315(2) 1.21992(9)
H2B H 0.8497 0.5039 1.2565
C3B C 0.85820(9) 0.7845(2) 1.13851(9)
C4B C 0.97657(9) 0.7510(2) 1.10684(9)
H3B H 1.0186 0.6198 1.1424
C5B C 0.96861(9) 1.1013(2) 0.97186(9)
C6B C 0.62530(9) 0.8427(2) 1.19583(10)
H4B H 0.5463 0.8598 1.2151
C7B C 0.67481(9) 1.0051(2) 1.11204(9)
C8B C 0.79328(9) 0.9770(2) 1.08356(9)
C9B C 0.84590(9) 1.1376(2) 1.00081(9)
C10B C 0.77836(10) 1.3206(2) 0.94913(10)
H5B H 0.8120 1.4302 0.8941
C11B C 0.66170(10) 1.3466(2) 0.97660(10)
H6B H 0.6175 1.4729 0.9398
C12B C 0.61053(9) 1.1921(2) 1.05602(10)
H7B H 0.5312 1.2114 1.0732
C1 C -0.31017(10) 0.8375(2) 0.74900(10)
H1 H -0.3441 0.9422 0.8059
C2 C -0.19392(10) 0.8685(2) 0.71992(9)
H2 H -0.1503 0.9961 0.7565
C3 C -0.14180(9) 0.7155(2) 0.63851(9)
C4 C -0.02343(9) 0.7490(2) 0.60684(9)
H3 H 0.0186 0.8802 0.6424
C5 C -0.03139(9) 0.3987(2) 0.47186(9)
C6 C -0.37470(9) 0.6573(2) 0.69583(10)
H4 H -0.4537 0.6402 0.7151
C7 C -0.32519(9) 0.4949(2) 0.61204(9)
C8 C -0.20672(9) 0.5230(2) 0.58356(9)
C9 C -0.15410(9) 0.3624(2) 0.50081(9)
C10 C -0.22164(10) 0.1794(2) 0.44913(10)
H5 H -0.1880 0.0698 0.3941
C11 C -0.33830(10) 0.1534(2) 0.47660(10)
H6 H -0.3825 0.0271 0.4398
C12 C -0.38947(9) 0.3079(2) 0.55602(10)
H7 H -0.4688 0.2886 0.5732
C1B C 0.31017(10) 0.1625(2) 0.25100(10)
H1B H 0.3441 0.0578 0.1941
C2B C 0.19392(10) 0.1315(2) 0.28008(9)
H2B H 0.1503 0.0039 0.2435
C3B C 0.14180(9) 0.2845(2) 0.36149(9)
C4B C 0.02343(9) 0.2510(2) 0.39316(9)
H3B H -0.0186 0.1198 0.3576
C5B C 0.03139(9) 0.6013(2) 0.52814(9)
C6B C 0.37470(9) 0.3427(2) 0.30417(10)
H4B H 0.4537 0.3598 0.2849
C7B C 0.32519(9) 0.5051(2) 0.38796(9)
C8B C 0.20672(9) 0.4770(2) 0.41644(9)
C9B C 0.15410(9) 0.6376(2) 0.49919(9)
C10B C 0.22164(10) 0.8206(2) 0.55087(10)
H5B H 0.1880 0.9302 0.6059
C11B C 0.33830(10) 0.8466(2) 0.52340(10)
H6B H 0.3825 0.9729 0.5602
C12B C 0.38947(9) 0.6921(2) 0.44398(10)
H7B H 0.4688 0.7114 0.4268
C1 C 0.68983(10) 0.8375(2) 0.74900(10)
H1 H 0.6559 0.9422 0.8059
C2 C 0.80608(10) 0.8685(2) 0.71992(9)
H2 H 0.8497 0.9961 0.7565
C3 C 0.85820(9) 0.7155(2) 0.63851(9)
C4 C 0.97657(9) 0.7490(2) 0.60684(9)
H3 H 1.0186 0.8802 0.6424
C5 C 0.96861(9) 0.3987(2) 0.47186(9)
C6 C 0.62530(9) 0.6573(2) 0.69583(10)
H4 H 0.5463 0.6402 0.7151
C7 C 0.67481(9) 0.4949(2) 0.61204(9)
C8 C 0.79328(9) 0.5230(2) 0.58356(9)
C9 C 0.84590(9) 0.3624(2) 0.50081(9)
C10 C 0.77836(10) 0.1794(2) 0.44913(10)
H5 H 0.8120 0.0698 0.3941
C11 C 0.66170(10) 0.1534(2) 0.47660(10)
H6 H 0.6175 0.0271 0.4398
C12 C 0.61053(9) 0.3079(2) 0.55602(10)
H7 H 0.5312 0.2886 0.5732
C1B C 1.31017(10) 0.1625(2) 0.25100(10)
H1B H 1.3441 0.0578 0.1941
C2B C 1.19392(10) 0.1315(2) 0.28008(9)
H2B H 1.1503 0.0039 0.2435
C3B C 1.14180(9) 0.2845(2) 0.36149(9)
C4B C 1.02343(9) 0.2510(2) 0.39316(9)
H3B H 0.9814 0.1198 0.3576
C5B C 1.03139(9) 0.6013(2) 0.52814(9)
C6B C 1.37470(9) 0.3427(2) 0.30417(10)
H4B H 1.4537 0.3598 0.2849
C7B C 1.32519(9) 0.5051(2) 0.38796(9)
C8B C 1.20672(9) 0.4770(2) 0.41644(9)
C9B C 1.15410(9) 0.6376(2) 0.49919(9)
C10B C 1.22164(10) 0.8206(2) 0.55087(10)
H5B H 1.1880 0.9302 0.6059
C11B C 1.33830(10) 0.8466(2) 0.52340(10)
H6B H 1.3825 0.9729 0.5602
C12B C 1.38947(9) 0.6921(2) 0.44398(10)
H7B H 1.4688 0.7114 0.4268

#END
