
#######################################################################
#
#                 Cambridge Crystallographic Data Centre
#                                CCDC 
#
#######################################################################
#
# If this CIF has been generated from an entry in the Cambridge 
# Structural Database, then it will include bibliographic, chemical, 
# crystal, experimental, refinement or atomic coordinate data resulting 
# from the CCDC's data processing and validation procedures.
#
#######################################################################

data_KAGQUH
_symmetry_cell_setting           monoclinic
_symmetry_space_group_name_H-M   'P 21/n'
_symmetry_Int_Tables_number      14
_space_group_name_Hall           '-P 2yn'
loop_
_symmetry_equiv_pos_site_id
_symmetry_equiv_pos_as_xyz
1 x,y,z
2 1/2-x,1/2+y,1/2-z
3 -x,-y,-z
4 1/2+x,1/2-y,1/2+z
_cell_length_a                   10.0665(5)
_cell_length_b                   5.9895(4)
_cell_length_c                   17.5155(10)
_cell_angle_alpha                90
_cell_angle_beta                 103.942(3)
_cell_angle_gamma                90
_cell_volume                     1024.96
loop_
_atom_site_label
_atom_site_type_symbol
_atom_site_fract_x
_atom_site_fract_y
_atom_site_fract_z
C1 C 0.3195(5) 0.2731(7) 0.1247(3)
H1 H 0.3652 0.1504 0.1081
C2 C 0.1940(4) 0.3507(8) 0.0876(3)
H2 H 0.1371 0.2943 0.0402
C3 C 0.1640(4) 0.5300(8) 0.1324(3)
H3 H 0.0819 0.615 0.1213
C4 C 0.2725(4) 0.5600(8) 0.1939(2)
H4 H 0.2802 0.6724 0.233
N1 N 0.3700(3) 0.4022(5) 0.19091(18)
C5 C 0.4953(4) 0.3675(7) 0.2469(2)
C6 C 0.5763(4) 0.1826(7) 0.2423(3)
H5 H 0.5471 0.0771 0.2011
C7 C 0.6976(4) 0.1514(7) 0.2964(2)
H6 H 0.7523 0.0248 0.2923
C8 C 0.7422(4) 0.3028(6) 0.3577(2)
C9 C 0.6603(4) 0.4834(6) 0.3646(2)
C10 C 0.5374(4) 0.5167(6) 0.3091(2)
H7 H 0.4819 0.6419 0.3135
Br1 Br 0.91712(4) 0.25708(7) 0.42674(3)
I1 I 0.71001(3) 0.70912(5) 0.458540(17)
C1 C 0.1805(5) 0.7731(7) 0.3753(3)
H1 H 0.1348 0.6504 0.3919
C2 C 0.3060(4) 0.8507(8) 0.4124(3)
H2 H 0.3629 0.7943 0.4598
C3 C 0.3360(4) 1.0300(8) 0.3676(3)
H3 H 0.4181 1.115 0.3787
C4 C 0.2275(4) 1.0600(8) 0.3061(2)
H4 H 0.2198 1.1724 0.267
N1 N 0.1300(3) 0.9022(5) 0.30909(18)
C5 C 0.0047(4) 0.8675(7) 0.2531(2)
C6 C -0.0763(4) 0.6826(7) 0.2577(3)
H5 H -0.0471 0.5771 0.2989
C7 C -0.1976(4) 0.6514(7) 0.2036(2)
H6 H -0.2523 0.5248 0.2077
C8 C -0.2422(4) 0.8028(6) 0.1423(2)
C9 C -0.1603(4) 0.9834(6) 0.1354(2)
C10 C -0.0374(4) 1.0167(6) 0.1909(2)
H7 H 0.0181 1.1419 0.1865
Br1 Br -0.41712(4) 0.75708(7) 0.07326(3)
I1 I -0.21001(3) 1.20912(5) 0.041460(17)
C1 C 0.6805(5) 0.7269(7) 0.8753(3)
H1 H 0.6348 0.8496 0.8919
C2 C 0.8060(4) 0.6493(8) 0.9124(3)
H2 H 0.8629 0.7057 0.9598
C3 C 0.8360(4) 0.4700(8) 0.8676(3)
H3 H 0.9181 0.385 0.8787
C4 C 0.7275(4) 0.4400(8) 0.8061(2)
H4 H 0.7198 0.3276 0.767
N1 N 0.6300(3) 0.5978(5) 0.80909(18)
C5 C 0.5047(4) 0.6325(7) 0.7531(2)
C6 C 0.4237(4) 0.8174(7) 0.7577(3)
H5 H 0.4529 0.9229 0.7989
C7 C 0.3024(4) 0.8486(7) 0.7036(2)
H6 H 0.2477 0.9752 0.7077
C8 C 0.2578(4) 0.6972(6) 0.6423(2)
C9 C 0.3397(4) 0.5166(6) 0.6354(2)
C10 C 0.4626(4) 0.4833(6) 0.6909(2)
H7 H 0.5181 0.3581 0.6865
Br1 Br 0.08288(4) 0.74292(7) 0.57326(3)
I1 I 0.28999(3) 0.29088(5) 0.541460(17)
C1 C 0.8195(5) 0.2269(7) 0.6247(3)
H1 H 0.8652 0.3496 0.6081
C2 C 0.6940(4) 0.1493(8) 0.5876(3)
H2 H 0.6371 0.2057 0.5402
C3 C 0.6640(4) -0.0300(8) 0.6324(3)
H3 H 0.5819 -0.115 0.6213
C4 C 0.7725(4) -0.0600(8) 0.6939(2)
H4 H 0.7802 -0.1724 0.733
N1 N 0.8700(3) 0.0978(5) 0.69091(18)
C5 C 0.9953(4) 0.1325(7) 0.7469(2)
C6 C 1.0763(4) 0.3174(7) 0.7423(3)
H5 H 1.0471 0.4229 0.7011
C7 C 1.1976(4) 0.3486(7) 0.7964(2)
H6 H 1.2523 0.4752 0.7923
C8 C 1.2422(4) 0.1972(6) 0.8577(2)
C9 C 1.1603(4) 0.0166(6) 0.8646(2)
C10 C 1.0374(4) -0.0167(6) 0.8091(2)
H7 H 0.9819 -0.1419 0.8135
Br1 Br 1.41712(4) 0.24292(7) 0.92674(3)
I1 I 1.21001(3) -0.20912(5) 0.958540(17)

#END
