./KAGQER_from_POSCAR.cif_generated_by_CrystalShift
_symmetry_cell_setting triclinic
_symmetry_space_group_name_H-M 'P 1'
loop_
_symmetry_equiv_pos_site_id
_symmetry_equiv_pos_as_xyz
1 x,y,z
_cell_length_a 9.744200
_cell_length_b 13.165400
_cell_length_c 17.825200
_cell_angle_alpha 90.000000
_cell_angle_beta 93.934000
_cell_angle_gamma 90.000000
_cell_volume 2281.340666
loop_
_atom_site_label
_atom_site_type_symbol
_atom_site_fract_x
_atom_site_fract_y
_atom_site_fract_z
H1 H 0.633900 0.302000 0.971700
H2 H 0.759600 0.161300 0.937900
H3 H 0.732600 -0.004700 0.982600
H4 H 1.091300 0.750400 0.160100
H5 H 0.866100 0.802000 0.528300
H6 H 1.045800 0.577200 0.170100
H7 H 0.850400 0.969900 0.487300
H8 H 0.830000 1.104900 0.573400
H9 H 0.641100 0.631100 0.116500
H10 H 0.824100 1.074900 0.701600
H11 H 0.685900 0.805100 0.109800
H12 H 0.841100 0.906900 0.812700
H13 H 0.875500 0.724300 0.796600
H14 H 0.633800 0.482800 0.211400
H15 H 0.437500 -0.055300 0.816000
H16 H 0.625400 0.298000 0.195500
H17 H 1.062500 0.444700 0.684000
H18 H 1.038600 0.610200 0.727100
H19 H 0.800200 0.157700 0.113700
H20 H 0.740400 0.661300 0.562100
H21 H 0.989900 0.154300 0.043800
H22 H 0.767400 0.495300 0.517400
H23 H 1.108300 0.303500 0.019200
H24 H 0.366100 0.698000 0.028300
H25 H 1.037300 0.460500 0.065100
H26 H 0.350400 0.530100 -0.012700
H27 H 0.649600 0.469900 1.012700
H28 H 0.330000 0.395100 0.073400
H29 H 0.324100 0.425100 0.201600
H30 H 0.408700 1.250400 0.339900
H31 H 0.341100 0.593100 0.312700
H32 H 0.454200 1.077200 0.329900
H33 H 0.375500 0.775700 0.296600
H34 H 0.624500 0.224300 0.703400
H35 H 0.858900 1.131100 0.383500
H36 H 0.562500 1.055300 0.184000
H37 H 0.814100 1.305100 0.390200
H38 H 0.538600 0.889800 0.227100
H39 H 0.240400 0.838700 0.062100
H40 H 0.866200 0.982800 0.288600
H41 H 0.267400 1.004700 0.017400
H42 H 0.874600 0.798000 0.304500
H43 H 0.133900 0.198000 0.471700
H44 H 0.149600 0.030100 0.512700
H45 H 0.699800 0.657700 0.386300
H46 H 0.170000 -0.104900 0.426600
H47 H 0.510100 0.654300 0.456200
H48 H 0.175900 -0.074900 0.298400
H49 H 0.391700 0.803500 0.480800
H50 H 0.158900 0.093100 0.187300
H51 H 0.462700 0.960500 0.434900
H52 H 0.124500 0.275700 0.203400
H53 H 0.670000 0.604900 0.926600
H54 H 0.658900 0.406900 0.687300
H55 H -0.062500 0.555300 0.316000
H56 H -0.091300 0.249600 0.839900
H57 H -0.038600 0.389800 0.272900
H58 H -0.045800 0.422800 0.829900
H59 H 0.259600 0.338700 0.437900
H60 H 0.232600 0.504700 0.482600
H61 H 0.358900 0.368900 0.883500
H62 H 0.537300 0.039500 0.565100
H63 H 0.314100 0.194900 0.890200
H64 H 0.608300 0.196500 0.519200
H65 H 0.489900 0.345700 0.543800
H66 H 0.366200 0.517200 0.788600
H67 H 0.300200 0.342300 0.613700
H68 H 0.374600 0.702000 0.804500
H69 H 0.461400 0.110200 0.772900
H70 H 0.125400 0.202000 0.695500
H71 H 0.199800 0.842300 0.886300
H72 H 0.133800 0.017200 0.711400
H73 H 0.010100 0.845700 0.956200
H74 H 0.185900 -0.305100 0.609800
H75 H -0.108300 0.696500 0.980800
H76 H 0.141100 -0.131100 0.616500
H77 H -0.037300 0.539500 0.934900
H78 H 0.545800 -0.077200 0.670100
H79 H 0.675900 0.574900 0.798400
H80 H 0.591300 -0.250400 0.660100
C81 C 0.500100 -0.225600 0.651100
C82 C 0.392900 -0.291900 0.632000
C83 C 0.473100 -0.123300 0.657000
C84 C 0.123300 0.599200 0.881100
C85 C 0.339800 -0.087500 0.644000
C86 C 0.232400 -0.155600 0.625600
C87 C 0.010300 0.600300 0.924300
C88 C 0.258700 -0.258300 0.620700
C89 C -0.030500 0.693400 0.951600
C90 C 0.666700 0.520300 0.832500
C91 C 0.197100 0.056400 0.685400
C92 C 0.040500 0.783000 0.936800
C93 C 0.192000 0.157800 0.676600
C94 C 0.151700 0.781300 0.895500
C95 C 0.303600 0.187300 0.634200
C96 C 0.196400 0.687300 0.865800
C97 C 0.308000 0.657800 0.823400
C98 C 0.459500 0.283000 0.563200
C99 C 0.302900 0.556400 0.814600
C100 C 0.530500 0.193400 0.548400
C101 C 0.663700 0.537200 0.908200
C102 C 0.489700 0.100300 0.575700
C103 C 0.241300 0.241700 0.879300
C104 C 0.376700 0.099200 0.618900
C105 C 0.655400 0.417600 0.806500
C106 C 0.084100 0.543600 0.401700
C107 C 0.179100 0.481100 0.439500
C108 C 0.267600 0.344400 0.874400
C109 C 0.194500 0.383200 0.413000
C110 C 0.160200 0.412500 0.856000
C111 C 0.114400 0.349700 0.349700
C112 C 0.018000 0.413400 0.314800
C113 C 0.026900 0.376700 0.843000
C114 C 0.003200 0.510900 0.340500
C115 C -0.000100 0.274400 0.848900
C116 C 0.107100 0.208100 0.868000
C117 C 0.133600 0.227500 0.243100
C118 C 0.623300 0.900800 0.381100
C119 C 0.151000 0.127500 0.233700
C120 C 0.510300 0.899700 0.424300
C121 C 0.155400 0.082400 0.306500
C122 C 0.166700 -0.020300 0.332500
C123 C 0.469500 0.806600 0.451600
C124 C 0.163700 -0.037200 0.408200
C125 C 0.540500 0.717000 0.436800
C126 C 0.151300 0.044900 0.460600
C127 C 0.651700 0.718700 0.395500
C128 C 0.141900 0.143400 0.437300
C129 C 0.696400 0.812700 0.365800
C130 C 0.144800 0.159700 0.358600
C131 C 0.651000 0.372500 0.733700
C132 C 0.415900 1.043600 0.098300
C133 C 0.320900 0.981100 0.060500
C134 C 0.808000 0.842200 0.323400
C135 C 0.305500 0.883200 0.087000
C136 C 0.802900 0.943600 0.314600
C137 C 0.385600 0.849700 0.150300
C138 C 0.482000 0.913400 0.185200
C139 C 0.651300 0.455100 0.960600
C140 C 0.496800 1.010900 0.159500
C141 C 0.741300 1.258300 0.379300
C142 C 0.767600 1.155600 0.374400
C143 C 0.366400 0.727500 0.256900
C144 C 0.660200 1.087500 0.356000
C145 C 0.349000 0.627500 0.266300
C146 C 0.526900 1.123300 0.343000
C147 C 0.344600 0.582400 0.193500
C148 C 0.333300 0.479700 0.167500
C149 C 0.499900 1.225600 0.348900
C150 C 0.336300 0.462800 0.091800
C151 C 0.607100 1.291900 0.368000
C152 C 0.348700 0.544900 0.039400
C153 C 0.876700 0.400800 0.118900
C154 C 0.358100 0.643400 0.062700
C155 C 0.989700 0.399700 0.075700
C156 C 0.355200 0.659700 0.141400
C157 C 0.633600 0.272500 0.743100
C158 C 0.915900 0.456400 0.598300
C159 C 0.820900 0.518900 0.560500
C160 C 1.030500 0.306600 0.048400
C161 C 0.805500 0.616800 0.587000
C162 C 0.959500 0.217000 0.063200
C163 C 0.885600 0.650300 0.650300
C164 C 0.982000 0.586600 0.685200
C165 C 0.848300 0.218700 0.104500
C166 C 0.996800 0.489100 0.659500
C167 C 0.803600 0.312700 0.134200
C168 C 0.692000 0.342200 0.176600
C169 C 0.866400 0.772500 0.756900
C170 C 0.697100 0.443600 0.185400
C171 C 0.849000 0.872500 0.766300
C172 C 0.641900 0.356600 0.937300
C173 C 0.844600 0.917600 0.693500
C174 C 0.833300 1.020300 0.667500
C175 C 0.758700 0.758300 0.120700
C176 C 0.836300 1.037200 0.591800
C177 C 0.732400 0.655600 0.125600
C178 C 0.848700 0.955100 0.539400
C179 C 0.839800 0.587500 0.144000
C180 C 0.858100 0.856600 0.562700
C181 C 0.973100 0.623300 0.157000
C182 C 0.855200 0.840300 0.641400
C183 C 0.503200 -0.010900 0.840500
C184 C 0.584100 -0.043600 0.901700
C185 C 0.679100 0.018900 0.939500
C186 C 1.000100 0.725600 0.151100
C187 C 0.694500 0.116800 0.913000
C188 C 0.892900 0.791900 0.132000
C189 C 0.614400 0.150300 0.849700
C190 C 0.518000 0.086600 0.814800
C191 C 0.348300 0.281300 0.604500
C192 C 0.644800 0.340300 0.858600
N193 N 0.869300 0.748900 0.680300
N194 N 0.630700 0.248900 0.819700
N195 N 0.810200 0.482800 0.150200
N196 N 0.369300 0.751100 0.180300
N197 N 0.689800 0.982800 0.349800
N198 N 0.130700 0.251100 0.319700
N199 N 0.189800 0.517200 0.849800
N200 N 0.310200 0.017200 0.650200
Br201 Br 0.067720 0.679620 0.436360
Br202 Br 0.069450 0.066710 0.876550
Br203 Br 0.432280 1.179620 0.063640
Br204 Br 0.569450 1.433290 0.376550
Br205 Br 0.932280 0.320380 0.563640
Br206 Br 0.567720 -0.179620 0.936360
Br207 Br 0.430550 -0.433290 0.623450
Br208 Br 0.930550 0.933290 0.123450

#END
