./KABDAU_from_xyz.cif_generated_by_CrystalShift
_symmetry_cell_setting triclinic
_symmetry_space_group_name_H-M 'P 1'
loop_
_symmetry_equiv_pos_site_id
_symmetry_equiv_pos_as_xyz
1 x,y,z
_cell_length_a 7.854100
_cell_length_b 10.679100
_cell_length_c 13.032000
_cell_angle_alpha 90.000000
_cell_angle_beta 93.904000
_cell_angle_gamma 90.000000
_cell_volume 1090.518971
loop_
_atom_site_label
_atom_site_type_symbol
_atom_site_fract_x
_atom_site_fract_y
_atom_site_fract_z
O1 O 0.746900 0.707620 0.585970
H2 H 0.859900 0.711800 0.594500
O3 O 0.414400 0.411600 0.661320
O4 O 0.244900 0.446900 0.783370
N5 N 0.672600 0.555010 0.769080
N6 N 0.639300 0.646890 0.914610
H7 H 0.658000 0.695200 0.964300
N8 N 0.381300 0.457420 0.743530
C9 C 0.704800 0.577300 0.580350
H10 H 0.761100 0.539700 0.524000
H11 H 0.582700 0.568600 0.565600
C12 C 0.756700 0.507000 0.678800
H13 H 0.728300 0.419100 0.669400
H14 H 0.879400 0.513100 0.692200
C15 C 0.749500 0.627200 0.842600
C16 C 0.489600 0.588200 0.889700
H17 H 0.392800 0.587900 0.927000
C18 C 0.509800 0.530220 0.799490
C19 C 0.925400 0.676200 0.846600
H20 H 0.979100 0.650700 0.786000
H21 H 0.988700 0.643900 0.906500
H22 H 0.922800 0.766000 0.850000
O23 O 0.253100 0.207620 0.914030
H24 H 0.140100 0.211800 0.905500
O25 O 0.585600 -0.088400 0.838680
O26 O 0.755100 -0.053100 0.716630
N27 N 0.327400 0.055010 0.730920
N28 N 0.360700 0.146890 0.585390
H29 H 0.342000 0.195200 0.535700
N30 N 0.618700 -0.042580 0.756470
C31 C 0.295200 0.077300 0.919650
H32 H 0.238900 0.039700 0.976000
H33 H 0.417300 0.068600 0.934400
C34 C 0.243300 0.007000 0.821200
H35 H 0.271700 -0.080900 0.830600
H36 H 0.120600 0.013100 0.807800
C37 C 0.250500 0.127200 0.657400
C38 C 0.510400 0.088200 0.610300
H39 H 0.607200 0.087900 0.573000
C40 C 0.490200 0.030220 0.700510
C41 C 0.074600 0.176200 0.653400
H42 H 0.020900 0.150700 0.714000
H43 H 0.011300 0.143900 0.593500
H44 H 0.077200 0.266000 0.650000
O45 O 0.253100 0.292380 0.414030
H46 H 0.140100 0.288200 0.405500
O47 O 0.585600 0.588400 0.338680
O48 O 0.755100 0.553100 0.216630
N49 N 0.327400 0.444990 0.230920
N50 N 0.360700 0.353110 0.085390
H51 H 0.342000 0.304800 0.035700
N52 N 0.618700 0.542580 0.256470
C53 C 0.295200 0.422700 0.419650
H54 H 0.238900 0.460300 0.476000
H55 H 0.417300 0.431400 0.434400
C56 C 0.243300 0.493000 0.321200
H57 H 0.271700 0.580900 0.330600
H58 H 0.120600 0.486900 0.307800
C59 C 0.250500 0.372800 0.157400
C60 C 0.510400 0.411800 0.110300
H61 H 0.607200 0.412100 0.073000
C62 C 0.490200 0.469780 0.200510
C63 C 0.074600 0.323800 0.153400
H64 H 0.020900 0.349300 0.214000
H65 H 0.011300 0.356100 0.093500
H66 H 0.077200 0.234000 0.150000
O67 O 0.746900 0.792380 0.085970
H68 H 0.859900 0.788200 0.094500
O69 O 0.414400 1.088400 0.161320
O70 O 0.244900 1.053100 0.283370
N71 N 0.672600 0.944990 0.269080
N72 N 0.639300 0.853110 0.414610
H73 H 0.658000 0.804800 0.464300
N74 N 0.381300 1.042580 0.243530
C75 C 0.704800 0.922700 0.080350
H76 H 0.761100 0.960300 0.024000
H77 H 0.582700 0.931400 0.065600
C78 C 0.756700 0.993000 0.178800
H79 H 0.728300 1.080900 0.169400
H80 H 0.879400 0.986900 0.192200
C81 C 0.749500 0.872800 0.342600
C82 C 0.489600 0.911800 0.389700
H83 H 0.392800 0.912100 0.427000
C84 C 0.509800 0.969780 0.299490
C85 C 0.925400 0.823800 0.346600
H86 H 0.979100 0.849300 0.286000
H87 H 0.988700 0.856100 0.406500
H88 H 0.922800 0.734000 0.350000
Cl89 Cl 0.226160 0.747410 0.596930
O90 O 0.334300 0.747700 0.687900
O91 O 0.103300 0.650000 0.598400
O92 O 0.323700 0.718000 0.511600
O93 O 0.151500 0.866300 0.579500
Cl94 Cl 0.773840 0.247410 0.903070
O95 O 0.665700 0.247700 0.812100
O96 O 0.896700 0.150000 0.901600
O97 O 0.676300 0.218000 0.988400
O98 O 0.848500 0.366300 0.920500
Cl99 Cl 0.773840 0.252590 0.403070
O100 O 0.665700 0.252300 0.312100
O101 O 0.896700 0.350000 0.401600
O102 O 0.676300 0.282000 0.488400
O103 O 0.848500 0.133700 0.420500
Cl104 Cl 0.226160 0.752590 0.096930
O105 O 0.334300 0.752300 0.187900
O106 O 0.103300 0.850000 0.098400
O107 O 0.323700 0.782000 0.011600
O108 O 0.151500 0.633700 0.079500

#END
