
#######################################################################
#
#                 Cambridge Crystallographic Data Centre
#                                CCDC 
#
#######################################################################
#
# If this CIF has been generated from an entry in the Cambridge 
# Structural Database, then it will include bibliographic, chemical, 
# crystal, experimental, refinement or atomic coordinate data resulting 
# from the CCDC's data processing and validation procedures.
#
#######################################################################

data_KABGIF
_symmetry_cell_setting           monoclinic
_symmetry_space_group_name_H-M   'P 21/c'
_symmetry_Int_Tables_number      14
_space_group_name_Hall           '-P 2ybc'
loop_
_symmetry_equiv_pos_site_id
_symmetry_equiv_pos_as_xyz
1 x,y,z
2 -x,1/2+y,1/2-z
3 -x,-y,-z
4 x,1/2-y,1/2+z
_cell_length_a                   8.5983(7)
_cell_length_b                   14.6982(9)
_cell_length_c                   13.2096(10)
_cell_angle_alpha                90
_cell_angle_beta                 107.860(9)
_cell_angle_gamma                90
_cell_volume                     1588.97
loop_
_atom_site_label
_atom_site_type_symbol
_atom_site_fract_x
_atom_site_fract_y
_atom_site_fract_z
O1 O 0.3583(2) 0.28271(10) 1.40773(12)
O2 O 0.41338(19) 0.17034(10) 1.51701(12)
O3 O 0.94760(16) -0.07061(8) 0.71258(9)
O4 O 0.84502(16) 0.09303(8) 0.62739(9)
O5 O 1.10849(17) 0.12748(8) 0.70345(11)
N1 N 0.66329(16) 0.00919(9) 1.15774(11)
H1 H 0.6925 -0.0461 1.1750
N2 N 0.68044(17) 0.04452(9) 1.06596(11)
N3 N 0.4121(2) 0.20643(13) 1.43252(14)
C1 C 0.6057(2) 0.02353(12) 1.32125(14)
H2 H 0.6504 -0.0339 1.3408
C2 C 0.5452(2) 0.07193(13) 1.38904(14)
H3 H 0.5495 0.0478 1.4549
C3 C 0.4777(2) 0.15662(12) 1.35965(15)
C4 C 0.4691(2) 0.19305(11) 1.26147(14)
H4 H 0.4215 0.2498 1.2416
C5 C 0.5311(2) 0.14503(11) 1.19376(14)
H5 H 0.5266 0.1696 1.1280
C6 C 0.6006(2) 0.06010(12) 1.22253(14)
C7 C 0.7483(2) -0.00733(11) 1.01437(13)
H6 H 0.7806 -0.0654 1.0403
C8 C 0.7767(2) 0.02182(11) 0.91625(13)
C9 C 0.85046(19) -0.03850(11) 0.86440(13)
H7 H 0.8822 -0.0956 0.8939
C10 C 0.8777(2) -0.01552(11) 0.76971(14)
C11 C 0.8294(2) 0.06963(12) 0.72761(13)
C12 C 0.7565(2) 0.13013(11) 0.77714(15)
H8 H 0.7246 0.1870 0.7472
C13 C 0.7300(2) 0.10665(11) 0.87204(15)
H9 H 0.6809 0.1479 0.9061
C14 C 0.9936(2) -0.15954(11) 0.75285(14)
H10 H 1.0419 -0.1913 0.7065
H11 H 0.8987 -0.1920 0.7567
H12 H 1.0714 -0.1554 0.8226
C15 C 0.9935(3) 0.12176(12) 0.62557(17)
C16 C 0.9907(3) 0.14511(15) 0.51509(15)
H13 H 0.9030 0.1868 0.4845
H14 H 0.9748 0.0907 0.4729
H15 H 1.0927 0.1728 0.5168
O1 O 0.6417(2) 0.78271(10) 0.09227(12)
O2 O 0.58662(19) 0.67034(10) -0.01701(12)
O3 O 0.05240(16) 0.42939(8) 0.78742(9)
O4 O 0.15498(16) 0.59303(8) 0.87261(9)
O5 O -0.10849(17) 0.62748(8) 0.79655(11)
N1 N 0.33671(16) 0.50919(9) 0.34226(11)
H1 H 0.3075 0.4539 0.3250
N2 N 0.31956(17) 0.54452(9) 0.43404(11)
N3 N 0.5879(2) 0.70643(13) 0.06748(14)
C1 C 0.3943(2) 0.52353(12) 0.17875(14)
H2 H 0.3496 0.4661 0.1592
C2 C 0.4548(2) 0.57193(13) 0.11096(14)
H3 H 0.4505 0.5478 0.0451
C3 C 0.5223(2) 0.65662(12) 0.14035(15)
C4 C 0.5309(2) 0.69305(11) 0.23853(14)
H4 H 0.5785 0.7498 0.2584
C5 C 0.4689(2) 0.64503(11) 0.30624(14)
H5 H 0.4734 0.6696 0.3720
C6 C 0.3994(2) 0.56010(12) 0.27747(14)
C7 C 0.2517(2) 0.49267(11) 0.48563(13)
H6 H 0.2194 0.4346 0.4597
C8 C 0.2233(2) 0.52182(11) 0.58375(13)
C9 C 0.14954(19) 0.46150(11) 0.63560(13)
H7 H 0.1178 0.4044 0.6061
C10 C 0.1223(2) 0.48448(11) 0.73029(14)
C11 C 0.1706(2) 0.56963(12) 0.77239(13)
C12 C 0.2435(2) 0.63013(11) 0.72286(15)
H8 H 0.2754 0.6870 0.7528
C13 C 0.2700(2) 0.60665(11) 0.62796(15)
H9 H 0.3191 0.6479 0.5939
C14 C 0.0064(2) 0.34046(11) 0.74715(14)
H10 H -0.0419 0.3087 0.7935
H11 H 0.1013 0.3080 0.7433
H12 H -0.0714 0.3446 0.6774
C15 C 0.0065(3) 0.62176(12) 0.87443(17)
C16 C 0.0093(3) 0.64511(15) 0.98491(15)
H13 H 0.0970 0.6868 1.0155
H14 H 0.0252 0.5907 1.0271
H15 H -0.0927 0.6728 0.9832
O1 O 0.6417(2) 0.71729(10) -0.40773(12)
O2 O 0.58662(19) 0.82966(10) -0.51701(12)
O3 O 0.05240(16) 1.07061(8) 0.28742(9)
O4 O 0.15498(16) 0.90697(8) 0.37261(9)
O5 O -0.10849(17) 0.87252(8) 0.29655(11)
N1 N 0.33671(16) 0.99081(9) -0.15774(11)
H1 H 0.3075 1.0461 -0.1750
N2 N 0.31956(17) 0.95548(9) -0.06596(11)
N3 N 0.5879(2) 0.79357(13) -0.43252(14)
C1 C 0.3943(2) 0.97647(12) -0.32125(14)
H2 H 0.3496 1.0339 -0.3408
C2 C 0.4548(2) 0.92807(13) -0.38904(14)
H3 H 0.4505 0.9522 -0.4549
C3 C 0.5223(2) 0.84338(12) -0.35965(15)
C4 C 0.5309(2) 0.80695(11) -0.26147(14)
H4 H 0.5785 0.7502 -0.2416
C5 C 0.4689(2) 0.85497(11) -0.19376(14)
H5 H 0.4734 0.8304 -0.1280
C6 C 0.3994(2) 0.93990(12) -0.22253(14)
C7 C 0.2517(2) 1.00733(11) -0.01437(13)
H6 H 0.2194 1.0654 -0.0403
C8 C 0.2233(2) 0.97818(11) 0.08375(13)
C9 C 0.14954(19) 1.03850(11) 0.13560(13)
H7 H 0.1178 1.0956 0.1061
C10 C 0.1223(2) 1.01552(11) 0.23029(14)
C11 C 0.1706(2) 0.93037(12) 0.27239(13)
C12 C 0.2435(2) 0.86987(11) 0.22286(15)
H8 H 0.2754 0.8130 0.2528
C13 C 0.2700(2) 0.89335(11) 0.12796(15)
H9 H 0.3191 0.8521 0.0939
C14 C 0.0064(2) 1.15954(11) 0.24715(14)
H10 H -0.0419 1.1913 0.2935
H11 H 0.1013 1.1920 0.2433
H12 H -0.0714 1.1554 0.1774
C15 C 0.0065(3) 0.87824(12) 0.37443(17)
C16 C 0.0093(3) 0.85489(15) 0.48491(15)
H13 H 0.0970 0.8132 0.5155
H14 H 0.0252 0.9093 0.5271
H15 H -0.0927 0.8272 0.4832
O1 O 0.3583(2) 0.21729(10) 0.90773(12)
O2 O 0.41338(19) 0.32966(10) 1.01701(12)
O3 O 0.94760(16) 0.57061(8) 0.21258(9)
O4 O 0.84502(16) 0.40697(8) 0.12739(9)
O5 O 1.10849(17) 0.37252(8) 0.20345(11)
N1 N 0.66329(16) 0.49081(9) 0.65774(11)
H1 H 0.6925 0.5461 0.6750
N2 N 0.68044(17) 0.45548(9) 0.56596(11)
N3 N 0.4121(2) 0.29357(13) 0.93252(14)
C1 C 0.6057(2) 0.47647(12) 0.82125(14)
H2 H 0.6504 0.5339 0.8408
C2 C 0.5452(2) 0.42807(13) 0.88904(14)
H3 H 0.5495 0.4522 0.9549
C3 C 0.4777(2) 0.34338(12) 0.85965(15)
C4 C 0.4691(2) 0.30695(11) 0.76147(14)
H4 H 0.4215 0.2502 0.7416
C5 C 0.5311(2) 0.35497(11) 0.69376(14)
H5 H 0.5266 0.3304 0.6280
C6 C 0.6006(2) 0.43990(12) 0.72253(14)
C7 C 0.7483(2) 0.50733(11) 0.51437(13)
H6 H 0.7806 0.5654 0.5403
C8 C 0.7767(2) 0.47818(11) 0.41625(13)
C9 C 0.85046(19) 0.53850(11) 0.36440(13)
H7 H 0.8822 0.5956 0.3939
C10 C 0.8777(2) 0.51552(11) 0.26971(14)
C11 C 0.8294(2) 0.43037(12) 0.22761(13)
C12 C 0.7565(2) 0.36987(11) 0.27714(15)
H8 H 0.7246 0.3130 0.2472
C13 C 0.7300(2) 0.39335(11) 0.37204(15)
H9 H 0.6809 0.3521 0.4061
C14 C 0.9936(2) 0.65954(11) 0.25285(14)
H10 H 1.0419 0.6913 0.2065
H11 H 0.8987 0.6920 0.2567
H12 H 1.0714 0.6554 0.3226
C15 C 0.9935(3) 0.37824(12) 0.12557(17)
C16 C 0.9907(3) 0.35489(15) 0.01509(15)
H13 H 0.9030 0.3132 -0.0155
H14 H 0.9748 0.4093 -0.0271
H15 H 1.0927 0.3272 0.0168

#END
