./KABHED_from_xyz.cif_generated_by_CrystalShift
_symmetry_cell_setting triclinic
_symmetry_space_group_name_H-M 'P 1'
loop_
_symmetry_equiv_pos_site_id
_symmetry_equiv_pos_as_xyz
1 x,y,z
_cell_length_a 7.180300
_cell_length_b 8.059800
_cell_length_c 13.921400
_cell_angle_alpha 98.659000
_cell_angle_beta 92.733000
_cell_angle_gamma 108.798000
_cell_volume 749.996185
loop_
_atom_site_label
_atom_site_type_symbol
_atom_site_fract_x
_atom_site_fract_y
_atom_site_fract_z
O1 O 0.212920 -0.210680 0.486920
O2 O 0.093250 -0.449480 0.371570
O3 O 0.139390 -0.338870 0.187030
O4 O -0.113170 -0.246550 0.188540
N5 N 0.038300 -0.259050 0.227690
N6 N 0.378230 0.076870 0.206450
C7 C 0.263600 -0.029100 0.518150
C8 C 0.354300 0.034500 0.612560
H9 H 0.379200 -0.044200 0.651900
C10 C 0.408000 0.214800 0.648580
H11 H 0.472300 0.260900 0.712900
C12 C 0.368600 0.328900 0.591270
H13 H 0.403500 0.452200 0.617200
C14 C 0.279300 0.264800 0.497240
H15 H 0.254000 0.344400 0.458700
C16 C 0.224900 0.082000 0.457440
C17 C 0.138900 0.005400 0.357790
C18 C 0.104400 -0.170600 0.329910
C19 C 0.134400 -0.290300 0.393540
C20 C 0.104700 0.123400 0.289210
H21 H 0.085600 0.229300 0.327800
H22 H -0.018000 0.057700 0.245300
C23 C 0.275600 0.184040 0.227780
C24 C 0.310900 0.346900 0.193290
H25 H 0.230700 0.418500 0.209200
C26 C 0.461300 0.399000 0.137040
H27 H 0.488600 0.509000 0.114400
C28 C 0.577500 0.290000 0.112030
C29 C 0.527700 0.126200 0.147900
C30 C 0.633800 0.009500 0.121360
H31 H 0.600600 -0.100800 0.144100
C32 C 0.783700 0.053300 0.063400
H33 H 0.853400 -0.026900 0.045800
C34 C 0.836000 0.216900 0.029370
H35 H 0.942000 0.246900 -0.010200
C36 C 0.735000 0.332300 0.053030
H37 H 0.771000 0.442000 0.029600
O38 O 0.787080 1.210680 0.513080
O39 O 0.906750 1.449480 0.628430
O40 O 0.860610 1.338870 0.812970
O41 O 1.113170 1.246550 0.811460
N42 N 0.961700 1.259050 0.772310
N43 N 0.621770 0.923130 0.793550
C44 C 0.736400 1.029100 0.481850
C45 C 0.645700 0.965500 0.387440
H46 H 0.620800 1.044200 0.348100
C47 C 0.592000 0.785200 0.351420
H48 H 0.527700 0.739100 0.287100
C49 C 0.631400 0.671100 0.408730
H50 H 0.596500 0.547800 0.382800
C51 C 0.720700 0.735200 0.502760
H52 H 0.746000 0.655600 0.541300
C53 C 0.775100 0.918000 0.542560
C54 C 0.861100 0.994600 0.642210
C55 C 0.895600 1.170600 0.670090
C56 C 0.865600 1.290300 0.606460
C57 C 0.895300 0.876600 0.710790
H58 H 0.914400 0.770700 0.672200
H59 H 1.018000 0.942300 0.754700
C60 C 0.724400 0.815960 0.772220
C61 C 0.689100 0.653100 0.806710
H62 H 0.769300 0.581500 0.790800
C63 C 0.538700 0.601000 0.862960
H64 H 0.511400 0.491000 0.885600
C65 C 0.422500 0.710000 0.887970
C66 C 0.472300 0.873800 0.852100
C67 C 0.366200 0.990500 0.878640
H68 H 0.399400 1.100800 0.855900
C69 C 0.216300 0.946700 0.936600
H70 H 0.146600 1.026900 0.954200
C71 C 0.164000 0.783100 0.970630
H72 H 0.058000 0.753100 1.010200
C73 C 0.265000 0.667700 0.946970
H74 H 0.229000 0.558000 0.970400

#END
