./KABKIK_from_xyz.cif_generated_by_CrystalShift
_symmetry_cell_setting triclinic
_symmetry_space_group_name_H-M 'P 1'
loop_
_symmetry_equiv_pos_site_id
_symmetry_equiv_pos_as_xyz
1 x,y,z
_cell_length_a 13.989400
_cell_length_b 9.125700
_cell_length_c 15.099000
_cell_angle_alpha 90.000000
_cell_angle_beta 108.295000
_cell_angle_gamma 90.000000
_cell_volume 1830.150800
loop_
_atom_site_label
_atom_site_type_symbol
_atom_site_fract_x
_atom_site_fract_y
_atom_site_fract_z
Br1 Br 0.178920 0.533540 1.063470
C2 C 0.168900 0.394400 0.509700
C3 C 0.115100 0.332000 0.424600
H4 H 0.140200 0.337500 0.374400
C5 C 0.024700 0.262100 0.414000
H6 H -0.011300 0.221300 0.356900
C7 C -0.011700 0.253100 0.488000
H8 H -0.072100 0.204600 0.480900
C9 C 0.040200 0.315200 0.573700
H10 H 0.014700 0.308100 0.623400
C11 C 0.130500 0.388200 0.584700
C12 C 0.169700 0.460200 0.755900
C13 C 0.081900 0.442600 0.780000
H14 H 0.021300 0.417600 0.735500
C15 C 0.087800 0.463700 0.871900
H16 H 0.030400 0.451300 0.889700
C17 C 0.177600 0.503000 0.938500
C18 C 0.264200 0.525000 0.916000
H19 H 0.323500 0.553900 0.960900
C20 C 0.260700 0.502700 0.823900
C21 C 0.333500 0.521100 0.776800
H22 H 0.400100 0.549400 0.804000
C23 C 0.288700 0.490400 0.686000
C24 C 0.328300 0.506500 0.606800
C25 C 0.438300 0.474900 0.628200
C26 C 0.474100 0.336500 0.651900
H27 H 0.429400 0.262000 0.653900
C28 C 0.574900 0.304900 0.672800
H29 H 0.597700 0.209600 0.688000
C30 C 0.641900 0.414500 0.671300
C31 C 0.606000 0.552000 0.646200
H32 H 0.650600 0.626300 0.643600
C33 C 0.505100 0.583200 0.624600
H34 H 0.482100 0.677900 0.607400
C35 C 0.747800 0.385400 0.695600
C36 C 0.277400 0.615700 0.533800
H37 H 0.220900 0.669700 0.541800
H38 H 0.318800 0.670300 0.504400
N39 N 0.263900 0.457000 0.513900
N40 N 0.188900 0.450900 0.670940
N41 N 0.832000 0.366500 0.716400
Br42 Br 0.321080 1.033540 0.436530
C43 C 0.331100 0.894400 0.990300
C44 C 0.384900 0.832000 1.075400
H45 H 0.359800 0.837500 1.125600
C46 C 0.475300 0.762100 1.086000
H47 H 0.511300 0.721300 1.143100
C48 C 0.511700 0.753100 1.012000
H49 H 0.572100 0.704600 1.019100
C50 C 0.459800 0.815200 0.926300
H51 H 0.485300 0.808100 0.876600
C52 C 0.369500 0.888200 0.915300
C53 C 0.330300 0.960200 0.744100
C54 C 0.418100 0.942600 0.720000
H55 H 0.478700 0.917600 0.764500
C56 C 0.412200 0.963700 0.628100
H57 H 0.469600 0.951300 0.610300
C58 C 0.322400 1.003000 0.561500
C59 C 0.235800 1.025000 0.584000
H60 H 0.176500 1.053900 0.539100
C61 C 0.239300 1.002700 0.676100
C62 C 0.166500 1.021100 0.723200
H63 H 0.099900 1.049400 0.696000
C64 C 0.211300 0.990400 0.814000
C65 C 0.171700 1.006500 0.893200
C66 C 0.061700 0.974900 0.871800
C67 C 0.025900 0.836500 0.848100
H68 H 0.070600 0.762000 0.846100
C69 C -0.074900 0.804900 0.827200
H70 H -0.097700 0.709600 0.812000
C71 C -0.141900 0.914500 0.828700
C72 C -0.106000 1.052000 0.853800
H73 H -0.150600 1.126300 0.856400
C74 C -0.005100 1.083200 0.875400
H75 H 0.017900 1.177900 0.892600
C76 C -0.247800 0.885400 0.804400
C77 C 0.222600 1.115700 0.966200
H78 H 0.279100 1.169700 0.958200
H79 H 0.181200 1.170300 0.995600
N80 N 0.236100 0.957000 0.986100
N81 N 0.311100 0.950900 0.829060
N82 N -0.332000 0.866500 0.783600
Br83 Br 0.821080 0.466460 -0.063470
C84 C 0.831100 0.605600 0.490300
C85 C 0.884900 0.668000 0.575400
H86 H 0.859800 0.662500 0.625600
C87 C 0.975300 0.737900 0.586000
H88 H 1.011300 0.778700 0.643100
C89 C 1.011700 0.746900 0.512000
H90 H 1.072100 0.795400 0.519100
C91 C 0.959800 0.684800 0.426300
H92 H 0.985300 0.691900 0.376600
C93 C 0.869500 0.611800 0.415300
C94 C 0.830300 0.539800 0.244100
C95 C 0.918100 0.557400 0.220000
H96 H 0.978700 0.582400 0.264500
C97 C 0.912200 0.536300 0.128100
H98 H 0.969600 0.548700 0.110300
C99 C 0.822400 0.497000 0.061500
C100 C 0.735800 0.475000 0.084000
H101 H 0.676500 0.446100 0.039100
C102 C 0.739300 0.497300 0.176100
C103 C 0.666500 0.478900 0.223200
H104 H 0.599900 0.450600 0.196000
C105 C 0.711300 0.509600 0.314000
C106 C 0.671700 0.493500 0.393200
C107 C 0.561700 0.525100 0.371800
C108 C 0.525900 0.663500 0.348100
H109 H 0.570600 0.738000 0.346100
C110 C 0.425100 0.695100 0.327200
H111 H 0.402300 0.790400 0.312000
C112 C 0.358100 0.585500 0.328700
C113 C 0.394000 0.448000 0.353800
H114 H 0.349400 0.373700 0.356400
C115 C 0.494900 0.416800 0.375400
H116 H 0.517900 0.322100 0.392600
C117 C 0.252200 0.614600 0.304400
C118 C 0.722600 0.384300 0.466200
H119 H 0.779100 0.330300 0.458200
H120 H 0.681200 0.329700 0.495600
N121 N 0.736100 0.543000 0.486100
N122 N 0.811100 0.549100 0.329060
N123 N 0.168000 0.633500 0.283600
Br124 Br 0.678920 -0.033540 0.563470
C125 C 0.668900 0.105600 0.009700
C126 C 0.615100 0.168000 -0.075400
H127 H 0.640200 0.162500 -0.125600
C128 C 0.524700 0.237900 -0.086000
H129 H 0.488700 0.278700 -0.143100
C130 C 0.488300 0.246900 -0.012000
H131 H 0.427900 0.295400 -0.019100
C132 C 0.540200 0.184800 0.073700
H133 H 0.514700 0.191900 0.123400
C134 C 0.630500 0.111800 0.084700
C135 C 0.669700 0.039800 0.255900
C136 C 0.581900 0.057400 0.280000
H137 H 0.521300 0.082400 0.235500
C138 C 0.587800 0.036300 0.371900
H139 H 0.530400 0.048700 0.389700
C140 C 0.677600 -0.003000 0.438500
C141 C 0.764200 -0.025000 0.416000
H142 H 0.823500 -0.053900 0.460900
C143 C 0.760700 -0.002700 0.323900
C144 C 0.833500 -0.021100 0.276800
H145 H 0.900100 -0.049400 0.304000
C146 C 0.788700 0.009600 0.186000
C147 C 0.828300 -0.006500 0.106800
C148 C 0.938300 0.025100 0.128200
C149 C 0.974100 0.163500 0.151900
H150 H 0.929400 0.238000 0.153900
C151 C 1.074900 0.195100 0.172800
H152 H 1.097700 0.290400 0.188000
C153 C 1.141900 0.085500 0.171300
C154 C 1.106000 -0.052000 0.146200
H155 H 1.150600 -0.126300 0.143600
C156 C 1.005100 -0.083200 0.124600
H157 H 0.982100 -0.177900 0.107400
C158 C 1.247800 0.114600 0.195600
C159 C 0.777400 -0.115700 0.033800
H160 H 0.720900 -0.169700 0.041800
H161 H 0.818800 -0.170300 0.004400
N162 N 0.763900 0.043000 0.013900
N163 N 0.688900 0.049100 0.170940
N164 N 1.332000 0.133500 0.216400

#END
