./KABKAB_from_xyz.cif_generated_by_CrystalShift
_symmetry_cell_setting triclinic
_symmetry_space_group_name_H-M 'P 1'
loop_
_symmetry_equiv_pos_site_id
_symmetry_equiv_pos_as_xyz
1 x,y,z
_cell_length_a 7.354300
_cell_length_b 6.261700
_cell_length_c 31.387200
_cell_angle_alpha 90.000000
_cell_angle_beta 90.000000
_cell_angle_gamma 90.000000
_cell_volume 1445.393752
loop_
_atom_site_label
_atom_site_type_symbol
_atom_site_fract_x
_atom_site_fract_y
_atom_site_fract_z
O1 O -0.018840 -0.574910 0.199550
C2 C -0.006670 -0.505600 0.158180
C3 C 0.079080 -0.614500 0.125800
H4 H 0.134100 -0.745700 0.131000
C5 C 0.082110 -0.526000 0.085470
H6 H 0.138600 -0.601200 0.063600
C7 C 0.004220 -0.329300 0.076230
C8 C -0.084650 -0.224800 0.109630
H9 H -0.141100 -0.094400 0.104600
C10 C -0.090020 -0.311600 0.149800
H11 H -0.150100 -0.239500 0.171600
C12 C 0.025940 -0.238000 0.033820
H13 H 0.076900 -0.327100 0.013300
C14 C -0.018630 -0.041600 0.020860
H15 H -0.077700 0.047200 0.040200
C16 C 0.073800 -0.766100 0.210390
H17 H 0.025400 -0.882400 0.194000
H18 H 0.057700 -0.795000 0.240200
H19 H 0.201000 -0.750300 0.204300
O20 O 0.018840 0.574910 -0.199550
C21 C 0.006670 0.505600 -0.158180
C22 C -0.079080 0.614500 -0.125800
H23 H -0.134100 0.745700 -0.131000
C24 C -0.082110 0.526000 -0.085470
H25 H -0.138600 0.601200 -0.063600
C26 C -0.004220 0.329300 -0.076230
C27 C 0.084650 0.224800 -0.109630
H28 H 0.141100 0.094400 -0.104600
C29 C 0.090020 0.311600 -0.149800
H30 H 0.150100 0.239500 -0.171600
C31 C -0.025940 0.238000 -0.033820
H32 H -0.076900 0.327100 -0.013300
C33 C 0.018630 0.041600 -0.020860
H34 H 0.077700 -0.047200 -0.040200
C35 C -0.073800 0.766100 -0.210390
H36 H -0.025400 0.882400 -0.194000
H37 H -0.057700 0.795000 -0.240200
H38 H -0.201000 0.750300 -0.204300
O39 O -0.018840 -0.574910 1.199550
C40 C -0.006670 -0.505600 1.158180
C41 C 0.079080 -0.614500 1.125800
H42 H 0.134100 -0.745700 1.131000
C43 C 0.082110 -0.526000 1.085470
H44 H 0.138600 -0.601200 1.063600
C45 C 0.004220 -0.329300 1.076230
C46 C -0.084650 -0.224800 1.109630
H47 H -0.141100 -0.094400 1.104600
C48 C -0.090020 -0.311600 1.149800
H49 H -0.150100 -0.239500 1.171600
C50 C 0.025940 -0.238000 1.033820
H51 H 0.076900 -0.327100 1.013300
C52 C -0.018630 -0.041600 1.020860
H53 H -0.077700 0.047200 1.040200
C54 C 0.073800 -0.766100 1.210390
H55 H 0.025400 -0.882400 1.194000
H56 H 0.057700 -0.795000 1.240200
H57 H 0.201000 -0.750300 1.204300
O58 O 0.018840 0.574910 0.800450
C59 C 0.006670 0.505600 0.841820
C60 C -0.079080 0.614500 0.874200
H61 H -0.134100 0.745700 0.869000
C62 C -0.082110 0.526000 0.914530
H63 H -0.138600 0.601200 0.936400
C64 C -0.004220 0.329300 0.923770
C65 C 0.084650 0.224800 0.890370
H66 H 0.141100 0.094400 0.895400
C67 C 0.090020 0.311600 0.850200
H68 H 0.150100 0.239500 0.828400
C69 C -0.025940 0.238000 0.966180
H70 H -0.076900 0.327100 0.986700
C71 C 0.018630 0.041600 0.979140
H72 H 0.077700 -0.047200 0.959800
C73 C -0.073800 0.766100 0.789610
H74 H -0.025400 0.882400 0.806000
H75 H -0.057700 0.795000 0.759800
H76 H -0.201000 0.750300 0.795700
O77 O -0.018840 0.425090 0.199550
C78 C -0.006670 0.494400 0.158180
C79 C 0.079080 0.385500 0.125800
H80 H 0.134100 0.254300 0.131000
C81 C 0.082110 0.474000 0.085470
H82 H 0.138600 0.398800 0.063600
C83 C 0.004220 0.670700 0.076230
C84 C -0.084650 0.775200 0.109630
H85 H -0.141100 0.905600 0.104600
C86 C -0.090020 0.688400 0.149800
H87 H -0.150100 0.760500 0.171600
C88 C 0.025940 0.762000 0.033820
H89 H 0.076900 0.672900 0.013300
C90 C -0.018630 0.958400 0.020860
H91 H -0.077700 1.047200 0.040200
C92 C 0.073800 0.233900 0.210390
H93 H 0.025400 0.117600 0.194000
H94 H 0.057700 0.205000 0.240200
H95 H 0.201000 0.249700 0.204300
O96 O 0.018840 1.574910 -0.199550
C97 C 0.006670 1.505600 -0.158180
C98 C -0.079080 1.614500 -0.125800
H99 H -0.134100 1.745700 -0.131000
C100 C -0.082110 1.526000 -0.085470
H101 H -0.138600 1.601200 -0.063600
C102 C -0.004220 1.329300 -0.076230
C103 C 0.084650 1.224800 -0.109630
H104 H 0.141100 1.094400 -0.104600
C105 C 0.090020 1.311600 -0.149800
H106 H 0.150100 1.239500 -0.171600
C107 C -0.025940 1.238000 -0.033820
H108 H -0.076900 1.327100 -0.013300
C109 C 0.018630 1.041600 -0.020860
H110 H 0.077700 0.952800 -0.040200
C111 C -0.073800 1.766100 -0.210390
H112 H -0.025400 1.882400 -0.194000
H113 H -0.057700 1.795000 -0.240200
H114 H -0.201000 1.750300 -0.204300
O115 O -0.018840 0.425090 1.199550
C116 C -0.006670 0.494400 1.158180
C117 C 0.079080 0.385500 1.125800
H118 H 0.134100 0.254300 1.131000
C119 C 0.082110 0.474000 1.085470
H120 H 0.138600 0.398800 1.063600
C121 C 0.004220 0.670700 1.076230
C122 C -0.084650 0.775200 1.109630
H123 H -0.141100 0.905600 1.104600
C124 C -0.090020 0.688400 1.149800
H125 H -0.150100 0.760500 1.171600
C126 C 0.025940 0.762000 1.033820
H127 H 0.076900 0.672900 1.013300
C128 C -0.018630 0.958400 1.020860
H129 H -0.077700 1.047200 1.040200
C130 C 0.073800 0.233900 1.210390
H131 H 0.025400 0.117600 1.194000
H132 H 0.057700 0.205000 1.240200
H133 H 0.201000 0.249700 1.204300
O134 O 0.018840 1.574910 0.800450
C135 C 0.006670 1.505600 0.841820
C136 C -0.079080 1.614500 0.874200
H137 H -0.134100 1.745700 0.869000
C138 C -0.082110 1.526000 0.914530
H139 H -0.138600 1.601200 0.936400
C140 C -0.004220 1.329300 0.923770
C141 C 0.084650 1.224800 0.890370
H142 H 0.141100 1.094400 0.895400
C143 C 0.090020 1.311600 0.850200
H144 H 0.150100 1.239500 0.828400
C145 C -0.025940 1.238000 0.966180
H146 H -0.076900 1.327100 0.986700
C147 C 0.018630 1.041600 0.979140
H148 H 0.077700 0.952800 0.959800
C149 C -0.073800 1.766100 0.789610
H150 H -0.025400 1.882400 0.806000
H151 H -0.057700 1.795000 0.759800
H152 H -0.201000 1.750300 0.795700
O153 O 0.981160 -0.574910 0.199550
C154 C 0.993330 -0.505600 0.158180
C155 C 1.079080 -0.614500 0.125800
H156 H 1.134100 -0.745700 0.131000
C157 C 1.082110 -0.526000 0.085470
H158 H 1.138600 -0.601200 0.063600
C159 C 1.004220 -0.329300 0.076230
C160 C 0.915350 -0.224800 0.109630
H161 H 0.858900 -0.094400 0.104600
C162 C 0.909980 -0.311600 0.149800
H163 H 0.849900 -0.239500 0.171600
C164 C 1.025940 -0.238000 0.033820
H165 H 1.076900 -0.327100 0.013300
C166 C 0.981370 -0.041600 0.020860
H167 H 0.922300 0.047200 0.040200
C168 C 1.073800 -0.766100 0.210390
H169 H 1.025400 -0.882400 0.194000
H170 H 1.057700 -0.795000 0.240200
H171 H 1.201000 -0.750300 0.204300
O172 O 1.018840 0.574910 -0.199550
C173 C 1.006670 0.505600 -0.158180
C174 C 0.920920 0.614500 -0.125800
H175 H 0.865900 0.745700 -0.131000
C176 C 0.917890 0.526000 -0.085470
H177 H 0.861400 0.601200 -0.063600
C178 C 0.995780 0.329300 -0.076230
C179 C 1.084650 0.224800 -0.109630
H180 H 1.141100 0.094400 -0.104600
C181 C 1.090020 0.311600 -0.149800
H182 H 1.150100 0.239500 -0.171600
C183 C 0.974060 0.238000 -0.033820
H184 H 0.923100 0.327100 -0.013300
C185 C 1.018630 0.041600 -0.020860
H186 H 1.077700 -0.047200 -0.040200
C187 C 0.926200 0.766100 -0.210390
H188 H 0.974600 0.882400 -0.194000
H189 H 0.942300 0.795000 -0.240200
H190 H 0.799000 0.750300 -0.204300
O191 O 0.981160 -0.574910 1.199550
C192 C 0.993330 -0.505600 1.158180
C193 C 1.079080 -0.614500 1.125800
H194 H 1.134100 -0.745700 1.131000
C195 C 1.082110 -0.526000 1.085470
H196 H 1.138600 -0.601200 1.063600
C197 C 1.004220 -0.329300 1.076230
C198 C 0.915350 -0.224800 1.109630
H199 H 0.858900 -0.094400 1.104600
C200 C 0.909980 -0.311600 1.149800
H201 H 0.849900 -0.239500 1.171600
C202 C 1.025940 -0.238000 1.033820
H203 H 1.076900 -0.327100 1.013300
C204 C 0.981370 -0.041600 1.020860
H205 H 0.922300 0.047200 1.040200
C206 C 1.073800 -0.766100 1.210390
H207 H 1.025400 -0.882400 1.194000
H208 H 1.057700 -0.795000 1.240200
H209 H 1.201000 -0.750300 1.204300
O210 O 1.018840 0.574910 0.800450
C211 C 1.006670 0.505600 0.841820
C212 C 0.920920 0.614500 0.874200
H213 H 0.865900 0.745700 0.869000
C214 C 0.917890 0.526000 0.914530
H215 H 0.861400 0.601200 0.936400
C216 C 0.995780 0.329300 0.923770
C217 C 1.084650 0.224800 0.890370
H218 H 1.141100 0.094400 0.895400
C219 C 1.090020 0.311600 0.850200
H220 H 1.150100 0.239500 0.828400
C221 C 0.974060 0.238000 0.966180
H222 H 0.923100 0.327100 0.986700
C223 C 1.018630 0.041600 0.979140
H224 H 1.077700 -0.047200 0.959800
C225 C 0.926200 0.766100 0.789610
H226 H 0.974600 0.882400 0.806000
H227 H 0.942300 0.795000 0.759800
H228 H 0.799000 0.750300 0.795700
O229 O 0.981160 0.425090 0.199550
C230 C 0.993330 0.494400 0.158180
C231 C 1.079080 0.385500 0.125800
H232 H 1.134100 0.254300 0.131000
C233 C 1.082110 0.474000 0.085470
H234 H 1.138600 0.398800 0.063600
C235 C 1.004220 0.670700 0.076230
C236 C 0.915350 0.775200 0.109630
H237 H 0.858900 0.905600 0.104600
C238 C 0.909980 0.688400 0.149800
H239 H 0.849900 0.760500 0.171600
C240 C 1.025940 0.762000 0.033820
H241 H 1.076900 0.672900 0.013300
C242 C 0.981370 0.958400 0.020860
H243 H 0.922300 1.047200 0.040200
C244 C 1.073800 0.233900 0.210390
H245 H 1.025400 0.117600 0.194000
H246 H 1.057700 0.205000 0.240200
H247 H 1.201000 0.249700 0.204300
O248 O 1.018840 1.574910 -0.199550
C249 C 1.006670 1.505600 -0.158180
C250 C 0.920920 1.614500 -0.125800
H251 H 0.865900 1.745700 -0.131000
C252 C 0.917890 1.526000 -0.085470
H253 H 0.861400 1.601200 -0.063600
C254 C 0.995780 1.329300 -0.076230
C255 C 1.084650 1.224800 -0.109630
H256 H 1.141100 1.094400 -0.104600
C257 C 1.090020 1.311600 -0.149800
H258 H 1.150100 1.239500 -0.171600
C259 C 0.974060 1.238000 -0.033820
H260 H 0.923100 1.327100 -0.013300
C261 C 1.018630 1.041600 -0.020860
H262 H 1.077700 0.952800 -0.040200
C263 C 0.926200 1.766100 -0.210390
H264 H 0.974600 1.882400 -0.194000
H265 H 0.942300 1.795000 -0.240200
H266 H 0.799000 1.750300 -0.204300
O267 O 0.981160 0.425090 1.199550
C268 C 0.993330 0.494400 1.158180
C269 C 1.079080 0.385500 1.125800
H270 H 1.134100 0.254300 1.131000
C271 C 1.082110 0.474000 1.085470
H272 H 1.138600 0.398800 1.063600
C273 C 1.004220 0.670700 1.076230
C274 C 0.915350 0.775200 1.109630
H275 H 0.858900 0.905600 1.104600
C276 C 0.909980 0.688400 1.149800
H277 H 0.849900 0.760500 1.171600
C278 C 1.025940 0.762000 1.033820
H279 H 1.076900 0.672900 1.013300
C280 C 0.981370 0.958400 1.020860
H281 H 0.922300 1.047200 1.040200
C282 C 1.073800 0.233900 1.210390
H283 H 1.025400 0.117600 1.194000
H284 H 1.057700 0.205000 1.240200
H285 H 1.201000 0.249700 1.204300
O286 O 1.018840 1.574910 0.800450
C287 C 1.006670 1.505600 0.841820
C288 C 0.920920 1.614500 0.874200
H289 H 0.865900 1.745700 0.869000
C290 C 0.917890 1.526000 0.914530
H291 H 0.861400 1.601200 0.936400
C292 C 0.995780 1.329300 0.923770
C293 C 1.084650 1.224800 0.890370
H294 H 1.141100 1.094400 0.895400
C295 C 1.090020 1.311600 0.850200
H296 H 1.150100 1.239500 0.828400
C297 C 0.974060 1.238000 0.966180
H298 H 0.923100 1.327100 0.986700
C299 C 1.018630 1.041600 0.979140
H300 H 1.077700 0.952800 0.959800
C301 C 0.926200 1.766100 0.789610
H302 H 0.974600 1.882400 0.806000
H303 H 0.942300 1.795000 0.759800
H304 H 0.799000 1.750300 0.795700
O305 O 0.518840 0.574910 0.699550
C306 C 0.506670 0.505600 0.658180
C307 C 0.420920 0.614500 0.625800
H308 H 0.365900 0.745700 0.631000
C309 C 0.417890 0.526000 0.585470
H310 H 0.361400 0.601200 0.563600
C311 C 0.495780 0.329300 0.576230
C312 C 0.584650 0.224800 0.609630
H313 H 0.641100 0.094400 0.604600
C314 C 0.590020 0.311600 0.649800
H315 H 0.650100 0.239500 0.671600
C316 C 0.474060 0.238000 0.533820
H317 H 0.423100 0.327100 0.513300
C318 C 0.518630 0.041600 0.520860
H319 H 0.577700 -0.047200 0.540200
C320 C 0.426200 0.766100 0.710390
H321 H 0.474600 0.882400 0.694000
H322 H 0.442300 0.795000 0.740200
H323 H 0.299000 0.750300 0.704300
O324 O 0.481160 -0.574910 0.300450
C325 C 0.493330 -0.505600 0.341820
C326 C 0.579080 -0.614500 0.374200
H327 H 0.634100 -0.745700 0.369000
C328 C 0.582110 -0.526000 0.414530
H329 H 0.638600 -0.601200 0.436400
C330 C 0.504220 -0.329300 0.423770
C331 C 0.415350 -0.224800 0.390370
H332 H 0.358900 -0.094400 0.395400
C333 C 0.409980 -0.311600 0.350200
H334 H 0.349900 -0.239500 0.328400
C335 C 0.525940 -0.238000 0.466180
H336 H 0.576900 -0.327100 0.486700
C337 C 0.481370 -0.041600 0.479140
H338 H 0.422300 0.047200 0.459800
C339 C 0.573800 -0.766100 0.289610
H340 H 0.525400 -0.882400 0.306000
H341 H 0.557700 -0.795000 0.259800
H342 H 0.701000 -0.750300 0.295700
O343 O 0.518840 1.574910 0.699550
C344 C 0.506670 1.505600 0.658180
C345 C 0.420920 1.614500 0.625800
H346 H 0.365900 1.745700 0.631000
C347 C 0.417890 1.526000 0.585470
H348 H 0.361400 1.601200 0.563600
C349 C 0.495780 1.329300 0.576230
C350 C 0.584650 1.224800 0.609630
H351 H 0.641100 1.094400 0.604600
C352 C 0.590020 1.311600 0.649800
H353 H 0.650100 1.239500 0.671600
C354 C 0.474060 1.238000 0.533820
H355 H 0.423100 1.327100 0.513300
C356 C 0.518630 1.041600 0.520860
H357 H 0.577700 0.952800 0.540200
C358 C 0.426200 1.766100 0.710390
H359 H 0.474600 1.882400 0.694000
H360 H 0.442300 1.795000 0.740200
H361 H 0.299000 1.750300 0.704300
O362 O 0.481160 0.425090 0.300450
C363 C 0.493330 0.494400 0.341820
C364 C 0.579080 0.385500 0.374200
H365 H 0.634100 0.254300 0.369000
C366 C 0.582110 0.474000 0.414530
H367 H 0.638600 0.398800 0.436400
C368 C 0.504220 0.670700 0.423770
C369 C 0.415350 0.775200 0.390370
H370 H 0.358900 0.905600 0.395400
C371 C 0.409980 0.688400 0.350200
H372 H 0.349900 0.760500 0.328400
C373 C 0.525940 0.762000 0.466180
H374 H 0.576900 0.672900 0.486700
C375 C 0.481370 0.958400 0.479140
H376 H 0.422300 1.047200 0.459800
C377 C 0.573800 0.233900 0.289610
H378 H 0.525400 0.117600 0.306000
H379 H 0.557700 0.205000 0.259800
H380 H 0.701000 0.249700 0.295700
O381 O 0.018840 -0.074910 0.300450
C382 C 0.006670 -0.005600 0.341820
C383 C -0.079080 -0.114500 0.374200
H384 H -0.134100 -0.245700 0.369000
C385 C -0.082110 -0.026000 0.414530
H386 H -0.138600 -0.101200 0.436400
C387 C -0.004220 0.170700 0.423770
C388 C 0.084650 0.275200 0.390370
H389 H 0.141100 0.405600 0.395400
C390 C 0.090020 0.188400 0.350200
H391 H 0.150100 0.260500 0.328400
C392 C -0.025940 0.262000 0.466180
H393 H -0.076900 0.172900 0.486700
C394 C 0.018630 0.458400 0.479140
H395 H 0.077700 0.547200 0.459800
C396 C -0.073800 -0.266100 0.289610
H397 H -0.025400 -0.382400 0.306000
H398 H -0.057700 -0.295000 0.259800
H399 H -0.201000 -0.250300 0.295700
O400 O -0.018840 1.074910 0.699550
C401 C -0.006670 1.005600 0.658180
C402 C 0.079080 1.114500 0.625800
H403 H 0.134100 1.245700 0.631000
C404 C 0.082110 1.026000 0.585470
H405 H 0.138600 1.101200 0.563600
C406 C 0.004220 0.829300 0.576230
C407 C -0.084650 0.724800 0.609630
H408 H -0.141100 0.594400 0.604600
C409 C -0.090020 0.811600 0.649800
H410 H -0.150100 0.739500 0.671600
C411 C 0.025940 0.738000 0.533820
H412 H 0.076900 0.827100 0.513300
C413 C -0.018630 0.541600 0.520860
H414 H -0.077700 0.452800 0.540200
C415 C 0.073800 1.266100 0.710390
H416 H 0.025400 1.382400 0.694000
H417 H 0.057700 1.295000 0.740200
H418 H 0.201000 1.250300 0.704300
O419 O 1.018840 -0.074910 0.300450
C420 C 1.006670 -0.005600 0.341820
C421 C 0.920920 -0.114500 0.374200
H422 H 0.865900 -0.245700 0.369000
C423 C 0.917890 -0.026000 0.414530
H424 H 0.861400 -0.101200 0.436400
C425 C 0.995780 0.170700 0.423770
C426 C 1.084650 0.275200 0.390370
H427 H 1.141100 0.405600 0.395400
C428 C 1.090020 0.188400 0.350200
H429 H 1.150100 0.260500 0.328400
C430 C 0.974060 0.262000 0.466180
H431 H 0.923100 0.172900 0.486700
C432 C 1.018630 0.458400 0.479140
H433 H 1.077700 0.547200 0.459800
C434 C 0.926200 -0.266100 0.289610
H435 H 0.974600 -0.382400 0.306000
H436 H 0.942300 -0.295000 0.259800
H437 H 0.799000 -0.250300 0.295700
O438 O 0.981160 1.074910 0.699550
C439 C 0.993330 1.005600 0.658180
C440 C 1.079080 1.114500 0.625800
H441 H 1.134100 1.245700 0.631000
C442 C 1.082110 1.026000 0.585470
H443 H 1.138600 1.101200 0.563600
C444 C 1.004220 0.829300 0.576230
C445 C 0.915350 0.724800 0.609630
H446 H 0.858900 0.594400 0.604600
C447 C 0.909980 0.811600 0.649800
H448 H 0.849900 0.739500 0.671600
C449 C 1.025940 0.738000 0.533820
H450 H 1.076900 0.827100 0.513300
C451 C 0.981370 0.541600 0.520860
H452 H 0.922300 0.452800 0.540200
C453 C 1.073800 1.266100 0.710390
H454 H 1.025400 1.382400 0.694000
H455 H 1.057700 1.295000 0.740200
H456 H 1.201000 1.250300 0.704300
O457 O 0.481160 1.074910 -0.199550
C458 C 0.493330 1.005600 -0.158180
C459 C 0.579080 1.114500 -0.125800
H460 H 0.634100 1.245700 -0.131000
C461 C 0.582110 1.026000 -0.085470
H462 H 0.638600 1.101200 -0.063600
C463 C 0.504220 0.829300 -0.076230
C464 C 0.415350 0.724800 -0.109630
H465 H 0.358900 0.594400 -0.104600
C466 C 0.409980 0.811600 -0.149800
H467 H 0.349900 0.739500 -0.171600
C468 C 0.525940 0.738000 -0.033820
H469 H 0.576900 0.827100 -0.013300
C470 C 0.481370 0.541600 -0.020860
H471 H 0.422300 0.452800 -0.040200
C472 C 0.573800 1.266100 -0.210390
H473 H 0.525400 1.382400 -0.194000
H474 H 0.557700 1.295000 -0.240200
H475 H 0.701000 1.250300 -0.204300
O476 O 0.518840 -0.074910 0.199550
C477 C 0.506670 -0.005600 0.158180
C478 C 0.420920 -0.114500 0.125800
H479 H 0.365900 -0.245700 0.131000
C480 C 0.417890 -0.026000 0.085470
H481 H 0.361400 -0.101200 0.063600
C482 C 0.495780 0.170700 0.076230
C483 C 0.584650 0.275200 0.109630
H484 H 0.641100 0.405600 0.104600
C485 C 0.590020 0.188400 0.149800
H486 H 0.650100 0.260500 0.171600
C487 C 0.474060 0.262000 0.033820
H488 H 0.423100 0.172900 0.013300
C489 C 0.518630 0.458400 0.020860
H490 H 0.577700 0.547200 0.040200
C491 C 0.426200 -0.266100 0.210390
H492 H 0.474600 -0.382400 0.194000
H493 H 0.442300 -0.295000 0.240200
H494 H 0.299000 -0.250300 0.204300
O495 O 0.481160 1.074910 0.800450
C496 C 0.493330 1.005600 0.841820
C497 C 0.579080 1.114500 0.874200
H498 H 0.634100 1.245700 0.869000
C499 C 0.582110 1.026000 0.914530
H500 H 0.638600 1.101200 0.936400
C501 C 0.504220 0.829300 0.923770
C502 C 0.415350 0.724800 0.890370
H503 H 0.358900 0.594400 0.895400
C504 C 0.409980 0.811600 0.850200
H505 H 0.349900 0.739500 0.828400
C506 C 0.525940 0.738000 0.966180
H507 H 0.576900 0.827100 0.986700
C508 C 0.481370 0.541600 0.979140
H509 H 0.422300 0.452800 0.959800
C510 C 0.573800 1.266100 0.789610
H511 H 0.525400 1.382400 0.806000
H512 H 0.557700 1.295000 0.759800
H513 H 0.701000 1.250300 0.795700
O514 O 0.518840 -0.074910 1.199550
C515 C 0.506670 -0.005600 1.158180
C516 C 0.420920 -0.114500 1.125800
H517 H 0.365900 -0.245700 1.131000
C518 C 0.417890 -0.026000 1.085470
H519 H 0.361400 -0.101200 1.063600
C520 C 0.495780 0.170700 1.076230
C521 C 0.584650 0.275200 1.109630
H522 H 0.641100 0.405600 1.104600
C523 C 0.590020 0.188400 1.149800
H524 H 0.650100 0.260500 1.171600
C525 C 0.474060 0.262000 1.033820
H526 H 0.423100 0.172900 1.013300
C527 C 0.518630 0.458400 1.020860
H528 H 0.577700 0.547200 1.040200
C529 C 0.426200 -0.266100 1.210390
H530 H 0.474600 -0.382400 1.194000
H531 H 0.442300 -0.295000 1.240200
H532 H 0.299000 -0.250300 1.204300

#END
