
#######################################################################
#
#                 Cambridge Crystallographic Data Centre
#                                CCDC 
#
#######################################################################
#
# If this CIF has been generated from an entry in the Cambridge 
# Structural Database, then it will include bibliographic, chemical, 
# crystal, experimental, refinement or atomic coordinate data resulting 
# from the CCDC's data processing and validation procedures.
#
#######################################################################

data_KABLOQ
_symmetry_cell_setting           monoclinic
_symmetry_space_group_name_H-M   'P 21/c'
_symmetry_Int_Tables_number      14
_space_group_name_Hall           '-P 2ybc'
loop_
_symmetry_equiv_pos_site_id
_symmetry_equiv_pos_as_xyz
1 x,y,z
2 -x,1/2+y,1/2-z
3 -x,-y,-z
4 x,1/2-y,1/2+z
_cell_length_a                   8.4899(17)
_cell_length_b                   13.467(3)
_cell_length_c                   10.015(2)
_cell_angle_alpha                90
_cell_angle_beta                 96.04(3)
_cell_angle_gamma                90
_cell_volume                     1138.69
loop_
_atom_site_label
_atom_site_type_symbol
_atom_site_fract_x
_atom_site_fract_y
_atom_site_fract_z
S1 S 0.28967(7) 0.39580(4) -0.07292(4)
N1 N 0.25491(17) 0.29999(11) 0.15603(14)
H1 H 0.2916 0.2862 0.2372
N2 N 0.46620(17) 0.40411(10) 0.15771(13)
H2 H 0.5279 0.4416 0.1171
N3 N 0.50010(15) 0.38467(9) 0.29257(13)
C1 C 0.61893(18) 0.43036(12) 0.35133(16)
H3 H 0.6768 0.4724 0.3014
C2 C 0.3357(2) 0.36416(12) 0.08914(15)
C3 C 0.66728(17) 0.41886(11) 0.49435(16)
C4 C 0.5847(2) 0.35906(13) 0.57650(17)
H4 H 0.4966 0.3235 0.5399
C5 C 0.7983(2) 0.47106(14) 0.55174(19)
H5 H 0.8542 0.5117 0.4983
C6 C 0.6330(3) 0.35251(16) 0.71139(19)
H6 H 0.5773 0.3125 0.7658
C7 C 0.8465(2) 0.46324(17) 0.6869(2)
H7 H 0.9356 0.4977 0.7238
C8 C 0.7637(3) 0.40488(16) 0.7670(2)
H8 H 0.7953 0.4005 0.8586
C9 C -0.0363(3) 0.3091(2) 0.1253(3)
H9 H -0.1290 0.2740 0.0876
H10 H -0.0324 0.3729 0.0832
H11 H -0.0405 0.3176 0.2200
C10 C 0.1083(3) 0.25096(16) 0.1020(2)
H12 H 0.1027 0.1862 0.1435
H13 H 0.1102 0.2410 0.0063
S1 S 0.71033(7) 0.89580(4) 0.57292(4)
N1 N 0.74509(17) 0.79999(11) 0.34397(14)
H1 H 0.7084 0.7862 0.2628
N2 N 0.53380(17) 0.90411(10) 0.34229(13)
H2 H 0.4721 0.9416 0.3829
N3 N 0.49990(15) 0.88467(9) 0.20743(13)
C1 C 0.38107(18) 0.93036(12) 0.14867(16)
H3 H 0.3232 0.9724 0.1986
C2 C 0.6643(2) 0.86416(12) 0.41086(15)
C3 C 0.33272(17) 0.91886(11) 0.00565(16)
C4 C 0.4153(2) 0.85906(13) -0.07650(17)
H4 H 0.5034 0.8235 -0.0399
C5 C 0.2017(2) 0.97106(14) -0.05174(19)
H5 H 0.1458 1.0117 0.0017
C6 C 0.3670(3) 0.85251(16) -0.21139(19)
H6 H 0.4227 0.8125 -0.2658
C7 C 0.1535(2) 0.96324(17) -0.1869(2)
H7 H 0.0644 0.9977 -0.2238
C8 C 0.2363(3) 0.90488(16) -0.2670(2)
H8 H 0.2047 0.9005 -0.3586
C9 C 1.0363(3) 0.8091(2) 0.3747(3)
H9 H 1.1290 0.7740 0.4124
H10 H 1.0324 0.8729 0.4168
H11 H 1.0405 0.8176 0.2800
C10 C 0.8917(3) 0.75096(16) 0.3980(2)
H12 H 0.8973 0.6862 0.3565
H13 H 0.8898 0.7410 0.4937
S1 S 0.71033(7) 0.60420(4) 1.07292(4)
N1 N 0.74509(17) 0.70001(11) 0.84397(14)
H1 H 0.7084 0.7138 0.7628
N2 N 0.53380(17) 0.59589(10) 0.84229(13)
H2 H 0.4721 0.5584 0.8829
N3 N 0.49990(15) 0.61533(9) 0.70743(13)
C1 C 0.38107(18) 0.56964(12) 0.64867(16)
H3 H 0.3232 0.5276 0.6986
C2 C 0.6643(2) 0.63584(12) 0.91086(15)
C3 C 0.33272(17) 0.58114(11) 0.50565(16)
C4 C 0.4153(2) 0.64094(13) 0.42350(17)
H4 H 0.5034 0.6765 0.4601
C5 C 0.2017(2) 0.52894(14) 0.44826(19)
H5 H 0.1458 0.4883 0.5017
C6 C 0.3670(3) 0.64749(16) 0.28861(19)
H6 H 0.4227 0.6875 0.2342
C7 C 0.1535(2) 0.53676(17) 0.3131(2)
H7 H 0.0644 0.5023 0.2762
C8 C 0.2363(3) 0.59512(16) 0.2330(2)
H8 H 0.2047 0.5995 0.1414
C9 C 1.0363(3) 0.6909(2) 0.8747(3)
H9 H 1.1290 0.7260 0.9124
H10 H 1.0324 0.6271 0.9168
H11 H 1.0405 0.6824 0.7800
C10 C 0.8917(3) 0.74904(16) 0.8980(2)
H12 H 0.8973 0.8138 0.8565
H13 H 0.8898 0.7590 0.9937
S1 S 0.28967(7) 0.10420(4) 0.42708(4)
N1 N 0.25491(17) 0.20001(11) 0.65603(14)
H1 H 0.2916 0.2138 0.7372
N2 N 0.46620(17) 0.09589(10) 0.65771(13)
H2 H 0.5279 0.0584 0.6171
N3 N 0.50010(15) 0.11533(9) 0.79257(13)
C1 C 0.61893(18) 0.06964(12) 0.85133(16)
H3 H 0.6768 0.0276 0.8014
C2 C 0.3357(2) 0.13584(12) 0.58914(15)
C3 C 0.66728(17) 0.08114(11) 0.99435(16)
C4 C 0.5847(2) 0.14094(13) 1.07650(17)
H4 H 0.4966 0.1765 1.0399
C5 C 0.7983(2) 0.02894(14) 1.05174(19)
H5 H 0.8542 -0.0117 0.9983
C6 C 0.6330(3) 0.14749(16) 1.21139(19)
H6 H 0.5773 0.1875 1.2658
C7 C 0.8465(2) 0.03676(17) 1.1869(2)
H7 H 0.9356 0.0023 1.2238
C8 C 0.7637(3) 0.09512(16) 1.2670(2)
H8 H 0.7953 0.0995 1.3586
C9 C -0.0363(3) 0.1909(2) 0.6253(3)
H9 H -0.1290 0.2260 0.5876
H10 H -0.0324 0.1271 0.5832
H11 H -0.0405 0.1824 0.7200
C10 C 0.1083(3) 0.24904(16) 0.6020(2)
H12 H 0.1027 0.3138 0.6435
H13 H 0.1102 0.2590 0.5063

#END
