
#######################################################################
#
#                 Cambridge Crystallographic Data Centre
#                                CCDC 
#
#######################################################################
#
# If this CIF has been generated from an entry in the Cambridge 
# Structural Database, then it will include bibliographic, chemical, 
# crystal, experimental, refinement or atomic coordinate data resulting 
# from the CCDC's data processing and validation procedures.
#
#######################################################################

data_KABMIM
_symmetry_cell_setting           triclinic
_symmetry_space_group_name_H-M   'P -1'
_symmetry_Int_Tables_number      2
_space_group_name_Hall           '-P 1'
loop_
_symmetry_equiv_pos_site_id
_symmetry_equiv_pos_as_xyz
1 x,y,z
2 -x,-y,-z
_cell_length_a                   7.458(3)
_cell_length_b                   7.768(3)
_cell_length_c                   11.222(4)
_cell_angle_alpha                85.394(5)
_cell_angle_beta                 79.969(5)
_cell_angle_gamma                70.829(5)
_cell_volume                     604.504
loop_
_atom_site_label
_atom_site_type_symbol
_atom_site_fract_x
_atom_site_fract_y
_atom_site_fract_z
C1 C 0.1989(3) 0.8021(3) 0.18109(19)
H1 H 0.1393 0.8947 0.1293
C2 C 0.2563(3) 0.6253(3) 0.1485(2)
C3 C 0.2170(4) 0.5754(4) 0.0319(2)
H2 H 0.1413 0.6829 -0.0068
H3 H 0.1480 0.4891 0.0479
H4 H 0.3364 0.5223 -0.0202
C4 C 0.3480(3) 0.4902(3) 0.2278(2)
H5 H 0.3892 0.3690 0.2054
C5 C 0.3790(3) 0.5300(3) 0.3366(2)
H6 H 0.4415 0.4381 0.3877
C6 C 0.3154(3) 0.7109(3) 0.36964(19)
C7 C 0.2474(3) 0.9620(3) 0.45986(18)
C8 C 0.1839(3) 1.0084(3) 0.34735(18)
C9 C 0.2380(3) 1.0810(3) 0.55748(18)
C10 C 0.1763(3) 1.2693(3) 0.5452(2)
H7 H 0.1351 1.3246 0.4738
C11 C 0.1756(3) 1.3752(3) 0.6379(2)
H8 H 0.1345 1.5015 0.6283
C12 C 0.2348(3) 1.2968(3) 0.7439(2)
H9 H 0.2346 1.3686 0.8064
C13 C 0.2942(3) 1.1108(3) 0.7565(2)
C14 C 0.2961(3) 1.0028(3) 0.66463(19)
H10 H 0.3368 0.8767 0.6750
Cl1 Cl 0.36735(12) 1.01084(10) 0.89064(6)
N1 N 0.0969(3) 1.1765(2) 0.30518(18)
N2 N 0.2294(2) 0.8429(2) 0.29056(14)
N3 N 0.3263(2) 0.7824(2) 0.47256(15)
O1 O 0.0490(3) 1.1891(2) 0.20269(16)
C1 C 0.8011(3) 0.1979(3) 0.81891(19)
H1 H 0.8607 0.1053 0.8707
C2 C 0.7437(3) 0.3747(3) 0.8515(2)
C3 C 0.7830(4) 0.4246(4) 0.9681(2)
H2 H 0.8587 0.3171 1.0068
H3 H 0.8520 0.5109 0.9521
H4 H 0.6636 0.4777 1.0202
C4 C 0.6520(3) 0.5098(3) 0.7722(2)
H5 H 0.6108 0.6310 0.7946
C5 C 0.6210(3) 0.4700(3) 0.6634(2)
H6 H 0.5585 0.5619 0.6123
C6 C 0.6846(3) 0.2891(3) 0.63036(19)
C7 C 0.7526(3) 0.0380(3) 0.54014(18)
C8 C 0.8161(3) -0.0084(3) 0.65265(18)
C9 C 0.7620(3) -0.0810(3) 0.44252(18)
C10 C 0.8237(3) -0.2693(3) 0.4548(2)
H7 H 0.8649 -0.3246 0.5262
C11 C 0.8244(3) -0.3752(3) 0.3621(2)
H8 H 0.8655 -0.5015 0.3717
C12 C 0.7652(3) -0.2968(3) 0.2561(2)
H9 H 0.7654 -0.3686 0.1936
C13 C 0.7058(3) -0.1108(3) 0.2435(2)
C14 C 0.7039(3) -0.0028(3) 0.33537(19)
H10 H 0.6632 0.1233 0.3250
Cl1 Cl 0.63265(12) -0.01084(10) 0.10936(6)
N1 N 0.9031(3) -0.1765(2) 0.69482(18)
N2 N 0.7706(2) 0.1571(2) 0.70944(14)
N3 N 0.6737(2) 0.2176(2) 0.52744(15)
O1 O 0.9510(3) -0.1891(2) 0.79731(16)

#END
