./KABPUA_from_xyz.cif_generated_by_CrystalShift
_symmetry_cell_setting triclinic
_symmetry_space_group_name_H-M 'P 1'
loop_
_symmetry_equiv_pos_site_id
_symmetry_equiv_pos_as_xyz
1 x,y,z
_cell_length_a 10.865000
_cell_length_b 14.001000
_cell_length_c 14.302100
_cell_angle_alpha 90.000000
_cell_angle_beta 94.697000
_cell_angle_gamma 90.000000
_cell_volume 2168.341306
loop_
_atom_site_label
_atom_site_type_symbol
_atom_site_fract_x
_atom_site_fract_y
_atom_site_fract_z
C1 C 0.595500 1.028030 0.727700
H2 H 0.582900 1.087300 0.691800
C3 C 0.675100 1.048960 0.813200
N4 N 0.739000 1.063100 0.878300
C5 C 0.470900 0.992800 0.753710
N6 N 0.390300 1.061060 0.766260
H7 H 0.318000 1.046800 0.782500
H8 H 0.409900 1.119800 0.758200
C9 C 0.448600 0.896890 0.764880
C10 C 0.326400 0.864410 0.792920
C11 C 0.282600 0.893200 0.876200
H12 H 0.331400 0.931900 0.917000
C13 C 0.166800 0.865200 0.900000
H14 H 0.137800 0.886100 0.955900
C15 C 0.096000 0.807500 0.842000
H16 H 0.017700 0.789500 0.857300
C17 C 0.140000 0.775500 0.760300
H18 H 0.092500 0.734200 0.721400
C19 C 0.253800 0.804220 0.735800
H20 H 0.282100 0.782700 0.680000
C21 C 0.541100 0.827580 0.749850
O22 O 0.525480 0.742400 0.768980
C23 C 0.663500 0.855690 0.712590
H24 H 0.725000 0.858900 0.766500
C25 C 0.705800 0.779230 0.647290
C26 C 0.635600 0.756300 0.565970
H27 H 0.562400 0.789100 0.550100
C28 C 0.672900 0.684900 0.507300
H29 H 0.624100 0.669500 0.452900
C30 C 0.780400 0.637100 0.528900
H31 H 0.805500 0.589600 0.489100
C32 C 0.850700 0.659000 0.608400
H33 H 0.924400 0.626500 0.623300
C34 C 0.813600 0.729270 0.667600
H35 H 0.862400 0.743100 0.722400
C36 C 0.658500 0.954670 0.666410
H37 H 0.605800 0.948600 0.607800
C38 C 0.781200 0.994080 0.640690
C39 C 0.891400 0.973720 0.691600
H40 H 0.890900 0.931100 0.741400
C41 C 1.001900 1.013630 0.672000
H42 H 1.074400 0.998000 0.707800
C43 C 1.003900 1.076530 0.599200
C44 C 0.897200 1.098520 0.544920
H45 H 0.898800 1.140700 0.494800
C46 C 0.787900 1.056820 0.566300
Cl47 Cl 1.140750 1.131270 0.574870
Cl48 Cl 0.656480 1.087290 0.496200
C49 C 0.404500 0.528030 0.772300
H50 H 0.417100 0.587300 0.808200
C51 C 0.324900 0.548960 0.686800
N52 N 0.261000 0.563100 0.621700
C53 C 0.529100 0.492800 0.746290
N54 N 0.609700 0.561060 0.733740
H55 H 0.682000 0.546800 0.717500
H56 H 0.590100 0.619800 0.741800
C57 C 0.551400 0.396890 0.735120
C58 C 0.673600 0.364410 0.707080
C59 C 0.717400 0.393200 0.623800
H60 H 0.668600 0.431900 0.583000
C61 C 0.833200 0.365200 0.600000
H62 H 0.862200 0.386100 0.544100
C63 C 0.904000 0.307500 0.658000
H64 H 0.982300 0.289500 0.642700
C65 C 0.860000 0.275500 0.739700
H66 H 0.907500 0.234200 0.778600
C67 C 0.746200 0.304220 0.764200
H68 H 0.717900 0.282700 0.820000
C69 C 0.458900 0.327580 0.750150
O70 O 0.474520 0.242400 0.731020
C71 C 0.336500 0.355690 0.787410
H72 H 0.275000 0.358900 0.733500
C73 C 0.294200 0.279230 0.852710
C74 C 0.364400 0.256300 0.934030
H75 H 0.437600 0.289100 0.949900
C76 C 0.327100 0.184900 0.992700
H77 H 0.375900 0.169500 1.047100
C78 C 0.219600 0.137100 0.971100
H79 H 0.194500 0.089600 1.010900
C80 C 0.149300 0.159000 0.891600
H81 H 0.075600 0.126500 0.876700
C82 C 0.186400 0.229270 0.832400
H83 H 0.137600 0.243100 0.777600
C84 C 0.341500 0.454670 0.833590
H85 H 0.394200 0.448600 0.892200
C86 C 0.218800 0.494080 0.859310
C87 C 0.108600 0.473720 0.808400
H88 H 0.109100 0.431100 0.758600
C89 C -0.001900 0.513630 0.828000
H90 H -0.074400 0.498000 0.792200
C91 C -0.003900 0.576530 0.900800
C92 C 0.102800 0.598520 0.955080
H93 H 0.101200 0.640700 1.005200
C94 C 0.212100 0.556820 0.933700
Cl95 Cl -0.140750 0.631270 0.925130
Cl96 Cl 0.343520 0.587290 1.003800
C97 C 0.404500 -0.028030 0.272300
H98 H 0.417100 -0.087300 0.308200
C99 C 0.324900 -0.048960 0.186800
N100 N 0.261000 -0.063100 0.121700
C101 C 0.529100 0.007200 0.246290
N102 N 0.609700 -0.061060 0.233740
H103 H 0.682000 -0.046800 0.217500
H104 H 0.590100 -0.119800 0.241800
C105 C 0.551400 0.103110 0.235120
C106 C 0.673600 0.135590 0.207080
C107 C 0.717400 0.106800 0.123800
H108 H 0.668600 0.068100 0.083000
C109 C 0.833200 0.134800 0.100000
H110 H 0.862200 0.113900 0.044100
C111 C 0.904000 0.192500 0.158000
H112 H 0.982300 0.210500 0.142700
C113 C 0.860000 0.224500 0.239700
H114 H 0.907500 0.265800 0.278600
C115 C 0.746200 0.195780 0.264200
H116 H 0.717900 0.217300 0.320000
C117 C 0.458900 0.172420 0.250150
O118 O 0.474520 0.257600 0.231020
C119 C 0.336500 0.144310 0.287410
H120 H 0.275000 0.141100 0.233500
C121 C 0.294200 0.220770 0.352710
C122 C 0.364400 0.243700 0.434030
H123 H 0.437600 0.210900 0.449900
C124 C 0.327100 0.315100 0.492700
H125 H 0.375900 0.330500 0.547100
C126 C 0.219600 0.362900 0.471100
H127 H 0.194500 0.410400 0.510900
C128 C 0.149300 0.341000 0.391600
H129 H 0.075600 0.373500 0.376700
C130 C 0.186400 0.270730 0.332400
H131 H 0.137600 0.256900 0.277600
C132 C 0.341500 0.045330 0.333590
H133 H 0.394200 0.051400 0.392200
C134 C 0.218800 0.005920 0.359310
C135 C 0.108600 0.026280 0.308400
H136 H 0.109100 0.068900 0.258600
C137 C -0.001900 -0.013630 0.328000
H138 H -0.074400 0.002000 0.292200
C139 C -0.003900 -0.076530 0.400800
C140 C 0.102800 -0.098520 0.455080
H141 H 0.101200 -0.140700 0.505200
C142 C 0.212100 -0.056820 0.433700
Cl143 Cl -0.140750 -0.131270 0.425130
Cl144 Cl 0.343520 -0.087290 0.503800
C145 C 0.595500 0.471970 0.227700
H146 H 0.582900 0.412700 0.191800
C147 C 0.675100 0.451040 0.313200
N148 N 0.739000 0.436900 0.378300
C149 C 0.470900 0.507200 0.253710
N150 N 0.390300 0.438940 0.266260
H151 H 0.318000 0.453200 0.282500
H152 H 0.409900 0.380200 0.258200
C153 C 0.448600 0.603110 0.264880
C154 C 0.326400 0.635590 0.292920
C155 C 0.282600 0.606800 0.376200
H156 H 0.331400 0.568100 0.417000
C157 C 0.166800 0.634800 0.400000
H158 H 0.137800 0.613900 0.455900
C159 C 0.096000 0.692500 0.342000
H160 H 0.017700 0.710500 0.357300
C161 C 0.140000 0.724500 0.260300
H162 H 0.092500 0.765800 0.221400
C163 C 0.253800 0.695780 0.235800
H164 H 0.282100 0.717300 0.180000
C165 C 0.541100 0.672420 0.249850
O166 O 0.525480 0.757600 0.268980
C167 C 0.663500 0.644310 0.212590
H168 H 0.725000 0.641100 0.266500
C169 C 0.705800 0.720770 0.147290
C170 C 0.635600 0.743700 0.065970
H171 H 0.562400 0.710900 0.050100
C172 C 0.672900 0.815100 0.007300
H173 H 0.624100 0.830500 -0.047100
C174 C 0.780400 0.862900 0.028900
H175 H 0.805500 0.910400 -0.010900
C176 C 0.850700 0.841000 0.108400
H177 H 0.924400 0.873500 0.123300
C178 C 0.813600 0.770730 0.167600
H179 H 0.862400 0.756900 0.222400
C180 C 0.658500 0.545330 0.166410
H181 H 0.605800 0.551400 0.107800
C182 C 0.781200 0.505920 0.140690
C183 C 0.891400 0.526280 0.191600
H184 H 0.890900 0.568900 0.241400
C185 C 1.001900 0.486370 0.172000
H186 H 1.074400 0.502000 0.207800
C187 C 1.003900 0.423470 0.099200
C188 C 0.897200 0.401480 0.044920
H189 H 0.898800 0.359300 -0.005200
C190 C 0.787900 0.443180 0.066300
Cl191 Cl 1.140750 0.368730 0.074870
Cl192 Cl 0.656480 0.412710 -0.003800

#END
