./KABPAG_from_xyz.cif_generated_by_CrystalShift
_symmetry_cell_setting triclinic
_symmetry_space_group_name_H-M 'P 1'
loop_
_symmetry_equiv_pos_site_id
_symmetry_equiv_pos_as_xyz
1 x,y,z
_cell_length_a 15.356000
_cell_length_b 14.035000
_cell_length_c 6.112400
_cell_angle_alpha 90.000000
_cell_angle_beta 95.244000
_cell_angle_gamma 90.000000
_cell_volume 1311.839687
loop_
_atom_site_label
_atom_site_type_symbol
_atom_site_fract_x
_atom_site_fract_y
_atom_site_fract_z
Cl1 Cl 0.263670 0.341040 0.206400
N2 N 0.668500 0.363500 0.103600
O3 O 0.575200 0.408600 -0.256900
N4 N 0.995800 0.434400 0.800200
O5 O 1.077700 0.434100 0.920500
C6 C 0.504600 0.391200 -0.147000
C7 C 0.422200 0.409500 -0.248400
H8 H 0.416400 0.433300 -0.391000
C9 C 0.348500 0.393000 -0.141800
H10 H 0.293300 0.405100 -0.212400
C11 C 0.356600 0.358900 0.067800
C12 C 0.437800 0.340700 0.175800
H13 H 0.442400 0.317800 0.319200
C14 C 0.513100 0.356900 0.068700
C15 C 0.597400 0.347100 0.192100
H16 H 0.600200 0.328500 0.338600
C17 C 0.748500 0.367700 0.239100
C18 C 0.823400 0.337200 0.153100
H19 H 0.820600 0.312400 0.011600
C20 C 0.903000 0.343800 0.278700
H21 H 0.953100 0.321900 0.220100
C22 C 0.910400 0.381300 0.484800
C23 C 0.833800 0.415100 0.567000
H24 H 0.836800 0.442700 0.705800
C25 C 0.754600 0.407900 0.445400
H26 H 0.704400 0.430400 0.502700
C27 C 0.995600 0.388000 0.619600
C28 C 1.074800 0.341700 0.542600
H29 H 1.121600 0.343600 0.658000
H30 H 1.092100 0.375200 0.416500
H31 H 1.061600 0.276700 0.503700
H32 H 0.619000 0.395000 -0.166000
H33 H 1.076000 0.471000 1.031000
Cl34 Cl 0.736330 0.841040 0.293600
N35 N 0.331500 0.863500 0.396400
O36 O 0.424800 0.908600 0.756900
N37 N 0.004200 0.934400 -0.300200
O38 O -0.077700 0.934100 -0.420500
C39 C 0.495400 0.891200 0.647000
C40 C 0.577800 0.909500 0.748400
H41 H 0.583600 0.933300 0.891000
C42 C 0.651500 0.893000 0.641800
H43 H 0.706700 0.905100 0.712400
C44 C 0.643400 0.858900 0.432200
C45 C 0.562200 0.840700 0.324200
H46 H 0.557600 0.817800 0.180800
C47 C 0.486900 0.856900 0.431300
C48 C 0.402600 0.847100 0.307900
H49 H 0.399800 0.828500 0.161400
C50 C 0.251500 0.867700 0.260900
C51 C 0.176600 0.837200 0.346900
H52 H 0.179400 0.812400 0.488400
C53 C 0.097000 0.843800 0.221300
H54 H 0.046900 0.821900 0.279900
C55 C 0.089600 0.881300 0.015200
C56 C 0.166200 0.915100 -0.067000
H57 H 0.163200 0.942700 -0.205800
C58 C 0.245400 0.907900 0.054600
H59 H 0.295600 0.930400 -0.002700
C60 C 0.004400 0.888000 -0.119600
C61 C -0.074800 0.841700 -0.042600
H62 H -0.121600 0.843600 -0.158000
H63 H -0.092100 0.875200 0.083500
H64 H -0.061600 0.776700 -0.003700
H65 H 0.381000 0.895000 0.666000
H66 H -0.076000 0.971000 -0.531000
Cl67 Cl 0.736330 0.658960 0.793600
N68 N 0.331500 0.636500 0.896400
O69 O 0.424800 0.591400 1.256900
N70 N 0.004200 0.565600 0.199800
O71 O -0.077700 0.565900 0.079500
C72 C 0.495400 0.608800 1.147000
C73 C 0.577800 0.590500 1.248400
H74 H 0.583600 0.566700 1.391000
C75 C 0.651500 0.607000 1.141800
H76 H 0.706700 0.594900 1.212400
C77 C 0.643400 0.641100 0.932200
C78 C 0.562200 0.659300 0.824200
H79 H 0.557600 0.682200 0.680800
C80 C 0.486900 0.643100 0.931300
C81 C 0.402600 0.652900 0.807900
H82 H 0.399800 0.671500 0.661400
C83 C 0.251500 0.632300 0.760900
C84 C 0.176600 0.662800 0.846900
H85 H 0.179400 0.687600 0.988400
C86 C 0.097000 0.656200 0.721300
H87 H 0.046900 0.678100 0.779900
C88 C 0.089600 0.618700 0.515200
C89 C 0.166200 0.584900 0.433000
H90 H 0.163200 0.557300 0.294200
C91 C 0.245400 0.592100 0.554600
H92 H 0.295600 0.569600 0.497300
C93 C 0.004400 0.612000 0.380400
C94 C -0.074800 0.658300 0.457400
H95 H -0.121600 0.656400 0.342000
H96 H -0.092100 0.624800 0.583500
H97 H -0.061600 0.723300 0.496300
H98 H 0.381000 0.605000 1.166000
H99 H -0.076000 0.529000 -0.031000
Cl100 Cl 0.263670 0.158960 0.706400
N101 N 0.668500 0.136500 0.603600
O102 O 0.575200 0.091400 0.243100
N103 N 0.995800 0.065600 1.300200
O104 O 1.077700 0.065900 1.420500
C105 C 0.504600 0.108800 0.353000
C106 C 0.422200 0.090500 0.251600
H107 H 0.416400 0.066700 0.109000
C108 C 0.348500 0.107000 0.358200
H109 H 0.293300 0.094900 0.287600
C110 C 0.356600 0.141100 0.567800
C111 C 0.437800 0.159300 0.675800
H112 H 0.442400 0.182200 0.819200
C113 C 0.513100 0.143100 0.568700
C114 C 0.597400 0.152900 0.692100
H115 H 0.600200 0.171500 0.838600
C116 C 0.748500 0.132300 0.739100
C117 C 0.823400 0.162800 0.653100
H118 H 0.820600 0.187600 0.511600
C119 C 0.903000 0.156200 0.778700
H120 H 0.953100 0.178100 0.720100
C121 C 0.910400 0.118700 0.984800
C122 C 0.833800 0.084900 1.067000
H123 H 0.836800 0.057300 1.205800
C124 C 0.754600 0.092100 0.945400
H125 H 0.704400 0.069600 1.002700
C126 C 0.995600 0.112000 1.119600
C127 C 1.074800 0.158300 1.042600
H128 H 1.121600 0.156400 1.158000
H129 H 1.092100 0.124800 0.916500
H130 H 1.061600 0.223300 1.003700
H131 H 0.619000 0.105000 0.334000
H132 H 1.076000 0.029000 1.531000

#END
