./ABORUH_from_xyz.cif_generated_by_CrystalShift
_symmetry_cell_setting triclinic
_symmetry_space_group_name_H-M 'P 1'
loop_
_symmetry_equiv_pos_site_id
_symmetry_equiv_pos_as_xyz
1 x,y,z
_cell_length_a 10.099000
_cell_length_b 10.332300
_cell_length_c 11.538000
_cell_angle_alpha 88.849000
_cell_angle_beta 71.718000
_cell_angle_gamma 86.243000
_cell_volume 1140.715871
loop_
_atom_site_label
_atom_site_type_symbol
_atom_site_fract_x
_atom_site_fract_y
_atom_site_fract_z
Ti1 Ti -0.117160 0.505310 0.130700
Cl2 Cl -0.079390 0.488550 0.317020
F3 F -0.272720 0.778110 -0.039080
F4 F -0.144940 0.913940 0.006660
F5 F -0.367710 0.946520 0.068560
F6 F -0.258090 0.788580 0.365370
F7 F -0.104630 0.887940 0.227740
F8 F -0.318000 0.964790 0.286580
O9 O -0.303050 0.494030 0.187460
O10 O -0.148370 0.684960 0.121680
O11 O -0.079300 0.299220 0.115540
H12 H -0.023000 0.280000 0.055000
O13 O 0.089150 0.526090 0.044680
C14 C -0.419780 0.575550 0.229550
C15 C -0.407140 0.709910 0.217520
C16 C -0.527060 0.791840 0.262960
H17 H -0.519700 0.883000 0.254700
C18 C -0.656930 0.744170 0.319950
C19 C -0.665170 0.610330 0.330690
H20 H -0.753700 0.576900 0.369700
C21 C -0.548990 0.522550 0.286660
C22 C -0.265930 0.770600 0.163050
C23 C -0.265080 0.854200 0.050000
C24 C -0.236840 0.854290 0.262240
C25 C -0.782340 0.841510 0.372030
C26 C -0.752100 0.924490 0.468810
H27 H -0.734900 0.868000 0.532500
H28 H -0.832600 0.985200 0.505200
H29 H -0.669500 0.973200 0.430400
C30 C -0.802910 0.930060 0.270100
H31 H -0.821400 0.877600 0.207700
H32 H -0.718200 0.976500 0.233200
H33 H -0.882200 0.992700 0.304200
C34 C -0.917690 0.773840 0.431870
H35 H -0.937200 0.719300 0.371400
H36 H -0.995100 0.839200 0.462900
H37 H -0.907300 0.719800 0.499600
C38 C -0.561530 0.375530 0.307170
C39 C -0.714570 0.340910 0.360410
H40 H -0.757100 0.384200 0.439400
H41 H -0.718300 0.246800 0.371600
H42 H -0.765900 0.369600 0.304200
C43 C -0.485840 0.331040 0.399200
H44 H -0.534100 0.371400 0.478700
H45 H -0.389300 0.356900 0.370100
H46 H -0.485900 0.236500 0.407500
C47 C -0.498640 0.299400 0.186540
H48 H -0.519800 0.208100 0.200400
H49 H -0.397100 0.305900 0.157500
H50 H -0.539000 0.335900 0.125200
C51 C -0.088600 0.202100 0.208100
H52 H -0.084400 0.115900 0.172600
H53 H -0.177100 0.216600 0.274100
H54 H -0.010600 0.207400 0.240900
C55 C 0.192120 0.577100 0.089510
H56 H 0.280700 0.525400 0.057500
H57 H 0.160800 0.573500 0.178900
H58 H 0.205400 0.667300 0.062900
Ti59 Ti 0.117160 0.494690 -0.130700
Cl60 Cl 0.079390 0.511450 -0.317020
F61 F 0.272720 0.221890 0.039080
F62 F 0.144940 0.086060 -0.006660
F63 F 0.367710 0.053480 -0.068560
F64 F 0.258090 0.211420 -0.365370
F65 F 0.104630 0.112060 -0.227740
F66 F 0.318000 0.035210 -0.286580
O67 O 0.303050 0.505970 -0.187460
O68 O 0.148370 0.315040 -0.121680
O69 O 0.079300 0.700780 -0.115540
H70 H 0.023000 0.720000 -0.055000
O71 O -0.089150 0.473910 -0.044680
C72 C 0.419780 0.424450 -0.229550
C73 C 0.407140 0.290090 -0.217520
C74 C 0.527060 0.208160 -0.262960
H75 H 0.519700 0.117000 -0.254700
C76 C 0.656930 0.255830 -0.319950
C77 C 0.665170 0.389670 -0.330690
H78 H 0.753700 0.423100 -0.369700
C79 C 0.548990 0.477450 -0.286660
C80 C 0.265930 0.229400 -0.163050
C81 C 0.265080 0.145800 -0.050000
C82 C 0.236840 0.145710 -0.262240
C83 C 0.782340 0.158490 -0.372030
C84 C 0.752100 0.075510 -0.468810
H85 H 0.734900 0.132000 -0.532500
H86 H 0.832600 0.014800 -0.505200
H87 H 0.669500 0.026800 -0.430400
C88 C 0.802910 0.069940 -0.270100
H89 H 0.821400 0.122400 -0.207700
H90 H 0.718200 0.023500 -0.233200
H91 H 0.882200 0.007300 -0.304200
C92 C 0.917690 0.226160 -0.431870
H93 H 0.937200 0.280700 -0.371400
H94 H 0.995100 0.160800 -0.462900
H95 H 0.907300 0.280200 -0.499600
C96 C 0.561530 0.624470 -0.307170
C97 C 0.714570 0.659090 -0.360410
H98 H 0.757100 0.615800 -0.439400
H99 H 0.718300 0.753200 -0.371600
H100 H 0.765900 0.630400 -0.304200
C101 C 0.485840 0.668960 -0.399200
H102 H 0.534100 0.628600 -0.478700
H103 H 0.389300 0.643100 -0.370100
H104 H 0.485900 0.763500 -0.407500
C105 C 0.498640 0.700600 -0.186540
H106 H 0.519800 0.791900 -0.200400
H107 H 0.397100 0.694100 -0.157500
H108 H 0.539000 0.664100 -0.125200
C109 C 0.088600 0.797900 -0.208100
H110 H 0.084400 0.884100 -0.172600
H111 H 0.177100 0.783400 -0.274100
H112 H 0.010600 0.792600 -0.240900
C113 C -0.192120 0.422900 -0.089510
H114 H -0.280700 0.474600 -0.057500
H115 H -0.160800 0.426500 -0.178900
H116 H -0.205400 0.332700 -0.062900
Ti117 Ti -0.117160 0.505310 1.130700
Cl118 Cl -0.079390 0.488550 1.317020
F119 F -0.272720 0.778110 0.960920
F120 F -0.144940 0.913940 1.006660
F121 F -0.367710 0.946520 1.068560
F122 F -0.258090 0.788580 1.365370
F123 F -0.104630 0.887940 1.227740
F124 F -0.318000 0.964790 1.286580
O125 O -0.303050 0.494030 1.187460
O126 O -0.148370 0.684960 1.121680
O127 O -0.079300 0.299220 1.115540
H128 H -0.023000 0.280000 1.055000
O129 O 0.089150 0.526090 1.044680
C130 C -0.419780 0.575550 1.229550
C131 C -0.407140 0.709910 1.217520
C132 C -0.527060 0.791840 1.262960
H133 H -0.519700 0.883000 1.254700
C134 C -0.656930 0.744170 1.319950
C135 C -0.665170 0.610330 1.330690
H136 H -0.753700 0.576900 1.369700
C137 C -0.548990 0.522550 1.286660
C138 C -0.265930 0.770600 1.163050
C139 C -0.265080 0.854200 1.050000
C140 C -0.236840 0.854290 1.262240
C141 C -0.782340 0.841510 1.372030
C142 C -0.752100 0.924490 1.468810
H143 H -0.734900 0.868000 1.532500
H144 H -0.832600 0.985200 1.505200
H145 H -0.669500 0.973200 1.430400
C146 C -0.802910 0.930060 1.270100
H147 H -0.821400 0.877600 1.207700
H148 H -0.718200 0.976500 1.233200
H149 H -0.882200 0.992700 1.304200
C150 C -0.917690 0.773840 1.431870
H151 H -0.937200 0.719300 1.371400
H152 H -0.995100 0.839200 1.462900
H153 H -0.907300 0.719800 1.499600
C154 C -0.561530 0.375530 1.307170
C155 C -0.714570 0.340910 1.360410
H156 H -0.757100 0.384200 1.439400
H157 H -0.718300 0.246800 1.371600
H158 H -0.765900 0.369600 1.304200
C159 C -0.485840 0.331040 1.399200
H160 H -0.534100 0.371400 1.478700
H161 H -0.389300 0.356900 1.370100
H162 H -0.485900 0.236500 1.407500
C163 C -0.498640 0.299400 1.186540
H164 H -0.519800 0.208100 1.200400
H165 H -0.397100 0.305900 1.157500
H166 H -0.539000 0.335900 1.125200
C167 C -0.088600 0.202100 1.208100
H168 H -0.084400 0.115900 1.172600
H169 H -0.177100 0.216600 1.274100
H170 H -0.010600 0.207400 1.240900
C171 C 0.192120 0.577100 1.089510
H172 H 0.280700 0.525400 1.057500
H173 H 0.160800 0.573500 1.178900
H174 H 0.205400 0.667300 1.062900
Ti175 Ti 0.117160 0.494690 0.869300
Cl176 Cl 0.079390 0.511450 0.682980
F177 F 0.272720 0.221890 1.039080
F178 F 0.144940 0.086060 0.993340
F179 F 0.367710 0.053480 0.931440
F180 F 0.258090 0.211420 0.634630
F181 F 0.104630 0.112060 0.772260
F182 F 0.318000 0.035210 0.713420
O183 O 0.303050 0.505970 0.812540
O184 O 0.148370 0.315040 0.878320
O185 O 0.079300 0.700780 0.884460
H186 H 0.023000 0.720000 0.945000
O187 O -0.089150 0.473910 0.955320
C188 C 0.419780 0.424450 0.770450
C189 C 0.407140 0.290090 0.782480
C190 C 0.527060 0.208160 0.737040
H191 H 0.519700 0.117000 0.745300
C192 C 0.656930 0.255830 0.680050
C193 C 0.665170 0.389670 0.669310
H194 H 0.753700 0.423100 0.630300
C195 C 0.548990 0.477450 0.713340
C196 C 0.265930 0.229400 0.836950
C197 C 0.265080 0.145800 0.950000
C198 C 0.236840 0.145710 0.737760
C199 C 0.782340 0.158490 0.627970
C200 C 0.752100 0.075510 0.531190
H201 H 0.734900 0.132000 0.467500
H202 H 0.832600 0.014800 0.494800
H203 H 0.669500 0.026800 0.569600
C204 C 0.802910 0.069940 0.729900
H205 H 0.821400 0.122400 0.792300
H206 H 0.718200 0.023500 0.766800
H207 H 0.882200 0.007300 0.695800
C208 C 0.917690 0.226160 0.568130
H209 H 0.937200 0.280700 0.628600
H210 H 0.995100 0.160800 0.537100
H211 H 0.907300 0.280200 0.500400
C212 C 0.561530 0.624470 0.692830
C213 C 0.714570 0.659090 0.639590
H214 H 0.757100 0.615800 0.560600
H215 H 0.718300 0.753200 0.628400
H216 H 0.765900 0.630400 0.695800
C217 C 0.485840 0.668960 0.600800
H218 H 0.534100 0.628600 0.521300
H219 H 0.389300 0.643100 0.629900
H220 H 0.485900 0.763500 0.592500
C221 C 0.498640 0.700600 0.813460
H222 H 0.519800 0.791900 0.799600
H223 H 0.397100 0.694100 0.842500
H224 H 0.539000 0.664100 0.874800
C225 C 0.088600 0.797900 0.791900
H226 H 0.084400 0.884100 0.827400
H227 H 0.177100 0.783400 0.725900
H228 H 0.010600 0.792600 0.759100
C229 C -0.192120 0.422900 0.910490
H230 H -0.280700 0.474600 0.942500
H231 H -0.160800 0.426500 0.821100
H232 H -0.205400 0.332700 0.937100
Ti233 Ti 0.882840 0.505310 0.130700
Cl234 Cl 0.920610 0.488550 0.317020
F235 F 0.727280 0.778110 -0.039080
F236 F 0.855060 0.913940 0.006660
F237 F 0.632290 0.946520 0.068560
F238 F 0.741910 0.788580 0.365370
F239 F 0.895370 0.887940 0.227740
F240 F 0.682000 0.964790 0.286580
O241 O 0.696950 0.494030 0.187460
O242 O 0.851630 0.684960 0.121680
O243 O 0.920700 0.299220 0.115540
H244 H 0.977000 0.280000 0.055000
O245 O 1.089150 0.526090 0.044680
C246 C 0.580220 0.575550 0.229550
C247 C 0.592860 0.709910 0.217520
C248 C 0.472940 0.791840 0.262960
H249 H 0.480300 0.883000 0.254700
C250 C 0.343070 0.744170 0.319950
C251 C 0.334830 0.610330 0.330690
H252 H 0.246300 0.576900 0.369700
C253 C 0.451010 0.522550 0.286660
C254 C 0.734070 0.770600 0.163050
C255 C 0.734920 0.854200 0.050000
C256 C 0.763160 0.854290 0.262240
C257 C 0.217660 0.841510 0.372030
C258 C 0.247900 0.924490 0.468810
H259 H 0.265100 0.868000 0.532500
H260 H 0.167400 0.985200 0.505200
H261 H 0.330500 0.973200 0.430400
C262 C 0.197090 0.930060 0.270100
H263 H 0.178600 0.877600 0.207700
H264 H 0.281800 0.976500 0.233200
H265 H 0.117800 0.992700 0.304200
C266 C 0.082310 0.773840 0.431870
H267 H 0.062800 0.719300 0.371400
H268 H 0.004900 0.839200 0.462900
H269 H 0.092700 0.719800 0.499600
C270 C 0.438470 0.375530 0.307170
C271 C 0.285430 0.340910 0.360410
H272 H 0.242900 0.384200 0.439400
H273 H 0.281700 0.246800 0.371600
H274 H 0.234100 0.369600 0.304200
C275 C 0.514160 0.331040 0.399200
H276 H 0.465900 0.371400 0.478700
H277 H 0.610700 0.356900 0.370100
H278 H 0.514100 0.236500 0.407500
C279 C 0.501360 0.299400 0.186540
H280 H 0.480200 0.208100 0.200400
H281 H 0.602900 0.305900 0.157500
H282 H 0.461000 0.335900 0.125200
C283 C 0.911400 0.202100 0.208100
H284 H 0.915600 0.115900 0.172600
H285 H 0.822900 0.216600 0.274100
H286 H 0.989400 0.207400 0.240900
C287 C 1.192120 0.577100 0.089510
H288 H 1.280700 0.525400 0.057500
H289 H 1.160800 0.573500 0.178900
H290 H 1.205400 0.667300 0.062900
Ti291 Ti 1.117160 0.494690 -0.130700
Cl292 Cl 1.079390 0.511450 -0.317020
F293 F 1.272720 0.221890 0.039080
F294 F 1.144940 0.086060 -0.006660
F295 F 1.367710 0.053480 -0.068560
F296 F 1.258090 0.211420 -0.365370
F297 F 1.104630 0.112060 -0.227740
F298 F 1.318000 0.035210 -0.286580
O299 O 1.303050 0.505970 -0.187460
O300 O 1.148370 0.315040 -0.121680
O301 O 1.079300 0.700780 -0.115540
H302 H 1.023000 0.720000 -0.055000
O303 O 0.910850 0.473910 -0.044680
C304 C 1.419780 0.424450 -0.229550
C305 C 1.407140 0.290090 -0.217520
C306 C 1.527060 0.208160 -0.262960
H307 H 1.519700 0.117000 -0.254700
C308 C 1.656930 0.255830 -0.319950
C309 C 1.665170 0.389670 -0.330690
H310 H 1.753700 0.423100 -0.369700
C311 C 1.548990 0.477450 -0.286660
C312 C 1.265930 0.229400 -0.163050
C313 C 1.265080 0.145800 -0.050000
C314 C 1.236840 0.145710 -0.262240
C315 C 1.782340 0.158490 -0.372030
C316 C 1.752100 0.075510 -0.468810
H317 H 1.734900 0.132000 -0.532500
H318 H 1.832600 0.014800 -0.505200
H319 H 1.669500 0.026800 -0.430400
C320 C 1.802910 0.069940 -0.270100
H321 H 1.821400 0.122400 -0.207700
H322 H 1.718200 0.023500 -0.233200
H323 H 1.882200 0.007300 -0.304200
C324 C 1.917690 0.226160 -0.431870
H325 H 1.937200 0.280700 -0.371400
H326 H 1.995100 0.160800 -0.462900
H327 H 1.907300 0.280200 -0.499600
C328 C 1.561530 0.624470 -0.307170
C329 C 1.714570 0.659090 -0.360410
H330 H 1.757100 0.615800 -0.439400
H331 H 1.718300 0.753200 -0.371600
H332 H 1.765900 0.630400 -0.304200
C333 C 1.485840 0.668960 -0.399200
H334 H 1.534100 0.628600 -0.478700
H335 H 1.389300 0.643100 -0.370100
H336 H 1.485900 0.763500 -0.407500
C337 C 1.498640 0.700600 -0.186540
H338 H 1.519800 0.791900 -0.200400
H339 H 1.397100 0.694100 -0.157500
H340 H 1.539000 0.664100 -0.125200
C341 C 1.088600 0.797900 -0.208100
H342 H 1.084400 0.884100 -0.172600
H343 H 1.177100 0.783400 -0.274100
H344 H 1.010600 0.792600 -0.240900
C345 C 0.807880 0.422900 -0.089510
H346 H 0.719300 0.474600 -0.057500
H347 H 0.839200 0.426500 -0.178900
H348 H 0.794600 0.332700 -0.062900
Ti349 Ti 0.882840 0.505310 1.130700
Cl350 Cl 0.920610 0.488550 1.317020
F351 F 0.727280 0.778110 0.960920
F352 F 0.855060 0.913940 1.006660
F353 F 0.632290 0.946520 1.068560
F354 F 0.741910 0.788580 1.365370
F355 F 0.895370 0.887940 1.227740
F356 F 0.682000 0.964790 1.286580
O357 O 0.696950 0.494030 1.187460
O358 O 0.851630 0.684960 1.121680
O359 O 0.920700 0.299220 1.115540
H360 H 0.977000 0.280000 1.055000
O361 O 1.089150 0.526090 1.044680
C362 C 0.580220 0.575550 1.229550
C363 C 0.592860 0.709910 1.217520
C364 C 0.472940 0.791840 1.262960
H365 H 0.480300 0.883000 1.254700
C366 C 0.343070 0.744170 1.319950
C367 C 0.334830 0.610330 1.330690
H368 H 0.246300 0.576900 1.369700
C369 C 0.451010 0.522550 1.286660
C370 C 0.734070 0.770600 1.163050
C371 C 0.734920 0.854200 1.050000
C372 C 0.763160 0.854290 1.262240
C373 C 0.217660 0.841510 1.372030
C374 C 0.247900 0.924490 1.468810
H375 H 0.265100 0.868000 1.532500
H376 H 0.167400 0.985200 1.505200
H377 H 0.330500 0.973200 1.430400
C378 C 0.197090 0.930060 1.270100
H379 H 0.178600 0.877600 1.207700
H380 H 0.281800 0.976500 1.233200
H381 H 0.117800 0.992700 1.304200
C382 C 0.082310 0.773840 1.431870
H383 H 0.062800 0.719300 1.371400
H384 H 0.004900 0.839200 1.462900
H385 H 0.092700 0.719800 1.499600
C386 C 0.438470 0.375530 1.307170
C387 C 0.285430 0.340910 1.360410
H388 H 0.242900 0.384200 1.439400
H389 H 0.281700 0.246800 1.371600
H390 H 0.234100 0.369600 1.304200
C391 C 0.514160 0.331040 1.399200
H392 H 0.465900 0.371400 1.478700
H393 H 0.610700 0.356900 1.370100
H394 H 0.514100 0.236500 1.407500
C395 C 0.501360 0.299400 1.186540
H396 H 0.480200 0.208100 1.200400
H397 H 0.602900 0.305900 1.157500
H398 H 0.461000 0.335900 1.125200
C399 C 0.911400 0.202100 1.208100
H400 H 0.915600 0.115900 1.172600
H401 H 0.822900 0.216600 1.274100
H402 H 0.989400 0.207400 1.240900
C403 C 1.192120 0.577100 1.089510
H404 H 1.280700 0.525400 1.057500
H405 H 1.160800 0.573500 1.178900
H406 H 1.205400 0.667300 1.062900
Ti407 Ti 1.117160 0.494690 0.869300
Cl408 Cl 1.079390 0.511450 0.682980
F409 F 1.272720 0.221890 1.039080
F410 F 1.144940 0.086060 0.993340
F411 F 1.367710 0.053480 0.931440
F412 F 1.258090 0.211420 0.634630
F413 F 1.104630 0.112060 0.772260
F414 F 1.318000 0.035210 0.713420
O415 O 1.303050 0.505970 0.812540
O416 O 1.148370 0.315040 0.878320
O417 O 1.079300 0.700780 0.884460
H418 H 1.023000 0.720000 0.945000
O419 O 0.910850 0.473910 0.955320
C420 C 1.419780 0.424450 0.770450
C421 C 1.407140 0.290090 0.782480
C422 C 1.527060 0.208160 0.737040
H423 H 1.519700 0.117000 0.745300
C424 C 1.656930 0.255830 0.680050
C425 C 1.665170 0.389670 0.669310
H426 H 1.753700 0.423100 0.630300
C427 C 1.548990 0.477450 0.713340
C428 C 1.265930 0.229400 0.836950
C429 C 1.265080 0.145800 0.950000
C430 C 1.236840 0.145710 0.737760
C431 C 1.782340 0.158490 0.627970
C432 C 1.752100 0.075510 0.531190
H433 H 1.734900 0.132000 0.467500
H434 H 1.832600 0.014800 0.494800
H435 H 1.669500 0.026800 0.569600
C436 C 1.802910 0.069940 0.729900
H437 H 1.821400 0.122400 0.792300
H438 H 1.718200 0.023500 0.766800
H439 H 1.882200 0.007300 0.695800
C440 C 1.917690 0.226160 0.568130
H441 H 1.937200 0.280700 0.628600
H442 H 1.995100 0.160800 0.537100
H443 H 1.907300 0.280200 0.500400
C444 C 1.561530 0.624470 0.692830
C445 C 1.714570 0.659090 0.639590
H446 H 1.757100 0.615800 0.560600
H447 H 1.718300 0.753200 0.628400
H448 H 1.765900 0.630400 0.695800
C449 C 1.485840 0.668960 0.600800
H450 H 1.534100 0.628600 0.521300
H451 H 1.389300 0.643100 0.629900
H452 H 1.485900 0.763500 0.592500
C453 C 1.498640 0.700600 0.813460
H454 H 1.519800 0.791900 0.799600
H455 H 1.397100 0.694100 0.842500
H456 H 1.539000 0.664100 0.874800
C457 C 1.088600 0.797900 0.791900
H458 H 1.084400 0.884100 0.827400
H459 H 1.177100 0.783400 0.725900
H460 H 1.010600 0.792600 0.759100
C461 C 0.807880 0.422900 0.910490
H462 H 0.719300 0.474600 0.942500
H463 H 0.839200 0.426500 0.821100
H464 H 0.794600 0.332700 0.937100

#END
