./ABOSEP_from_xyz.cif_generated_by_CrystalShift
_symmetry_cell_setting triclinic
_symmetry_space_group_name_H-M 'P 1'
loop_
_symmetry_equiv_pos_site_id
_symmetry_equiv_pos_as_xyz
1 x,y,z
_cell_length_a 8.435000
_cell_length_b 9.005000
_cell_length_c 42.123000
_cell_angle_alpha 90.000000
_cell_angle_beta 95.400000
_cell_angle_gamma 90.000000
_cell_volume 3185.344420
loop_
_atom_site_label
_atom_site_type_symbol
_atom_site_fract_x
_atom_site_fract_y
_atom_site_fract_z
N1 N 0.021300 0.139200 -0.077060
N2 N 0.046800 0.221000 -0.049860
N3 N 0.251600 0.102200 0.025300
N4 N 0.401900 0.118100 0.108620
N5 N 0.482300 0.007100 0.125780
O6 O -0.324900 0.372300 -0.208670
O7 O -0.210800 0.584800 -0.190870
O8 O 0.536200 0.188800 0.273500
O9 O 0.711100 0.001600 0.274350
C10 C -0.460000 0.330500 -0.260030
H11 H -0.494000 0.374800 -0.280200
H12 H -0.551000 0.292000 -0.250500
H13 H -0.387400 0.251000 -0.263100
C14 C -0.378600 0.444300 -0.238690
H15 H -0.288500 0.485600 -0.248380
H16 H -0.451700 0.524400 -0.235040
C17 C -0.237700 0.453600 -0.187240
C18 C -0.175700 0.368100 -0.158660
C19 C -0.100800 0.444400 -0.132820
H20 H -0.093600 0.547400 -0.133410
C21 C -0.036500 0.367200 -0.106090
H22 H 0.013500 0.418800 -0.088830
C23 C -0.046700 0.213100 -0.105000
C24 C -0.122300 0.135800 -0.130520
H25 H -0.130800 0.033000 -0.129760
C26 C -0.185300 0.213700 -0.157280
H27 H -0.234700 0.161900 -0.174570
C28 C 0.085800 -0.001700 -0.073250
C29 C 0.090200 -0.121600 -0.097840
H30 H 0.117400 -0.079000 -0.117780
H31 H -0.013900 -0.167500 -0.101580
C32 C 0.213800 -0.238700 -0.086330
H33 H 0.196500 -0.327400 -0.099260
H34 H 0.319400 -0.201300 -0.089190
C35 C 0.205800 -0.278800 -0.051630
H36 H 0.283200 -0.356100 -0.045800
H37 H 0.101000 -0.318400 -0.048920
C38 C 0.238200 -0.146300 -0.029130
H39 H 0.201800 -0.169300 -0.008520
H40 H 0.351900 -0.127600 -0.026060
C41 C 0.154700 -0.010900 -0.042510
C42 C 0.127500 0.131300 -0.028760
C43 C 0.181700 0.194000 0.002890
C44 C 0.160700 0.345900 0.008050
H45 H 0.114600 0.406300 -0.008190
C46 C 0.209100 0.404200 0.037440
H47 H 0.195000 0.504700 0.041440
C48 C 0.278900 0.312800 0.061000
H49 H 0.312700 0.350400 0.081060
C50 C 0.297700 0.162400 0.054080
C51 C 0.377300 0.063800 0.078860
C52 C 0.437200 -0.081500 0.076640
C53 C 0.436700 -0.190400 0.049670
H54 H 0.477500 -0.142700 0.031460
H55 H 0.328300 -0.222000 0.043390
C56 C 0.539300 -0.326300 0.059470
H57 H 0.513400 -0.406200 0.044420
H58 H 0.650700 -0.301300 0.058630
C59 C 0.513500 -0.379600 0.093040
H60 H 0.401200 -0.398600 0.094380
H61 H 0.571000 -0.471700 0.097460
C62 C 0.571500 -0.263300 0.117760
H63 H 0.536500 -0.288800 0.138350
H64 H 0.686900 -0.259100 0.119840
C65 C 0.503600 -0.114700 0.106910
C66 C 0.516900 0.026800 0.159280
C67 C 0.419800 0.120300 0.175410
H68 H 0.334600 0.169100 0.164310
C69 C 0.450700 0.140300 0.207900
H70 H 0.387400 0.204000 0.218650
C71 C 0.576800 0.065000 0.224640
C72 C 0.672500 -0.028300 0.208760
H73 H 0.754600 -0.080200 0.220120
C74 C 0.646300 -0.045200 0.175700
H75 H 0.714300 -0.103500 0.164790
C76 C 0.603400 0.093200 0.259800
C77 C 0.750000 0.022800 0.308470
H78 H 0.855300 0.066400 0.312270
H79 H 0.674200 0.090900 0.316530
C80 C 0.746500 -0.108600 0.324200
H81 H 0.638300 -0.142000 0.324100
H82 H 0.791000 -0.095600 0.345900
H83 H 0.808000 -0.181100 0.313900
N84 N 0.521300 0.360800 0.422940
N85 N 0.546800 0.279000 0.450140
N86 N 0.751600 0.397800 0.525300
N87 N 0.901900 0.381900 0.608620
N88 N 0.982300 0.492900 0.625780
O89 O 0.175100 0.127700 0.291330
O90 O 0.289200 -0.084800 0.309130
O91 O 1.036200 0.311200 0.773500
O92 O 1.211100 0.498400 0.774350
C93 C 0.040000 0.169500 0.239970
H94 H 0.006000 0.125200 0.219800
H95 H -0.051000 0.208000 0.249500
H96 H 0.112600 0.249000 0.236900
C97 C 0.121400 0.055700 0.261310
H98 H 0.211500 0.014400 0.251620
H99 H 0.048300 -0.024400 0.264960
C100 C 0.262300 0.046400 0.312760
C101 C 0.324300 0.131900 0.341340
C102 C 0.399200 0.055600 0.367180
H103 H 0.406400 -0.047400 0.366590
C104 C 0.463500 0.132800 0.393910
H105 H 0.513500 0.081200 0.411170
C106 C 0.453300 0.286900 0.395000
C107 C 0.377700 0.364200 0.369480
H108 H 0.369200 0.467000 0.370240
C109 C 0.314700 0.286300 0.342720
H110 H 0.265300 0.338100 0.325430
C111 C 0.585800 0.501700 0.426750
C112 C 0.590200 0.621600 0.402160
H113 H 0.617400 0.579000 0.382220
H114 H 0.486100 0.667500 0.398420
C115 C 0.713800 0.738700 0.413670
H116 H 0.696500 0.827400 0.400740
H117 H 0.819400 0.701300 0.410810
C118 C 0.705800 0.778800 0.448370
H119 H 0.783200 0.856100 0.454200
H120 H 0.601000 0.818400 0.451080
C121 C 0.738200 0.646300 0.470870
H122 H 0.701800 0.669300 0.491480
H123 H 0.851900 0.627600 0.473940
C124 C 0.654700 0.510900 0.457490
C125 C 0.627500 0.368700 0.471240
C126 C 0.681700 0.306000 0.502890
C127 C 0.660700 0.154100 0.508050
H128 H 0.614600 0.093700 0.491810
C129 C 0.709100 0.095800 0.537440
H130 H 0.695000 -0.004700 0.541440
C131 C 0.778900 0.187200 0.561000
H132 H 0.812700 0.149600 0.581060
C133 C 0.797700 0.337600 0.554080
C134 C 0.877300 0.436200 0.578860
C135 C 0.937200 0.581500 0.576640
C136 C 0.936700 0.690400 0.549670
H137 H 0.977500 0.642700 0.531460
H138 H 0.828300 0.722000 0.543390
C139 C 1.039300 0.826300 0.559470
H140 H 1.013400 0.906200 0.544420
H141 H 1.150700 0.801300 0.558630
C142 C 1.013500 0.879600 0.593040
H143 H 0.901200 0.898600 0.594380
H144 H 1.071000 0.971700 0.597460
C145 C 1.071500 0.763300 0.617760
H146 H 1.036500 0.788800 0.638350
H147 H 1.186900 0.759100 0.619840
C148 C 1.003600 0.614700 0.606910
C149 C 1.016900 0.473200 0.659280
C150 C 0.919800 0.379700 0.675410
H151 H 0.834600 0.330900 0.664310
C152 C 0.950700 0.359700 0.707900
H153 H 0.887400 0.296000 0.718650
C154 C 1.076800 0.435000 0.724640
C155 C 1.172500 0.528300 0.708760
H156 H 1.254600 0.580200 0.720120
C157 C 1.146300 0.545200 0.675700
H158 H 1.214300 0.603500 0.664790
C159 C 1.103400 0.406800 0.759800
C160 C 1.250000 0.477200 0.808470
H161 H 1.355300 0.433600 0.812270
H162 H 1.174200 0.409100 0.816530
C163 C 1.246500 0.608600 0.824200
H164 H 1.138300 0.642000 0.824100
H165 H 1.291000 0.595600 0.845900
H166 H 1.308000 0.681100 0.813900
N167 N 0.978700 0.860800 1.077060
N168 N 0.953200 0.779000 1.049860
N169 N 0.748400 0.897800 0.974700
N170 N 0.598100 0.881900 0.891380
N171 N 0.517700 0.992900 0.874220
O172 O 1.324900 0.627700 1.208670
O173 O 1.210800 0.415200 1.190870
O174 O 0.463800 0.811200 0.726500
O175 O 0.288900 0.998400 0.725650
C176 C 1.460000 0.669500 1.260030
H177 H 1.494000 0.625200 1.280200
H178 H 1.551000 0.708000 1.250500
H179 H 1.387400 0.749000 1.263100
C180 C 1.378600 0.555700 1.238690
H181 H 1.288500 0.514400 1.248380
H182 H 1.451700 0.475600 1.235040
C183 C 1.237700 0.546400 1.187240
C184 C 1.175700 0.631900 1.158660
C185 C 1.100800 0.555600 1.132820
H186 H 1.093600 0.452600 1.133410
C187 C 1.036500 0.632800 1.106090
H188 H 0.986500 0.581200 1.088830
C189 C 1.046700 0.786900 1.105000
C190 C 1.122300 0.864200 1.130520
H191 H 1.130800 0.967000 1.129760
C192 C 1.185300 0.786300 1.157280
H193 H 1.234700 0.838100 1.174570
C194 C 0.914200 1.001700 1.073250
C195 C 0.909800 1.121600 1.097840
H196 H 0.882600 1.079000 1.117780
H197 H 1.013900 1.167500 1.101580
C198 C 0.786200 1.238700 1.086330
H199 H 0.803500 1.327400 1.099260
H200 H 0.680600 1.201300 1.089190
C201 C 0.794200 1.278800 1.051630
H202 H 0.716800 1.356100 1.045800
H203 H 0.899000 1.318400 1.048920
C204 C 0.761800 1.146300 1.029130
H205 H 0.798200 1.169300 1.008520
H206 H 0.648100 1.127600 1.026060
C207 C 0.845300 1.010900 1.042510
C208 C 0.872500 0.868700 1.028760
C209 C 0.818300 0.806000 0.997110
C210 C 0.839300 0.654100 0.991950
H211 H 0.885400 0.593700 1.008190
C212 C 0.790900 0.595800 0.962560
H213 H 0.805000 0.495300 0.958560
C214 C 0.721100 0.687200 0.939000
H215 H 0.687300 0.649600 0.918940
C216 C 0.702300 0.837600 0.945920
C217 C 0.622700 0.936200 0.921140
C218 C 0.562800 1.081500 0.923360
C219 C 0.563300 1.190400 0.950330
H220 H 0.522500 1.142700 0.968540
H221 H 0.671700 1.222000 0.956610
C222 C 0.460700 1.326300 0.940530
H223 H 0.486600 1.406200 0.955580
H224 H 0.349300 1.301300 0.941370
C225 C 0.486500 1.379600 0.906960
H226 H 0.598800 1.398600 0.905620
H227 H 0.429000 1.471700 0.902540
C228 C 0.428500 1.263300 0.882240
H229 H 0.463500 1.288800 0.861650
H230 H 0.313100 1.259100 0.880160
C231 C 0.496400 1.114700 0.893090
C232 C 0.483100 0.973200 0.840720
C233 C 0.580200 0.879700 0.824590
H234 H 0.665400 0.830900 0.835690
C235 C 0.549300 0.859700 0.792100
H236 H 0.612600 0.796000 0.781350
C237 C 0.423200 0.935000 0.775360
C238 C 0.327500 1.028300 0.791240
H239 H 0.245400 1.080200 0.779880
C240 C 0.353700 1.045200 0.824300
H241 H 0.285700 1.103500 0.835210
C242 C 0.396600 0.906800 0.740200
C243 C 0.250000 0.977200 0.691530
H244 H 0.144700 0.933600 0.687730
H245 H 0.325800 0.909100 0.683470
C246 C 0.253500 1.108600 0.675800
H247 H 0.361700 1.142000 0.675900
H248 H 0.209000 1.095600 0.654100
H249 H 0.192000 1.181100 0.686100
N250 N 0.478700 0.639200 0.577060
N251 N 0.453200 0.721000 0.549860
N252 N 0.248400 0.602200 0.474700
N253 N 0.098100 0.618100 0.391380
N254 N 0.017700 0.507100 0.374220
O255 O 0.824900 0.872300 0.708670
O256 O 0.710800 1.084800 0.690870
O257 O -0.036200 0.688800 0.226500
O258 O -0.211100 0.501600 0.225650
C259 C 0.960000 0.830500 0.760030
H260 H 0.994000 0.874800 0.780200
H261 H 1.051000 0.792000 0.750500
H262 H 0.887400 0.751000 0.763100
C263 C 0.878600 0.944300 0.738690
H264 H 0.788500 0.985600 0.748380
H265 H 0.951700 1.024400 0.735040
C266 C 0.737700 0.953600 0.687240
C267 C 0.675700 0.868100 0.658660
C268 C 0.600800 0.944400 0.632820
H269 H 0.593600 1.047400 0.633410
C270 C 0.536500 0.867200 0.606090
H271 H 0.486500 0.918800 0.588830
C272 C 0.546700 0.713100 0.605000
C273 C 0.622300 0.635800 0.630520
H274 H 0.630800 0.533000 0.629760
C275 C 0.685300 0.713700 0.657280
H276 H 0.734700 0.661900 0.674570
C277 C 0.414200 0.498300 0.573250
C278 C 0.409800 0.378400 0.597840
H279 H 0.382600 0.421000 0.617780
H280 H 0.513900 0.332500 0.601580
C281 C 0.286200 0.261300 0.586330
H282 H 0.303500 0.172600 0.599260
H283 H 0.180600 0.298700 0.589190
C284 C 0.294200 0.221200 0.551630
H285 H 0.216800 0.143900 0.545800
H286 H 0.399000 0.181600 0.548920
C287 C 0.261800 0.353700 0.529130
H288 H 0.298200 0.330700 0.508520
H289 H 0.148100 0.372400 0.526060
C290 C 0.345300 0.489100 0.542510
C291 C 0.372500 0.631300 0.528760
C292 C 0.318300 0.694000 0.497110
C293 C 0.339300 0.845900 0.491950
H294 H 0.385400 0.906300 0.508190
C295 C 0.290900 0.904200 0.462560
H296 H 0.305000 1.004700 0.458560
C297 C 0.221100 0.812800 0.439000
H298 H 0.187300 0.850400 0.418940
C299 C 0.202300 0.662400 0.445920
C300 C 0.122700 0.563800 0.421140
C301 C 0.062800 0.418500 0.423360
C302 C 0.063300 0.309600 0.450330
H303 H 0.022500 0.357300 0.468540
H304 H 0.171700 0.278000 0.456610
C305 C -0.039300 0.173700 0.440530
H306 H -0.013400 0.093800 0.455580
H307 H -0.150700 0.198700 0.441370
C308 C -0.013500 0.120400 0.406960
H309 H 0.098800 0.101400 0.405620
H310 H -0.071000 0.028300 0.402540
C311 C -0.071500 0.236700 0.382240
H312 H -0.036500 0.211200 0.361650
H313 H -0.186900 0.240900 0.380160
C314 C -0.003600 0.385300 0.393090
C315 C -0.016900 0.526800 0.340720
C316 C 0.080200 0.620300 0.324590
H317 H 0.165400 0.669100 0.335690
C318 C 0.049300 0.640300 0.292100
H319 H 0.112600 0.704000 0.281350
C320 C -0.076800 0.565000 0.275360
C321 C -0.172500 0.471700 0.291240
H322 H -0.254600 0.419800 0.279880
C323 C -0.146300 0.454800 0.324300
H324 H -0.214300 0.396500 0.335210
C325 C -0.103400 0.593200 0.240200
C326 C -0.250000 0.522800 0.191530
H327 H -0.355300 0.566400 0.187730
H328 H -0.174200 0.590900 0.183470
C329 C -0.246500 0.391400 0.175800
H330 H -0.138300 0.358000 0.175900
H331 H -0.291000 0.404400 0.154100
H332 H -0.308000 0.318900 0.186100

#END
