./ABOSOB_from_xyz.cif_generated_by_CrystalShift
_symmetry_cell_setting triclinic
_symmetry_space_group_name_H-M 'P 1'
loop_
_symmetry_equiv_pos_site_id
_symmetry_equiv_pos_as_xyz
1 x,y,z
_cell_length_a 9.792000
_cell_length_b 9.792000
_cell_length_c 15.788000
_cell_angle_alpha 90.000000
_cell_angle_beta 90.000000
_cell_angle_gamma 90.000000
_cell_volume 1513.804972
loop_
_atom_site_label
_atom_site_type_symbol
_atom_site_fract_x
_atom_site_fract_y
_atom_site_fract_z
N1 N 0.478300 0.431900 0.076110
N2 N 0.593200 0.497600 0.107220
O3 O 0.190000 0.350100 0.247200
O4 O 0.708770 0.458400 -0.014310
O5 O 0.990200 0.667000 0.299820
O6 O 1.176500 0.706700 0.214490
C7 C 0.253400 0.351800 0.104400
C8 C 0.156200 0.318200 0.165750
C9 C 0.035300 0.255700 0.142900
H10 H -0.028400 0.232600 0.184200
C11 C 0.009300 0.227600 0.059200
H12 H -0.072500 0.186000 0.044100
C13 C 0.102100 0.259900 -0.001700
H14 H 0.083600 0.240600 -0.058200
C15 C 0.223700 0.321300 0.020500
H16 H 0.286900 0.342800 -0.021500
C17 C 0.094500 0.319900 0.312500
H18 H 0.011100 0.368700 0.302300
H19 H 0.131600 0.347000 0.366200
H20 H 0.076200 0.223600 0.313100
C21 C 0.379900 0.419600 0.128770
H22 H 0.389200 0.454400 0.183300
C23 C 0.706700 0.501600 0.058890
C24 C 0.831200 0.559900 0.099900
C25 C 0.943300 0.585200 0.049400
H26 H 0.937300 0.566700 -0.008300
C27 C 1.065100 0.637300 0.081400
H28 H 1.139800 0.655000 0.046800
C29 C 1.068400 0.660700 0.166400
C30 C 0.957800 0.636000 0.217170
C31 C 0.837700 0.585300 0.187580
H32 H 0.764000 0.568300 0.223200
C33 C 1.129200 0.708300 0.300000
H34 H 1.183100 0.646300 0.334300
H35 H 1.137700 0.799500 0.323500
H36 H 0.590000 0.537000 0.158500
N37 N 0.521700 0.568100 0.576110
N38 N 0.406800 0.502400 0.607220
O39 O 0.810000 0.649900 0.747200
O40 O 0.291230 0.541600 0.485690
O41 O 0.009800 0.333000 0.799820
O42 O -0.176500 0.293300 0.714490
C43 C 0.746600 0.648200 0.604400
C44 C 0.843800 0.681800 0.665750
C45 C 0.964700 0.744300 0.642900
H46 H 1.028400 0.767400 0.684200
C47 C 0.990700 0.772400 0.559200
H48 H 1.072500 0.814000 0.544100
C49 C 0.897900 0.740100 0.498300
H50 H 0.916400 0.759400 0.441800
C51 C 0.776300 0.678700 0.520500
H52 H 0.713100 0.657200 0.478500
C53 C 0.905500 0.680100 0.812500
H54 H 0.988900 0.631300 0.802300
H55 H 0.868400 0.653000 0.866200
H56 H 0.923800 0.776400 0.813100
C57 C 0.620100 0.580400 0.628770
H58 H 0.610800 0.545600 0.683300
C59 C 0.293300 0.498400 0.558890
C60 C 0.168800 0.440100 0.599900
C61 C 0.056700 0.414800 0.549400
H62 H 0.062700 0.433300 0.491700
C63 C -0.065100 0.362700 0.581400
H64 H -0.139800 0.345000 0.546800
C65 C -0.068400 0.339300 0.666400
C66 C 0.042200 0.364000 0.717170
C67 C 0.162300 0.414700 0.687580
H68 H 0.236000 0.431700 0.723200
C69 C -0.129200 0.291700 0.800000
H70 H -0.183100 0.353700 0.834300
H71 H -0.137700 0.200500 0.823500
H72 H 0.410000 0.463000 0.658500
N73 N 0.568100 0.478300 0.326110
N74 N 0.502400 0.593200 0.357220
O75 O 0.649900 0.190000 0.497200
O76 O 0.541600 0.708770 0.235690
O77 O 0.333000 0.990200 0.549820
O78 O 0.293300 1.176500 0.464490
C79 C 0.648200 0.253400 0.354400
C80 C 0.681800 0.156200 0.415750
C81 C 0.744300 0.035300 0.392900
H82 H 0.767400 -0.028400 0.434200
C83 C 0.772400 0.009300 0.309200
H84 H 0.814000 -0.072500 0.294100
C85 C 0.740100 0.102100 0.248300
H86 H 0.759400 0.083600 0.191800
C87 C 0.678700 0.223700 0.270500
H88 H 0.657200 0.286900 0.228500
C89 C 0.680100 0.094500 0.562500
H90 H 0.631300 0.011100 0.552300
H91 H 0.653000 0.131600 0.616200
H92 H 0.776400 0.076200 0.563100
C93 C 0.580400 0.379900 0.378770
H94 H 0.545600 0.389200 0.433300
C95 C 0.498400 0.706700 0.308890
C96 C 0.440100 0.831200 0.349900
C97 C 0.414800 0.943300 0.299400
H98 H 0.433300 0.937300 0.241700
C99 C 0.362700 1.065100 0.331400
H100 H 0.345000 1.139800 0.296800
C101 C 0.339300 1.068400 0.416400
C102 C 0.364000 0.957800 0.467170
C103 C 0.414700 0.837700 0.437580
H104 H 0.431700 0.764000 0.473200
C105 C 0.291700 1.129200 0.550000
H106 H 0.353700 1.183100 0.584300
H107 H 0.200500 1.137700 0.573500
H108 H 0.463000 0.590000 0.408500
N109 N 0.431900 0.521700 0.826110
N110 N 0.497600 0.406800 0.857220
O111 O 0.350100 0.810000 0.997200
O112 O 0.458400 0.291230 0.735690
O113 O 0.667000 0.009800 1.049820
O114 O 0.706700 -0.176500 0.964490
C115 C 0.351800 0.746600 0.854400
C116 C 0.318200 0.843800 0.915750
C117 C 0.255700 0.964700 0.892900
H118 H 0.232600 1.028400 0.934200
C119 C 0.227600 0.990700 0.809200
H120 H 0.186000 1.072500 0.794100
C121 C 0.259900 0.897900 0.748300
H122 H 0.240600 0.916400 0.691800
C123 C 0.321300 0.776300 0.770500
H124 H 0.342800 0.713100 0.728500
C125 C 0.319900 0.905500 1.062500
H126 H 0.368700 0.988900 1.052300
H127 H 0.347000 0.868400 1.116200
H128 H 0.223600 0.923800 1.063100
C129 C 0.419600 0.620100 0.878770
H130 H 0.454400 0.610800 0.933300
C131 C 0.501600 0.293300 0.808890
C132 C 0.559900 0.168800 0.849900
C133 C 0.585200 0.056700 0.799400
H134 H 0.566700 0.062700 0.741700
C135 C 0.637300 -0.065100 0.831400
H136 H 0.655000 -0.139800 0.796800
C137 C 0.660700 -0.068400 0.916400
C138 C 0.636000 0.042200 0.967170
C139 C 0.585300 0.162300 0.937580
H140 H 0.568300 0.236000 0.973200
C141 C 0.708300 -0.129200 1.050000
H142 H 0.646300 -0.183100 1.084300
H143 H 0.799500 -0.137700 1.073500
H144 H 0.537000 0.410000 0.908500

#END
