./ABOSAN_from_xyz.cif_generated_by_CrystalShift
_symmetry_cell_setting triclinic
_symmetry_space_group_name_H-M 'P 1'
loop_
_symmetry_equiv_pos_site_id
_symmetry_equiv_pos_as_xyz
1 x,y,z
_cell_length_a 6.444700
_cell_length_b 8.084400
_cell_length_c 15.850600
_cell_angle_alpha 94.318900
_cell_angle_beta 99.216900
_cell_angle_gamma 92.059100
_cell_volume 811.896556
loop_
_atom_site_label
_atom_site_type_symbol
_atom_site_fract_x
_atom_site_fract_y
_atom_site_fract_z
C1 C 0.484400 0.253600 1.016830
C2 C 0.557100 0.218500 0.935510
C3 C 0.758000 0.129500 0.955260
N4 N 0.791100 0.116450 1.040940
C5 C 0.630200 0.189600 1.079710
C6 C 0.609300 0.204800 1.165210
C7 C 0.436900 0.287600 1.186980
C8 C 0.292900 0.351400 1.124080
C9 C 0.312100 0.335800 1.038030
Cl10 Cl 0.081880 0.457330 1.154220
O11 O 0.867750 0.079500 0.902500
N12 N 0.461500 0.255910 0.862040
N13 N 0.555000 0.219010 0.793150
C14 C 0.461500 0.259200 0.714260
S15 S 0.209880 0.331550 0.716310
C16 C 0.128100 0.383900 0.606620
C17 C 0.118800 0.568500 0.602820
C18 C -0.057400 0.648500 0.622170
C19 C -0.066500 0.819200 0.619590
C20 C 0.100500 0.910000 0.597550
C21 C 0.274300 0.830900 0.577840
C22 C 0.284500 0.661100 0.580650
S23 S 0.586370 0.232810 0.631960
H24 H 0.709000 0.164300 1.207300
H25 H 0.420900 0.302800 1.245000
H26 H 0.215900 0.379000 0.996600
H27 H -0.009600 0.329400 0.587500
H28 H 0.223100 0.335300 0.571500
H29 H -0.171500 0.586400 0.636800
H30 H -0.186900 0.870700 0.633200
H31 H 0.093800 1.027000 0.597500
H32 H 0.391000 0.890900 0.564400
H33 H 0.402800 0.606900 0.567100
H34 H 0.896800 0.061900 1.067400
H35 H 0.663300 0.163600 0.793700
C36 C 0.515600 0.746400 -0.016830
C37 C 0.442900 0.781500 0.064490
C38 C 0.242000 0.870500 0.044740
N39 N 0.208900 0.883550 -0.040940
C40 C 0.369800 0.810400 -0.079710
C41 C 0.390700 0.795200 -0.165210
C42 C 0.563100 0.712400 -0.186980
C43 C 0.707100 0.648600 -0.124080
C44 C 0.687900 0.664200 -0.038030
Cl45 Cl 0.918120 0.542670 -0.154220
O46 O 0.132250 0.920500 0.097500
N47 N 0.538500 0.744090 0.137960
N48 N 0.445000 0.780990 0.206850
C49 C 0.538500 0.740800 0.285740
S50 S 0.790120 0.668450 0.283690
C51 C 0.871900 0.616100 0.393380
C52 C 0.881200 0.431500 0.397180
C53 C 1.057400 0.351500 0.377830
C54 C 1.066500 0.180800 0.380410
C55 C 0.899500 0.090000 0.402450
C56 C 0.725700 0.169100 0.422160
C57 C 0.715500 0.338900 0.419350
S58 S 0.413630 0.767190 0.368040
H59 H 0.291000 0.835700 -0.207300
H60 H 0.579100 0.697200 -0.245000
H61 H 0.784100 0.621000 0.003400
H62 H 1.009600 0.670600 0.412500
H63 H 0.776900 0.664700 0.428500
H64 H 1.171500 0.413600 0.363200
H65 H 1.186900 0.129300 0.366800
H66 H 0.906200 -0.027000 0.402500
H67 H 0.609000 0.109100 0.435600
H68 H 0.597200 0.393100 0.432900
H69 H 0.103200 0.938100 -0.067400
H70 H 0.336700 0.836400 0.206300

#END
