./ABOSOA_from_xyz.cif_generated_by_CrystalShift
_symmetry_cell_setting triclinic
_symmetry_space_group_name_H-M 'P 1'
loop_
_symmetry_equiv_pos_site_id
_symmetry_equiv_pos_as_xyz
1 x,y,z
_cell_length_a 6.523300
_cell_length_b 11.583700
_cell_length_c 17.009500
_cell_angle_alpha 90.000000
_cell_angle_beta 95.957000
_cell_angle_gamma 90.000000
_cell_volume 1278.364462
loop_
_atom_site_label
_atom_site_type_symbol
_atom_site_fract_x
_atom_site_fract_y
_atom_site_fract_z
N1 N 0.471300 -0.035400 0.700210
C2 C 0.379100 0.066200 0.709620
C3 C 0.503000 0.180220 0.711610
C4 C 0.684400 0.184300 0.660130
H5 H 0.695800 0.262400 0.640400
H6 H 0.810600 0.167400 0.693500
C7 C 0.668600 0.101500 0.589780
H8 H 0.525600 0.095500 0.568000
H9 H 0.746500 0.132600 0.549000
C10 C 0.748400 -0.016600 0.612340
H11 H 0.897300 -0.016500 0.613200
H12 H 0.693800 -0.071300 0.572400
C13 C 0.691800 -0.056100 0.691910
H14 H 0.777100 -0.015500 0.734000
C15 C 0.711500 -0.185700 0.704600
H16 H 0.745900 -0.203800 0.760100
H17 H 0.816500 -0.217900 0.674500
C18 C 0.499200 -0.231900 0.674800
H19 H 0.475900 -0.307400 0.696900
H20 H 0.482000 -0.237100 0.617600
C21 C 0.355000 -0.142000 0.704320
H22 H 0.229800 -0.137400 0.667200
C23 C 0.296000 -0.171000 0.785560
O24 O 0.174100 -0.245100 0.794340
O25 O 0.396700 -0.110550 0.842250
C26 C 0.353000 -0.119800 0.924820
C27 C 0.494600 -0.032900 0.965800
H28 H 0.634800 -0.054300 0.960800
H29 H 0.472900 -0.029900 1.020800
H30 H 0.467200 0.041600 0.942300
C31 C 0.135700 -0.091400 0.931000
H32 H 0.106200 -0.015900 0.909600
H33 H 0.109800 -0.092700 0.985600
H34 H 0.049100 -0.147200 0.902000
C35 C 0.409200 -0.236300 0.956000
H36 H 0.552100 -0.250800 0.950800
H37 H 0.326100 -0.293200 0.926600
H38 H 0.385800 -0.240400 1.010700
O39 O 0.196300 0.068920 0.720380
N40 N 0.361200 0.274800 0.688980
H41 H 0.243000 0.275000 0.717900
C42 C 0.277500 0.279100 0.606150
H43 H 0.211900 0.206000 0.591200
H44 H 0.388700 0.291000 0.573300
C45 C 0.123400 0.374800 0.592340
C46 C -0.038500 0.365400 0.534290
H47 H -0.051300 0.299300 0.503100
C48 C -0.181700 0.452100 0.521490
H49 H -0.291300 0.443800 0.482400
C50 C -0.163700 0.550600 0.566100
H51 H -0.260400 0.609400 0.557800
C52 C -0.001200 0.560800 0.623000
H53 H 0.013700 0.627700 0.653300
C54 C 0.139800 0.474100 0.636000
H55 H 0.249000 0.482700 0.675300
C56 C 0.579700 0.198400 0.799720
H57 H 0.460800 0.209500 0.828700
H58 H 0.648700 0.128500 0.819600
C59 C 0.724900 0.298800 0.817310
C60 C 0.658300 0.411500 0.811330
H61 H 0.520100 0.427400 0.796300
C62 C 0.796400 0.501200 0.827600
H63 H 0.750500 0.577100 0.822600
C64 C 0.999100 0.479300 0.850900
H65 H 1.091200 0.540100 0.861300
C66 C 1.065800 0.368300 0.858800
H67 H 1.203100 0.352800 0.875800
C68 C 0.929500 0.278800 0.841440
H69 H 0.977000 0.203100 0.846200
N70 N 0.528700 0.464600 0.299790
C71 C 0.620900 0.566200 0.290380
C72 C 0.497000 0.680220 0.288390
C73 C 0.315600 0.684300 0.339870
H74 H 0.304200 0.762400 0.359600
H75 H 0.189400 0.667400 0.306500
C76 C 0.331400 0.601500 0.410220
H77 H 0.474400 0.595500 0.432000
H78 H 0.253500 0.632600 0.451000
C79 C 0.251600 0.483400 0.387660
H80 H 0.102700 0.483500 0.386800
H81 H 0.306200 0.428700 0.427600
C82 C 0.308200 0.443900 0.308090
H83 H 0.222900 0.484500 0.266000
C84 C 0.288500 0.314300 0.295400
H85 H 0.254100 0.296200 0.239900
H86 H 0.183500 0.282100 0.325500
C87 C 0.500800 0.268100 0.325200
H88 H 0.524100 0.192600 0.303100
H89 H 0.518000 0.262900 0.382400
C90 C 0.645000 0.358000 0.295680
H91 H 0.770200 0.362600 0.332800
C92 C 0.704000 0.329000 0.214440
O93 O 0.825900 0.254900 0.205660
O94 O 0.603300 0.389450 0.157750
C95 C 0.647000 0.380200 0.075180
C96 C 0.505400 0.467100 0.034200
H97 H 0.365200 0.445700 0.039200
H98 H 0.527100 0.470100 -0.020800
H99 H 0.532800 0.541600 0.057700
C100 C 0.864300 0.408600 0.069000
H101 H 0.893800 0.484100 0.090400
H102 H 0.890200 0.407300 0.014400
H103 H 0.950900 0.352800 0.098000
C104 C 0.590800 0.263700 0.044000
H105 H 0.447900 0.249200 0.049200
H106 H 0.673900 0.206800 0.073400
H107 H 0.614200 0.259600 -0.010700
O108 O 0.803700 0.568920 0.279620
N109 N 0.638800 0.774800 0.311020
H110 H 0.757000 0.775000 0.282100
C111 C 0.722500 0.779100 0.393850
H112 H 0.788100 0.706000 0.408800
H113 H 0.611300 0.791000 0.426700
C114 C 0.876600 0.874800 0.407660
C115 C 1.038500 0.865400 0.465710
H116 H 1.051300 0.799300 0.496900
C117 C 1.181700 0.952100 0.478510
H118 H 1.291300 0.943800 0.517600
C119 C 1.163700 1.050600 0.433900
H120 H 1.260400 1.109400 0.442200
C121 C 1.001200 1.060800 0.377000
H122 H 0.986300 1.127700 0.346700
C123 C 0.860200 0.974100 0.364000
H124 H 0.751000 0.982700 0.324700
C125 C 0.420300 0.698400 0.200280
H126 H 0.539200 0.709500 0.171300
H127 H 0.351300 0.628500 0.180400
C128 C 0.275100 0.798800 0.182690
C129 C 0.341700 0.911500 0.188670
H130 H 0.479900 0.927400 0.203700
C131 C 0.203600 1.001200 0.172400
H132 H 0.249500 1.077100 0.177400
C133 C 0.000900 0.979300 0.149100
H134 H -0.091200 1.040100 0.138700
C135 C -0.065800 0.868300 0.141200
H136 H -0.203100 0.852800 0.124200
C137 C 0.070500 0.778800 0.158560
H138 H 0.023000 0.703100 0.153800

#END
