./ABPZCU_from_xyz.cif_generated_by_CrystalShift
_symmetry_cell_setting triclinic
_symmetry_space_group_name_H-M 'P 1'
loop_
_symmetry_equiv_pos_site_id
_symmetry_equiv_pos_as_xyz
1 x,y,z
_cell_length_a 15.136000
_cell_length_b 12.464000
_cell_length_c 6.999000
_cell_angle_alpha 90.000000
_cell_angle_beta 105.970000
_cell_angle_gamma 90.000000
_cell_volume 1269.437556
loop_
_atom_site_label
_atom_site_type_symbol
_atom_site_fract_x
_atom_site_fract_y
_atom_site_fract_z
Cu1 Cu 1.000000 0.225400 0.250000
C2 C 1.050600 0.443300 0.261000
C3 C 1.179700 0.340600 0.298000
C4 C 1.236200 0.426000 0.314000
C5 C 1.195800 0.529000 0.305000
C6 C 1.102900 0.538300 0.279000
N7 N 1.088300 0.347800 0.274000
O8 O 1.074600 0.083900 0.869000
O9 O 1.034100 0.218500 0.611000
O10 O 1.094200 0.116600 0.245000
S11 S 1.000000 0.154400 0.750000
C12 C 0.949400 0.443300 0.239000
C13 C 0.897100 0.538300 0.221000
C14 C 0.804200 0.529000 0.195000
C15 C 0.763800 0.426000 0.186000
C16 C 0.820300 0.340600 0.202000
N17 N 0.911700 0.347800 0.226000
O18 O 0.925400 0.083900 0.631000
O19 O 0.965900 0.218500 0.889000
O20 O 0.905800 0.116600 0.255000
O21 O 0.965900 0.218500 -0.111000
Cu22 Cu 1.000000 0.225400 1.250000
Cu23 Cu 0.500000 0.725400 0.250000
C24 C 0.550600 0.943300 0.261000
C25 C 0.679700 0.840600 0.298000
C26 C 0.736200 0.926000 0.314000
C27 C 0.695800 1.029000 0.305000
C28 C 0.602900 1.038300 0.279000
N29 N 0.588300 0.847800 0.274000
O30 O 0.574600 0.583900 0.869000
O31 O 0.534100 0.718500 0.611000
O32 O 0.594200 0.616600 0.245000
S33 S 0.500000 0.654400 0.750000
C34 C 0.449400 0.943300 0.239000
C35 C 0.397100 1.038300 0.221000
C36 C 0.304200 1.029000 0.195000
C37 C 0.263800 0.926000 0.186000
C38 C 0.320300 0.840600 0.202000
N39 N 0.411700 0.847800 0.226000
O40 O 0.425400 0.583900 0.631000
O41 O 0.465900 0.718500 0.889000
O42 O 0.405800 0.616600 0.255000
O43 O 0.465900 0.718500 -0.111000
Cu44 Cu 0.500000 0.725400 1.250000
O45 O 0.425400 0.583900 -0.369000
S46 S 0.500000 0.654400 -0.250000
O47 O 0.574600 0.583900 -0.131000
O48 O 0.534100 0.718500 -0.389000
Cu49 Cu 0.500000 0.725400 -0.750000
Cu50 Cu -0.000000 0.225400 0.250000
C51 C -0.050600 0.443300 0.239000
C52 C -0.179700 0.340600 0.202000
C53 C -0.236200 0.426000 0.186000
C54 C -0.195800 0.529000 0.195000
C55 C -0.102900 0.538300 0.221000
N56 N -0.088300 0.347800 0.226000
O57 O -0.074600 0.083900 -0.369000
O58 O -0.034100 0.218500 -0.111000
O59 O -0.094200 0.116600 0.255000
S60 S 0.000000 0.154400 -0.250000
C61 C 0.050600 0.443300 0.261000
C62 C 0.102900 0.538300 0.279000
C63 C 0.195800 0.529000 0.305000
C64 C 0.236200 0.426000 0.314000
C65 C 0.179700 0.340600 0.298000
N66 N 0.088300 0.347800 0.274000
O67 O 0.074600 0.083900 -0.131000
O68 O 0.034100 0.218500 -0.389000
O69 O 0.094200 0.116600 0.245000
O70 O 0.034100 0.218500 0.611000
Cu71 Cu -0.000000 0.225400 -0.750000
Cu72 Cu 0.000000 0.774600 0.750000
C73 C -0.050600 0.556700 0.739000
C74 C -0.179700 0.659400 0.702000
C75 C -0.236200 0.574000 0.686000
C76 C -0.195800 0.471000 0.695000
C77 C -0.102900 0.461700 0.721000
N78 N -0.088300 0.652200 0.726000
O79 O -0.074600 0.916100 0.131000
O80 O -0.034100 0.781500 0.389000
O81 O -0.094200 0.883400 0.755000
S82 S -0.000000 0.845600 0.250000
C83 C 0.050600 0.556700 0.761000
C84 C 0.102900 0.461700 0.779000
C85 C 0.195800 0.471000 0.805000
C86 C 0.236200 0.574000 0.814000
C87 C 0.179700 0.659400 0.798000
N88 N 0.088300 0.652200 0.774000
O89 O 0.074600 0.916100 0.369000
O90 O 0.034100 0.781500 0.111000
O91 O 0.094200 0.883400 0.745000
O92 O 0.034100 0.781500 1.111000
Cu93 Cu 0.000000 0.774600 -0.250000
Cu94 Cu 0.500000 0.274600 0.750000
C95 C 0.449400 0.056700 0.739000
C96 C 0.320300 0.159400 0.702000
C97 C 0.263800 0.074000 0.686000
C98 C 0.304200 -0.029000 0.695000
C99 C 0.397100 -0.038300 0.721000
N100 N 0.411700 0.152200 0.726000
O101 O 0.425400 0.416100 0.131000
O102 O 0.465900 0.281500 0.389000
O103 O 0.405800 0.383400 0.755000
S104 S 0.500000 0.345600 0.250000
C105 C 0.550600 0.056700 0.761000
C106 C 0.602900 -0.038300 0.779000
C107 C 0.695800 -0.029000 0.805000
C108 C 0.736200 0.074000 0.814000
C109 C 0.679700 0.159400 0.798000
N110 N 0.588300 0.152200 0.774000
O111 O 0.574600 0.416100 0.369000
O112 O 0.534100 0.281500 0.111000
O113 O 0.594200 0.383400 0.745000
O114 O 0.534100 0.281500 1.111000
Cu115 Cu 0.500000 0.274600 -0.250000
O116 O 0.574600 0.416100 1.369000
S117 S 0.500000 0.345600 1.250000
O118 O 0.425400 0.416100 1.131000
O119 O 0.465900 0.281500 1.389000
Cu120 Cu 0.500000 0.274600 1.750000
Cu121 Cu 1.000000 0.774600 0.750000
C122 C 1.050600 0.556700 0.761000
C123 C 1.179700 0.659400 0.798000
C124 C 1.236200 0.574000 0.814000
C125 C 1.195800 0.471000 0.805000
C126 C 1.102900 0.461700 0.779000
N127 N 1.088300 0.652200 0.774000
O128 O 1.074600 0.916100 1.369000
O129 O 1.034100 0.781500 1.111000
O130 O 1.094200 0.883400 0.745000
S131 S 1.000000 0.845600 1.250000
C132 C 0.949400 0.556700 0.739000
C133 C 0.897100 0.461700 0.721000
C134 C 0.804200 0.471000 0.695000
C135 C 0.763800 0.574000 0.686000
C136 C 0.820300 0.659400 0.702000
N137 N 0.911700 0.652200 0.726000
O138 O 0.925400 0.916100 1.131000
O139 O 0.965900 0.781500 1.389000
O140 O 0.905800 0.883400 0.755000
O141 O 0.965900 0.781500 0.389000
Cu142 Cu 1.000000 0.774600 1.750000

#END
