./ABUBUW_from_xyz.cif_generated_by_CrystalShift
_symmetry_cell_setting triclinic
_symmetry_space_group_name_H-M 'P 1'
loop_
_symmetry_equiv_pos_site_id
_symmetry_equiv_pos_as_xyz
1 x,y,z
_cell_length_a 7.931000
_cell_length_b 9.961000
_cell_length_c 12.952000
_cell_angle_alpha 99.711000
_cell_angle_beta 95.693000
_cell_angle_gamma 102.967000
_cell_volume 972.781338
loop_
_atom_site_label
_atom_site_type_symbol
_atom_site_fract_x
_atom_site_fract_y
_atom_site_fract_z
U1 U 0.501430 0.252090 0.506520
P2 P 0.444100 0.018800 0.703420
P3 P 0.831800 0.094300 0.617290
P4 P 0.222800 0.467600 0.617640
P5 P 0.650300 0.589300 0.705600
O6 O 0.244500 0.321300 0.574100
O7 O 0.789200 0.221100 0.577300
O8 O 0.661000 0.699900 0.637500
O9 O 0.460300 0.139500 0.645300
O10 O 0.400200 -0.125000 0.631600
O11 O 0.302500 0.019300 0.780300
O12 O 0.828500 0.625600 0.782500
O13 O 0.307800 0.578900 0.561200
O14 O 0.023400 0.463000 0.614100
O15 O 0.719700 -0.046100 0.558900
O16 O 1.030300 0.097900 0.613300
O17 O 0.607900 0.440800 0.643100
C18 C 0.309200 0.530300 0.758000
C19 C 0.808600 0.099200 0.756900
C20 C 0.488400 0.592500 0.795100
C21 C 0.647300 0.055800 0.791100
C22 C 0.190300 0.520800 0.831600
H23 H 0.069500 0.480100 0.808000
C24 C 0.540100 0.643800 0.899700
H25 H 0.660400 0.686300 0.923800
C26 C 0.642100 0.047400 0.896200
H27 H 0.532900 0.013200 0.918700
C28 C 0.951900 0.136000 0.936900
H29 H 1.055700 0.165800 0.986800
C30 C 0.960300 0.141300 0.830800
H31 H 1.070200 0.173700 0.808400
C32 C 0.249900 0.571200 0.939400
H33 H 0.170200 0.560200 0.989300
C34 C 0.423300 0.636900 0.973800
H35 H 0.462900 0.676700 1.046500
C36 C 0.793500 0.087800 0.969600
H37 H 0.787500 0.082100 1.041700
U38 U 0.498570 0.747910 0.493480
U39 U 0.498570 -0.252090 0.493480
O40 O 0.339000 0.300100 0.362500
O41 O 0.599800 0.125000 0.368400
O42 O 0.692200 0.421100 0.438800
O43 O 0.280300 0.046100 0.441100
P44 P 0.555900 0.981200 0.296580
P45 P 0.168200 0.905700 0.382710
P46 P 0.777200 0.532400 0.382360
P47 P 0.349700 0.410700 0.294400
O48 O 0.755500 0.678700 0.425900
O49 O 0.210800 0.778900 0.422700
O50 O 0.539700 0.860500 0.354700
O51 O 0.599800 1.125000 0.368400
O52 O 0.697500 0.980700 0.219700
O53 O 0.171500 0.374400 0.217500
O54 O 0.976600 0.537000 0.385900
O55 O 0.280300 1.046100 0.441100
O56 O -0.030300 0.902100 0.386700
O57 O 0.392100 0.559200 0.356900
C58 C 0.690800 0.469700 0.242000
C59 C 0.191400 0.900800 0.243100
C60 C 0.511600 0.407500 0.204900
C61 C 0.352700 0.944200 0.208900
C62 C 0.809700 0.479200 0.168400
H63 H 0.930500 0.519900 0.192000
C64 C 0.459900 0.356200 0.100300
H65 H 0.339600 0.313700 0.076200
C66 C 0.357900 0.952600 0.103800
H67 H 0.467100 0.986800 0.081300
C68 C 0.048100 0.864000 0.063100
H69 H -0.055700 0.834200 0.013200
C70 C 0.039700 0.858700 0.169200
H71 H -0.070200 0.826300 0.191600
C72 C 0.750100 0.428800 0.060600
H73 H 0.829800 0.439800 0.010700
C74 C 0.576700 0.363100 0.026200
H75 H 0.537100 0.323300 -0.046500
C76 C 0.206500 0.912200 0.030400
H77 H 0.212500 0.917900 -0.041700
U78 U 0.501430 1.252090 0.506520
O79 O 0.400200 0.875000 0.631600
O80 O 0.719700 0.953900 0.558900
O81 O 0.996500 0.250000 0.490500
O82 O 0.003500 0.750000 0.509500
O83 O 0.959900 0.204200 0.323700
O84 O 0.040100 0.795800 0.676300

#END
