
#######################################################################
#
#                 Cambridge Crystallographic Data Centre
#                                CCDC 
#
#######################################################################
#
# If this CIF has been generated from an entry in the Cambridge 
# Structural Database, then it will include bibliographic, chemical, 
# crystal, experimental, refinement or atomic coordinate data resulting 
# from the CCDC's data processing and validation procedures.
#
#######################################################################

data_ABUBUW
_symmetry_cell_setting           triclinic
_symmetry_space_group_name_H-M   'P -1'
_symmetry_Int_Tables_number      2
_space_group_name_Hall           '-P 1'
loop_
_symmetry_equiv_pos_site_id
_symmetry_equiv_pos_as_xyz
1 x,y,z
2 -x,-y,-z
_cell_length_a                   7.931(3)
_cell_length_b                   9.961(3)
_cell_length_c                   12.952(4)
_cell_angle_alpha                99.711(4)
_cell_angle_beta                 95.693(4)
_cell_angle_gamma                102.967(3)
_cell_volume                     972.781
loop_
_atom_site_label
_atom_site_type_symbol
_atom_site_fract_x
_atom_site_fract_y
_atom_site_fract_z
U1 U 0.50143(5) 0.25209(4) 0.50652(3)
P1 P 0.4441(3) 0.0188(2) 0.70342(18)
P2 P 0.8318(3) 0.0943(2) 0.61729(18)
P3 P 0.2228(3) 0.4676(2) 0.61764(18)
P4 P 0.6503(3) 0.5893(2) 0.70560(18)
O1 O 0.2445(7) 0.3213(6) 0.5741(5)
O2 O 0.7892(8) 0.2211(6) 0.5773(5)
O3 O 0.6610(7) 0.6999(6) 0.6375(5)
O4 O 0.4603(7) 0.1395(6) 0.6453(5)
O5 O 0.4002(7) -0.1250(6) 0.6316(5)
O6 O 0.3025(8) 0.0193(7) 0.7803(5)
O7 O 0.8285(8) 0.6256(6) 0.7825(5)
O8 O 0.3078(8) 0.5789(6) 0.5612(5)
O9 O 0.0234(7) 0.4630(6) 0.6141(5)
O10 O 0.7197(8) -0.0461(6) 0.5589(5)
O11 O 1.0303(7) 0.0979(6) 0.6133(5)
O12 O 0.6079(8) 0.4408(6) 0.6431(5)
C1 C 0.3092(12) 0.5303(9) 0.7580(7)
C2 C 0.8086(11) 0.0992(9) 0.7569(7)
C3 C 0.4884(11) 0.5925(9) 0.7951(7)
C4 C 0.6473(11) 0.0558(8) 0.7911(7)
C5 C 0.1903(12) 0.5208(10) 0.8316(8)
H1 H 0.0695 0.4801 0.8080
C6 C 0.5401(13) 0.6438(10) 0.8997(8)
H2 H 0.6604 0.6863 0.9238
C7 C 0.6421(13) 0.0474(11) 0.8962(8)
H3 H 0.5329 0.0132 0.9187
C8 C 0.9519(13) 0.1360(11) 0.9369(8)
H4 H 1.0557 0.1658 0.9868
C9 C 0.9603(12) 0.1413(9) 0.8308(8)
H5 H 1.0702 0.1737 0.8084
C10 C 0.2499(14) 0.5712(12) 0.9394(8)
H6 H 0.1702 0.5602 0.9893
C11 C 0.4233(16) 0.6369(12) 0.9738(9)
H7 H 0.4629 0.6767 1.0465
C12 C 0.7935(14) 0.0878(13) 0.9696(9)
H8 H 0.7875 0.0821 1.0417
U1A U 0.49857(5) 0.74791(4) 0.49348(3)
U1A U 0.49857(5) -0.25209(4) 0.49348(3)
O3A O 0.3390(7) 0.3001(6) 0.3625(5)
O5A O 0.5998(7) 0.1250(6) 0.3684(5)
O8A O 0.6922(8) 0.4211(6) 0.4388(5)
O10A O 0.2803(8) 0.0461(6) 0.4411(5)
P1 P 0.5559(3) 0.9812(2) 0.29658(18)
P2 P 0.1682(3) 0.9057(2) 0.38271(18)
P3 P 0.7772(3) 0.5324(2) 0.38236(18)
P4 P 0.3497(3) 0.4107(2) 0.29440(18)
O1 O 0.7555(7) 0.6787(6) 0.4259(5)
O2 O 0.2108(8) 0.7789(6) 0.4227(5)
O4 O 0.5397(7) 0.8605(6) 0.3547(5)
O5 O 0.5998(7) 1.1250(6) 0.3684(5)
O6 O 0.6975(8) 0.9807(7) 0.2197(5)
O7 O 0.1715(8) 0.3744(6) 0.2175(5)
O9 O 0.9766(7) 0.5370(6) 0.3859(5)
O10 O 0.2803(8) 1.0461(6) 0.4411(5)
O11 O -0.0303(7) 0.9021(6) 0.3867(5)
O12 O 0.3921(8) 0.5592(6) 0.3569(5)
C1 C 0.6908(12) 0.4697(9) 0.2420(7)
C2 C 0.1914(11) 0.9008(9) 0.2431(7)
C3 C 0.5116(11) 0.4075(9) 0.2049(7)
C4 C 0.3527(11) 0.9442(8) 0.2089(7)
C5 C 0.8097(12) 0.4792(10) 0.1684(8)
H1 H 0.9305 0.5199 0.1920
C6 C 0.4599(13) 0.3562(10) 0.1003(8)
H2 H 0.3396 0.3137 0.0762
C7 C 0.3579(13) 0.9526(11) 0.1038(8)
H3 H 0.4671 0.9868 0.0813
C8 C 0.0481(13) 0.8640(11) 0.0631(8)
H4 H -0.0557 0.8342 0.0132
C9 C 0.0397(12) 0.8587(9) 0.1692(8)
H5 H -0.0702 0.8263 0.1916
C10 C 0.7501(14) 0.4288(12) 0.0606(8)
H6 H 0.8298 0.4398 0.0107
C11 C 0.5767(16) 0.3631(12) 0.0262(9)
H7 H 0.5371 0.3233 -0.0465
C12 C 0.2065(14) 0.9122(13) 0.0304(9)
H8 H 0.2125 0.9179 -0.0417
U1A U 0.50143(5) 1.25209(4) 0.50652(3)
O5A O 0.4002(7) 0.8750(6) 0.6316(5)
O10A O 0.7197(8) 0.9539(6) 0.5589(5)
O13 O 0.9965(19) 0.2500(17) 0.4905(10)
O13 O 0.0035(19) 0.7500(17) 0.5095(10)
O14 O 0.9599(8) 0.2042(7) 0.3237(6)
O14 O 0.0401(8) 0.7958(7) 0.6763(6)

#END
