./ABUKUF_from_xyz.cif_generated_by_CrystalShift
_symmetry_cell_setting triclinic
_symmetry_space_group_name_H-M 'P 1'
loop_
_symmetry_equiv_pos_site_id
_symmetry_equiv_pos_as_xyz
1 x,y,z
_cell_length_a 11.217000
_cell_length_b 14.156000
_cell_length_c 4.860000
_cell_angle_alpha 99.100000
_cell_angle_beta 96.990000
_cell_angle_gamma 76.350000
_cell_volume 737.605639
loop_
_atom_site_label
_atom_site_type_symbol
_atom_site_fract_x
_atom_site_fract_y
_atom_site_fract_z
Cl1 Cl 0.668770 -0.074940 0.117200
N2 N 0.809000 0.304110 0.549800
C3 C 0.777400 0.209140 0.439900
C4 C 0.689100 0.205700 0.217300
C5 C 0.655700 0.117900 0.116600
C6 C 0.711800 0.035600 0.241300
C7 C 0.800700 0.038700 0.460000
C8 C 0.834500 0.126700 0.561000
H9 H 0.885000 0.300000 0.618000
H10 H 0.786000 0.348000 0.405000
H11 H 0.789000 0.338000 0.716000
H12 H 0.651700 0.263100 0.133900
H13 H 0.594800 0.114200 -0.036400
H14 H 0.838700 -0.019000 0.541700
H15 H 0.896500 0.129900 0.712000
Cl16 Cl 0.331230 1.074940 0.882800
N17 N 0.191000 0.695890 0.450200
C18 C 0.222600 0.790860 0.560100
C19 C 0.310900 0.794300 0.782700
C20 C 0.344300 0.882100 0.883400
C21 C 0.288200 0.964400 0.758700
C22 C 0.199300 0.961300 0.540000
C23 C 0.165500 0.873300 0.439000
H24 H 0.115000 0.700000 0.382000
H25 H 0.214000 0.652000 0.595000
H26 H 0.211000 0.662000 0.284000
H27 H 0.348300 0.736900 0.866100
H28 H 0.405200 0.885800 1.036400
H29 H 0.161300 1.019000 0.458300
H30 H 0.103500 0.870100 0.288000
O31 O 0.959770 0.613730 1.187200
O32 O 1.014500 0.755400 0.971200
O33 O 0.907100 0.808400 0.615700
O34 O 0.527300 0.729940 0.280800
O35 O 0.470300 0.612330 0.424700
O36 O 0.743200 0.416810 1.104700
O37 O 0.895340 0.479070 1.339300
N38 N 0.923700 0.759110 0.807400
N39 N 0.542800 0.665200 0.429100
C40 C 0.780000 0.561740 0.972300
C41 C 0.865200 0.624410 1.003300
C42 C 0.839200 0.696420 0.816300
C43 C 0.734300 0.709710 0.632500
C44 C 0.653600 0.649880 0.623600
C45 C 0.676200 0.574510 0.789200
C46 C 0.806500 0.479690 1.148300
H47 H 0.955000 0.564000 1.243000
H48 H 0.718400 0.759500 0.514300
H49 H 0.620400 0.532500 0.775200
O50 O 0.040230 0.386270 -0.187200
O51 O -0.014500 0.244600 0.028800
O52 O 0.092900 0.191600 0.384300
O53 O 0.472700 0.270060 0.719200
O54 O 0.529700 0.387670 0.575300
O55 O 0.256800 0.583190 -0.104700
O56 O 0.104660 0.520930 -0.339300
N57 N 0.076300 0.240890 0.192600
N58 N 0.457200 0.334800 0.570900
C59 C 0.220000 0.438260 0.027700
C60 C 0.134800 0.375590 -0.003300
C61 C 0.160800 0.303580 0.183700
C62 C 0.265700 0.290290 0.367500
C63 C 0.346400 0.350120 0.376400
C64 C 0.323800 0.425490 0.210800
C65 C 0.193500 0.520310 -0.148300
H66 H 0.045000 0.436000 -0.243000
H67 H 0.281600 0.240500 0.485700
H68 H 0.379600 0.467500 0.224800

#END
