./ABUKOZ_from_xyz.cif_generated_by_CrystalShift
_symmetry_cell_setting triclinic
_symmetry_space_group_name_H-M 'P 1'
loop_
_symmetry_equiv_pos_site_id
_symmetry_equiv_pos_as_xyz
1 x,y,z
_cell_length_a 26.377000
_cell_length_b 10.160200
_cell_length_c 5.138400
_cell_angle_alpha 90.000000
_cell_angle_beta 91.996000
_cell_angle_gamma 90.000000
_cell_volume 1376.232957
loop_
_atom_site_label
_atom_site_type_symbol
_atom_site_fract_x
_atom_site_fract_y
_atom_site_fract_z
O1 O 0.495100 0.845300 1.186900
O2 O 0.460200 0.607900 1.035400
O3 O 0.461690 0.603000 0.614700
O4 O 0.634780 0.646200 0.314400
O5 O 0.681590 0.801100 0.479500
O6 O 0.616110 1.094100 1.156500
O7 O 0.548320 1.026400 1.361700
N8 N 0.478640 0.638200 0.828300
N9 N 0.642980 0.734700 0.471300
C10 C 0.574720 0.898100 1.006100
C11 C 0.530600 0.820200 1.017700
C12 C 0.524720 0.718000 0.835700
C13 C 0.560730 0.690100 0.655100
C14 C 0.604110 0.764700 0.660000
C15 C 0.611350 0.868800 0.830500
C16 C 0.580640 1.014100 1.185100
H17 H 0.510800 0.916000 1.293000
H18 H 0.555700 0.621400 0.531500
H19 H 0.641500 0.920000 0.826600
O20 O 1.004900 0.345300 0.313100
O21 O 1.039800 0.107900 0.464600
O22 O 1.038310 0.103000 0.885300
O23 O 0.865220 0.146200 1.185600
O24 O 0.818410 0.301100 1.020500
O25 O 0.883890 0.594100 0.343500
O26 O 0.951680 0.526400 0.138300
N27 N 1.021360 0.138200 0.671700
N28 N 0.857020 0.234700 1.028700
C29 C 0.925280 0.398100 0.493900
C30 C 0.969400 0.320200 0.482300
C31 C 0.975280 0.218000 0.664300
C32 C 0.939270 0.190100 0.844900
C33 C 0.895890 0.264700 0.840000
C34 C 0.888650 0.368800 0.669500
C35 C 0.919360 0.514100 0.314900
H36 H 0.989200 0.416000 0.207000
H37 H 0.944300 0.121400 0.968500
H38 H 0.858500 0.420000 0.673400
O39 O 0.504900 0.154700 -0.186900
O40 O 0.539800 0.392100 -0.035400
O41 O 0.538310 0.397000 0.385300
O42 O 0.365220 0.353800 0.685600
O43 O 0.318410 0.198900 0.520500
O44 O 0.383890 -0.094100 -0.156500
O45 O 0.451680 -0.026400 -0.361700
N46 N 0.521360 0.361800 0.171700
N47 N 0.357020 0.265300 0.528700
C48 C 0.425280 0.101900 -0.006100
C49 C 0.469400 0.179800 -0.017700
C50 C 0.475280 0.282000 0.164300
C51 C 0.439270 0.309900 0.344900
C52 C 0.395890 0.235300 0.340000
C53 C 0.388650 0.131200 0.169500
C54 C 0.419360 -0.014100 -0.185100
H55 H 0.489200 0.084000 -0.293000
H56 H 0.444300 0.378600 0.468500
H57 H 0.358500 0.080000 0.173400
O58 O -0.004900 0.654700 0.686900
O59 O -0.039800 0.892100 0.535400
O60 O -0.038310 0.897000 0.114700
O61 O 0.134780 0.853800 -0.185600
O62 O 0.181590 0.698900 -0.020500
O63 O 0.116110 0.405900 0.656500
O64 O 0.048320 0.473600 0.861700
N65 N -0.021360 0.861800 0.328300
N66 N 0.142980 0.765300 -0.028700
C67 C 0.074720 0.601900 0.506100
C68 C 0.030600 0.679800 0.517700
C69 C 0.024720 0.782000 0.335700
C70 C 0.060730 0.809900 0.155100
C71 C 0.104110 0.735300 0.160000
C72 C 0.111350 0.631200 0.330500
C73 C 0.080640 0.485900 0.685100
H74 H 0.010800 0.584000 0.793000
H75 H 0.055700 0.878600 0.031500
H76 H 0.141500 0.580000 0.326600
F77 F 0.222130 0.431200 0.358600
N78 N 0.385030 0.773200 0.329800
C79 C 0.342290 0.679700 0.341100
C80 C 0.306280 0.698600 0.524200
C81 C 0.265470 0.613400 0.529900
C82 C 0.262720 0.514100 0.353300
C83 C 0.298030 0.493400 0.169400
C84 C 0.338970 0.578700 0.163900
H85 H 0.384500 0.820000 0.485000
H86 H 0.417000 0.733000 0.317000
H87 H 0.385000 0.816000 0.174000
H88 H 0.309400 0.769100 0.645000
H89 H 0.240000 0.624100 0.654300
H90 H 0.294600 0.422700 0.049000
H91 H 0.364400 0.567400 0.039300
F92 F 0.277870 -0.068800 0.141400
N93 N 0.114970 0.273200 0.170200
C94 C 0.157710 0.179700 0.158900
C95 C 0.193720 0.198600 -0.024200
C96 C 0.234530 0.113400 -0.029900
C97 C 0.237280 0.014100 0.146700
C98 C 0.201970 -0.006600 0.330600
C99 C 0.161030 0.078700 0.336100
H100 H 0.115500 0.320000 0.015000
H101 H 0.083000 0.233000 0.183000
H102 H 0.115000 0.316000 0.326000
H103 H 0.190600 0.269100 -0.145000
H104 H 0.260000 0.124100 -0.154300
H105 H 0.205400 -0.077300 0.451000
H106 H 0.135600 0.067400 0.460700
F107 F 0.777870 0.568800 0.641400
N108 N 0.614970 0.226800 0.670200
C109 C 0.657710 0.320300 0.658900
C110 C 0.693720 0.301400 0.475800
C111 C 0.734530 0.386600 0.470100
C112 C 0.737280 0.485900 0.646700
C113 C 0.701970 0.506600 0.830600
C114 C 0.661030 0.421300 0.836100
H115 H 0.615500 0.180000 0.515000
H116 H 0.583000 0.267000 0.683000
H117 H 0.615000 0.184000 0.826000
H118 H 0.690600 0.230900 0.355000
H119 H 0.760000 0.375900 0.345700
H120 H 0.705400 0.577300 0.951000
H121 H 0.635600 0.432600 0.960700
F122 F 0.722130 1.068800 0.858600
N123 N 0.885030 0.726800 0.829800
C124 C 0.842290 0.820300 0.841100
C125 C 0.806280 0.801400 1.024200
C126 C 0.765470 0.886600 1.029900
C127 C 0.762720 0.985900 0.853300
C128 C 0.798030 1.006600 0.669400
C129 C 0.838970 0.921300 0.663900
H130 H 0.884500 0.680000 0.985000
H131 H 0.917000 0.767000 0.817000
H132 H 0.885000 0.684000 0.674000
H133 H 0.809400 0.730900 1.145000
H134 H 0.740000 0.875900 1.154300
H135 H 0.794600 1.077300 0.549000
H136 H 0.864400 0.932600 0.539300

#END
