./ABULOA_from_xyz.cif_generated_by_CrystalShift
_symmetry_cell_setting triclinic
_symmetry_space_group_name_H-M 'P 1'
loop_
_symmetry_equiv_pos_site_id
_symmetry_equiv_pos_as_xyz
1 x,y,z
_cell_length_a 7.163500
_cell_length_b 7.417800
_cell_length_c 8.952400
_cell_angle_alpha 79.713000
_cell_angle_beta 73.474000
_cell_angle_gamma 85.320000
_cell_volume 448.486249
loop_
_atom_site_label
_atom_site_type_symbol
_atom_site_fract_x
_atom_site_fract_y
_atom_site_fract_z
C1 C 1.094900 0.173200 0.586080
C2 C 1.352100 0.165300 0.334800
H3 H 1.445300 0.239600 0.352000
H4 H 1.357700 0.186300 0.224600
H5 H 1.381700 0.038300 0.367300
C6 C 1.022400 0.308000 0.354590
C7 C 0.838300 0.356600 0.442290
C8 C 0.788500 0.307240 0.606660
C9 C 0.871800 0.447400 0.200500
H10 H 0.844400 0.501200 0.106600
C11 C 1.174000 0.036100 0.818300
H12 H 1.137300 0.145700 0.864300
H13 H 1.282000 -0.024900 0.852200
H14 H 1.065800 -0.043800 0.851600
C15 C 0.573800 0.299400 0.874420
H16 H 0.583600 0.168800 0.904400
H17 H 0.444400 0.342700 0.922300
H18 H 0.665800 0.356500 0.909300
N19 N 0.922410 0.212870 0.675700
N20 N 1.156040 0.213880 0.427060
N21 N 0.615660 0.344830 0.703990
H22 H 0.525700 0.398100 0.664000
N23 N 0.740150 0.449410 0.338300
N24 N 1.048280 0.364280 0.200180
O25 O 1.229320 0.083100 0.649510
C26 C -0.094900 0.826800 0.413920
C27 C -0.352100 0.834700 0.665200
H28 H -0.445300 0.760400 0.648000
H29 H -0.357700 0.813700 0.775400
H30 H -0.381700 0.961700 0.632700
C31 C -0.022400 0.692000 0.645410
C32 C 0.161700 0.643400 0.557710
C33 C 0.211500 0.692760 0.393340
C34 C 0.128200 0.552600 0.799500
H35 H 0.155600 0.498800 0.893400
C36 C -0.174000 0.963900 0.181700
H37 H -0.137300 0.854300 0.135700
H38 H -0.282000 1.024900 0.147800
H39 H -0.065800 1.043800 0.148400
C40 C 0.426200 0.700600 0.125580
H41 H 0.416400 0.831200 0.095600
H42 H 0.555600 0.657300 0.077700
H43 H 0.334200 0.643500 0.090700
N44 N 0.077590 0.787130 0.324300
N45 N -0.156040 0.786120 0.572940
N46 N 0.384340 0.655170 0.296010
H47 H 0.474300 0.601900 0.336000
N48 N 0.259850 0.550590 0.661700
N49 N -0.048280 0.635720 0.799820
O50 O -0.229320 0.916900 0.350490

#END
