./ABUMAN_from_xyz.cif_generated_by_CrystalShift
_symmetry_cell_setting triclinic
_symmetry_space_group_name_H-M 'P 1'
loop_
_symmetry_equiv_pos_site_id
_symmetry_equiv_pos_as_xyz
1 x,y,z
_cell_length_a 21.764000
_cell_length_b 5.744000
_cell_length_c 15.684700
_cell_angle_alpha 90.000000
_cell_angle_beta 103.589000
_cell_angle_gamma 90.000000
_cell_volume 1905.892290
loop_
_atom_site_label
_atom_site_type_symbol
_atom_site_fract_x
_atom_site_fract_y
_atom_site_fract_z
C1 C 0.141810 -0.107700 0.495580
C2 C 0.201140 -0.096300 0.478760
C3 C 0.217890 0.096000 0.435010
C4 C 0.172290 0.267900 0.410700
C5 C 0.113660 0.244600 0.429960
C6 C 0.279630 0.119300 0.412600
C7 C 0.326190 -0.033100 0.429950
C8 C 0.386690 -0.015500 0.404160
C9 C 0.402410 0.170100 0.356810
C10 C 0.460130 0.171400 0.334610
C11 C 0.487730 -0.179100 0.400820
C12 C 0.431040 -0.192700 0.426400
C13 C -0.184950 0.452800 0.300900
C14 C -0.212000 0.237500 0.275970
C15 C -0.271550 0.188500 0.289030
C16 C -0.303990 0.348800 0.327900
C17 C -0.275910 0.563300 0.354000
C18 C -0.216830 0.614500 0.341150
C19 C -0.366920 0.293700 0.345360
O20 O -0.127820 0.524240 0.289340
C21 C -0.060140 0.173000 0.310690
H22 H 0.129900 -0.239000 0.525300
H23 H 0.229800 -0.222000 0.496900
H24 H 0.180800 0.406000 0.380100
H25 H 0.082400 0.362000 0.413500
H26 H 0.373400 0.297000 0.338500
H27 H -0.197300 0.759000 0.357400
H28 H -0.190600 0.124000 0.250900
H29 H -0.291700 0.040000 0.271900
H30 H -0.429100 0.060000 0.330000
H31 H -0.296600 0.676000 0.383300
H32 H 0.283500 0.259000 0.381600
H33 H 0.320800 -0.176000 0.460100
H34 H 0.471300 0.303000 0.301800
H35 H 0.519000 -0.309000 0.415900
H36 H -0.021400 -0.238000 0.363000
H37 H -0.025600 -0.438000 0.413500
Mn38 Mn 0.000000 0.000000 0.500000
N39 N 0.097910 0.059700 0.472060
N40 N 0.502380 0.000100 0.355850
O41 O -0.388460 0.087500 0.317410
O42 O -0.394230 0.426000 0.384180
C43 C -0.092480 0.365900 0.249430
O44 O -0.050060 -0.012650 0.276580
O45 O -0.044160 0.222950 0.391830
O46 O -0.006690 -0.302240 0.413310
H47 H 0.424700 -0.321000 0.460900
H48 H -0.118600 0.293000 0.195900
H49 H -0.059100 0.459000 0.233000
C50 C -0.141810 0.107700 0.504420
C51 C -0.201140 0.096300 0.521240
C52 C -0.217890 -0.096000 0.564990
C53 C -0.172290 -0.267900 0.589300
C54 C -0.113660 -0.244600 0.570040
C55 C -0.279630 -0.119300 0.587400
C56 C -0.326190 0.033100 0.570050
C57 C -0.386690 0.015500 0.595840
C58 C -0.402410 -0.170100 0.643190
C59 C -0.460130 -0.171400 0.665390
C60 C -0.487730 0.179100 0.599180
C61 C -0.431040 0.192700 0.573600
C62 C 0.184950 -0.452800 0.699100
C63 C 0.212000 -0.237500 0.724030
C64 C 0.271550 -0.188500 0.710970
C65 C 0.303990 -0.348800 0.672100
C66 C 0.275910 -0.563300 0.646000
C67 C 0.216830 -0.614500 0.658850
C68 C 0.366920 -0.293700 0.654640
O69 O 0.127820 -0.524240 0.710660
C70 C 0.060140 -0.173000 0.689310
H71 H -0.129900 0.239000 0.474700
H72 H -0.229800 0.222000 0.503100
H73 H -0.180800 -0.406000 0.619900
H74 H -0.082400 -0.362000 0.586500
H75 H -0.373400 -0.297000 0.661500
H76 H 0.197300 -0.759000 0.642600
H77 H 0.190600 -0.124000 0.749100
H78 H 0.291700 -0.040000 0.728100
H79 H 0.429100 -0.060000 0.670000
H80 H 0.296600 -0.676000 0.616700
H81 H -0.283500 -0.259000 0.618400
H82 H -0.320800 0.176000 0.539900
H83 H -0.471300 -0.303000 0.698200
H84 H -0.519000 0.309000 0.584100
H85 H 0.021400 0.238000 0.637000
H86 H 0.025600 0.438000 0.586500
N87 N -0.097910 -0.059700 0.527940
N88 N -0.502380 -0.000100 0.644150
O89 O 0.388460 -0.087500 0.682590
O90 O 0.394230 -0.426000 0.615820
C91 C 0.092480 -0.365900 0.750570
O92 O 0.050060 0.012650 0.723420
O93 O 0.044160 -0.222950 0.608170
O94 O 0.006690 0.302240 0.586690
H95 H -0.424700 0.321000 0.539100
H96 H 0.118600 -0.293000 0.804100
H97 H 0.059100 -0.459000 0.767000
C98 C 0.141810 0.892300 0.495580
C99 C 0.201140 0.903700 0.478760
C100 C 0.217890 1.096000 0.435010
C101 C 0.172290 1.267900 0.410700
C102 C 0.113660 1.244600 0.429960
C103 C 0.279630 1.119300 0.412600
C104 C 0.326190 0.966900 0.429950
C105 C 0.386690 0.984500 0.404160
C106 C 0.402410 1.170100 0.356810
C107 C 0.460130 1.171400 0.334610
C108 C 0.487730 0.820900 0.400820
C109 C 0.431040 0.807300 0.426400
C110 C -0.184950 1.452800 0.300900
C111 C -0.212000 1.237500 0.275970
C112 C -0.271550 1.188500 0.289030
C113 C -0.303990 1.348800 0.327900
C114 C -0.275910 1.563300 0.354000
C115 C -0.216830 1.614500 0.341150
C116 C -0.366920 1.293700 0.345360
O117 O -0.127820 1.524240 0.289340
C118 C -0.060140 1.173000 0.310690
H119 H 0.129900 0.761000 0.525300
H120 H 0.229800 0.778000 0.496900
H121 H 0.180800 1.406000 0.380100
H122 H 0.082400 1.362000 0.413500
H123 H 0.373400 1.297000 0.338500
H124 H -0.197300 1.759000 0.357400
H125 H -0.190600 1.124000 0.250900
H126 H -0.291700 1.040000 0.271900
H127 H -0.429100 1.060000 0.330000
H128 H -0.296600 1.676000 0.383300
H129 H 0.283500 1.259000 0.381600
H130 H 0.320800 0.824000 0.460100
H131 H 0.471300 1.303000 0.301800
H132 H 0.519000 0.691000 0.415900
H133 H -0.021400 0.762000 0.363000
H134 H -0.025600 0.562000 0.413500
Mn135 Mn 0.000000 1.000000 0.500000
N136 N 0.097910 1.059700 0.472060
N137 N 0.502380 1.000100 0.355850
O138 O -0.388460 1.087500 0.317410
O139 O -0.394230 1.426000 0.384180
C140 C -0.092480 1.365900 0.249430
O141 O -0.050060 0.987350 0.276580
O142 O -0.044160 1.222950 0.391830
O143 O -0.006690 0.697760 0.413310
H144 H 0.424700 0.679000 0.460900
H145 H -0.118600 1.293000 0.195900
H146 H -0.059100 1.459000 0.233000
C147 C -0.141810 1.107700 0.504420
C148 C -0.201140 1.096300 0.521240
C149 C -0.217890 0.904000 0.564990
C150 C -0.172290 0.732100 0.589300
C151 C -0.113660 0.755400 0.570040
C152 C -0.279630 0.880700 0.587400
C153 C -0.326190 1.033100 0.570050
C154 C -0.386690 1.015500 0.595840
C155 C -0.402410 0.829900 0.643190
C156 C -0.460130 0.828600 0.665390
C157 C -0.487730 1.179100 0.599180
C158 C -0.431040 1.192700 0.573600
C159 C 0.184950 0.547200 0.699100
C160 C 0.212000 0.762500 0.724030
C161 C 0.271550 0.811500 0.710970
C162 C 0.303990 0.651200 0.672100
C163 C 0.275910 0.436700 0.646000
C164 C 0.216830 0.385500 0.658850
C165 C 0.366920 0.706300 0.654640
O166 O 0.127820 0.475760 0.710660
C167 C 0.060140 0.827000 0.689310
H168 H -0.129900 1.239000 0.474700
H169 H -0.229800 1.222000 0.503100
H170 H -0.180800 0.594000 0.619900
H171 H -0.082400 0.638000 0.586500
H172 H -0.373400 0.703000 0.661500
H173 H 0.197300 0.241000 0.642600
H174 H 0.190600 0.876000 0.749100
H175 H 0.291700 0.960000 0.728100
H176 H 0.429100 0.940000 0.670000
H177 H 0.296600 0.324000 0.616700
H178 H -0.283500 0.741000 0.618400
H179 H -0.320800 1.176000 0.539900
H180 H -0.471300 0.697000 0.698200
H181 H -0.519000 1.309000 0.584100
H182 H 0.021400 1.238000 0.637000
H183 H 0.025600 1.438000 0.586500
N184 N -0.097910 0.940300 0.527940
N185 N -0.502380 0.999900 0.644150
O186 O 0.388460 0.912500 0.682590
O187 O 0.394230 0.574000 0.615820
C188 C 0.092480 0.634100 0.750570
O189 O 0.050060 1.012650 0.723420
O190 O 0.044160 0.777050 0.608170
O191 O 0.006690 1.302240 0.586690
H192 H -0.424700 1.321000 0.539100
H193 H 0.118600 0.707000 0.804100
H194 H 0.059100 0.541000 0.767000
C195 C 1.141810 -0.107700 0.495580
C196 C 1.201140 -0.096300 0.478760
C197 C 1.217890 0.096000 0.435010
C198 C 1.172290 0.267900 0.410700
C199 C 1.113660 0.244600 0.429960
C200 C 1.279630 0.119300 0.412600
C201 C 1.326190 -0.033100 0.429950
C202 C 1.386690 -0.015500 0.404160
C203 C 1.402410 0.170100 0.356810
C204 C 1.460130 0.171400 0.334610
C205 C 1.487730 -0.179100 0.400820
C206 C 1.431040 -0.192700 0.426400
C207 C 0.815050 0.452800 0.300900
C208 C 0.788000 0.237500 0.275970
C209 C 0.728450 0.188500 0.289030
C210 C 0.696010 0.348800 0.327900
C211 C 0.724090 0.563300 0.354000
C212 C 0.783170 0.614500 0.341150
C213 C 0.633080 0.293700 0.345360
O214 O 0.872180 0.524240 0.289340
C215 C 0.939860 0.173000 0.310690
H216 H 1.129900 -0.239000 0.525300
H217 H 1.229800 -0.222000 0.496900
H218 H 1.180800 0.406000 0.380100
H219 H 1.082400 0.362000 0.413500
H220 H 1.373400 0.297000 0.338500
H221 H 0.802700 0.759000 0.357400
H222 H 0.809400 0.124000 0.250900
H223 H 0.708300 0.040000 0.271900
H224 H 0.570900 0.060000 0.330000
H225 H 0.703400 0.676000 0.383300
H226 H 1.283500 0.259000 0.381600
H227 H 1.320800 -0.176000 0.460100
H228 H 1.471300 0.303000 0.301800
H229 H 1.519000 -0.309000 0.415900
H230 H 0.978600 -0.238000 0.363000
H231 H 0.974400 -0.438000 0.413500
Mn232 Mn 1.000000 0.000000 0.500000
N233 N 1.097910 0.059700 0.472060
N234 N 1.502380 0.000100 0.355850
O235 O 0.611540 0.087500 0.317410
O236 O 0.605770 0.426000 0.384180
C237 C 0.907520 0.365900 0.249430
O238 O 0.949940 -0.012650 0.276580
O239 O 0.955840 0.222950 0.391830
O240 O 0.993310 -0.302240 0.413310
H241 H 1.424700 -0.321000 0.460900
H242 H 0.881400 0.293000 0.195900
H243 H 0.940900 0.459000 0.233000
C244 C 0.858190 0.107700 0.504420
C245 C 0.798860 0.096300 0.521240
C246 C 0.782110 -0.096000 0.564990
C247 C 0.827710 -0.267900 0.589300
C248 C 0.886340 -0.244600 0.570040
C249 C 0.720370 -0.119300 0.587400
C250 C 0.673810 0.033100 0.570050
C251 C 0.613310 0.015500 0.595840
C252 C 0.597590 -0.170100 0.643190
C253 C 0.539870 -0.171400 0.665390
C254 C 0.512270 0.179100 0.599180
C255 C 0.568960 0.192700 0.573600
C256 C 1.184950 -0.452800 0.699100
C257 C 1.212000 -0.237500 0.724030
C258 C 1.271550 -0.188500 0.710970
C259 C 1.303990 -0.348800 0.672100
C260 C 1.275910 -0.563300 0.646000
C261 C 1.216830 -0.614500 0.658850
C262 C 1.366920 -0.293700 0.654640
O263 O 1.127820 -0.524240 0.710660
C264 C 1.060140 -0.173000 0.689310
H265 H 0.870100 0.239000 0.474700
H266 H 0.770200 0.222000 0.503100
H267 H 0.819200 -0.406000 0.619900
H268 H 0.917600 -0.362000 0.586500
H269 H 0.626600 -0.297000 0.661500
H270 H 1.197300 -0.759000 0.642600
H271 H 1.190600 -0.124000 0.749100
H272 H 1.291700 -0.040000 0.728100
H273 H 1.429100 -0.060000 0.670000
H274 H 1.296600 -0.676000 0.616700
H275 H 0.716500 -0.259000 0.618400
H276 H 0.679200 0.176000 0.539900
H277 H 0.528700 -0.303000 0.698200
H278 H 0.481000 0.309000 0.584100
H279 H 1.021400 0.238000 0.637000
H280 H 1.025600 0.438000 0.586500
N281 N 0.902090 -0.059700 0.527940
N282 N 0.497620 -0.000100 0.644150
O283 O 1.388460 -0.087500 0.682590
O284 O 1.394230 -0.426000 0.615820
C285 C 1.092480 -0.365900 0.750570
O286 O 1.050060 0.012650 0.723420
O287 O 1.044160 -0.222950 0.608170
O288 O 1.006690 0.302240 0.586690
H289 H 0.575300 0.321000 0.539100
H290 H 1.118600 -0.293000 0.804100
H291 H 1.059100 -0.459000 0.767000
C292 C 1.141810 0.892300 0.495580
C293 C 1.201140 0.903700 0.478760
C294 C 1.217890 1.096000 0.435010
C295 C 1.172290 1.267900 0.410700
C296 C 1.113660 1.244600 0.429960
C297 C 1.279630 1.119300 0.412600
C298 C 1.326190 0.966900 0.429950
C299 C 1.386690 0.984500 0.404160
C300 C 1.402410 1.170100 0.356810
C301 C 1.460130 1.171400 0.334610
C302 C 1.487730 0.820900 0.400820
C303 C 1.431040 0.807300 0.426400
C304 C 0.815050 1.452800 0.300900
C305 C 0.788000 1.237500 0.275970
C306 C 0.728450 1.188500 0.289030
C307 C 0.696010 1.348800 0.327900
C308 C 0.724090 1.563300 0.354000
C309 C 0.783170 1.614500 0.341150
C310 C 0.633080 1.293700 0.345360
O311 O 0.872180 1.524240 0.289340
C312 C 0.939860 1.173000 0.310690
H313 H 1.129900 0.761000 0.525300
H314 H 1.229800 0.778000 0.496900
H315 H 1.180800 1.406000 0.380100
H316 H 1.082400 1.362000 0.413500
H317 H 1.373400 1.297000 0.338500
H318 H 0.802700 1.759000 0.357400
H319 H 0.809400 1.124000 0.250900
H320 H 0.708300 1.040000 0.271900
H321 H 0.570900 1.060000 0.330000
H322 H 0.703400 1.676000 0.383300
H323 H 1.283500 1.259000 0.381600
H324 H 1.320800 0.824000 0.460100
H325 H 1.471300 1.303000 0.301800
H326 H 1.519000 0.691000 0.415900
H327 H 0.978600 0.762000 0.363000
H328 H 0.974400 0.562000 0.413500
Mn329 Mn 1.000000 1.000000 0.500000
N330 N 1.097910 1.059700 0.472060
N331 N 1.502380 1.000100 0.355850
O332 O 0.611540 1.087500 0.317410
O333 O 0.605770 1.426000 0.384180
C334 C 0.907520 1.365900 0.249430
O335 O 0.949940 0.987350 0.276580
O336 O 0.955840 1.222950 0.391830
O337 O 0.993310 0.697760 0.413310
H338 H 1.424700 0.679000 0.460900
H339 H 0.881400 1.293000 0.195900
H340 H 0.940900 1.459000 0.233000
C341 C 0.858190 1.107700 0.504420
C342 C 0.798860 1.096300 0.521240
C343 C 0.782110 0.904000 0.564990
C344 C 0.827710 0.732100 0.589300
C345 C 0.886340 0.755400 0.570040
C346 C 0.720370 0.880700 0.587400
C347 C 0.673810 1.033100 0.570050
C348 C 0.613310 1.015500 0.595840
C349 C 0.597590 0.829900 0.643190
C350 C 0.539870 0.828600 0.665390
C351 C 0.512270 1.179100 0.599180
C352 C 0.568960 1.192700 0.573600
C353 C 1.184950 0.547200 0.699100
C354 C 1.212000 0.762500 0.724030
C355 C 1.271550 0.811500 0.710970
C356 C 1.303990 0.651200 0.672100
C357 C 1.275910 0.436700 0.646000
C358 C 1.216830 0.385500 0.658850
C359 C 1.366920 0.706300 0.654640
O360 O 1.127820 0.475760 0.710660
C361 C 1.060140 0.827000 0.689310
H362 H 0.870100 1.239000 0.474700
H363 H 0.770200 1.222000 0.503100
H364 H 0.819200 0.594000 0.619900
H365 H 0.917600 0.638000 0.586500
H366 H 0.626600 0.703000 0.661500
H367 H 1.197300 0.241000 0.642600
H368 H 1.190600 0.876000 0.749100
H369 H 1.291700 0.960000 0.728100
H370 H 1.429100 0.940000 0.670000
H371 H 1.296600 0.324000 0.616700
H372 H 0.716500 0.741000 0.618400
H373 H 0.679200 1.176000 0.539900
H374 H 0.528700 0.697000 0.698200
H375 H 0.481000 1.309000 0.584100
H376 H 1.021400 1.238000 0.637000
H377 H 1.025600 1.438000 0.586500
N378 N 0.902090 0.940300 0.527940
N379 N 0.497620 0.999900 0.644150
O380 O 1.388460 0.912500 0.682590
O381 O 1.394230 0.574000 0.615820
C382 C 1.092480 0.634100 0.750570
O383 O 1.050060 1.012650 0.723420
O384 O 1.044160 0.777050 0.608170
O385 O 1.006690 1.302240 0.586690
H386 H 0.575300 1.321000 0.539100
H387 H 1.118600 0.707000 0.804100
H388 H 1.059100 0.541000 0.767000
C389 C -0.141810 0.392300 0.004420
C390 C -0.201140 0.403700 0.021240
C391 C -0.217890 0.596000 0.064990
C392 C -0.172290 0.767900 0.089300
C393 C -0.113660 0.744600 0.070040
C394 C -0.279630 0.619300 0.087400
C395 C -0.326190 0.466900 0.070050
C396 C -0.386690 0.484500 0.095840
C397 C -0.402410 0.670100 0.143190
C398 C -0.460130 0.671400 0.165390
C399 C -0.487730 0.320900 0.099180
C400 C -0.431040 0.307300 0.073600
C401 C 0.184950 0.952800 0.199100
C402 C 0.212000 0.737500 0.224030
C403 C 0.271550 0.688500 0.210970
C404 C 0.303990 0.848800 0.172100
C405 C 0.275910 1.063300 0.146000
C406 C 0.216830 1.114500 0.158850
C407 C 0.366920 0.793700 0.154640
O408 O 0.127820 1.024240 0.210660
C409 C 0.060140 0.673000 0.189310
H410 H -0.129900 0.261000 -0.025300
H411 H -0.229800 0.278000 0.003100
H412 H -0.180800 0.906000 0.119900
H413 H -0.082400 0.862000 0.086500
H414 H -0.373400 0.797000 0.161500
H415 H 0.197300 1.259000 0.142600
H416 H 0.190600 0.624000 0.249100
H417 H 0.291700 0.540000 0.228100
H418 H 0.429100 0.560000 0.170000
H419 H 0.296600 1.176000 0.116700
H420 H -0.283500 0.759000 0.118400
H421 H -0.320800 0.324000 0.039900
H422 H -0.471300 0.803000 0.198200
H423 H -0.519000 0.191000 0.084100
H424 H 0.021400 0.262000 0.137000
H425 H 0.025600 0.062000 0.086500
Mn426 Mn 0.000000 0.500000 0.000000
N427 N -0.097910 0.559700 0.027940
N428 N -0.502380 0.500100 0.144150
O429 O 0.388460 0.587500 0.182590
O430 O 0.394230 0.926000 0.115820
C431 C 0.092480 0.865900 0.250570
O432 O 0.050060 0.487350 0.223420
O433 O 0.044160 0.722950 0.108170
O434 O 0.006690 0.197760 0.086690
H435 H -0.424700 0.179000 0.039100
H436 H 0.118600 0.793000 0.304100
H437 H 0.059100 0.959000 0.267000
C438 C 0.141810 0.607700 -0.004420
C439 C 0.201140 0.596300 -0.021240
C440 C 0.217890 0.404000 -0.064990
C441 C 0.172290 0.232100 -0.089300
C442 C 0.113660 0.255400 -0.070040
C443 C 0.279630 0.380700 -0.087400
C444 C 0.326190 0.533100 -0.070050
C445 C 0.386690 0.515500 -0.095840
C446 C 0.402410 0.329900 -0.143190
C447 C 0.460130 0.328600 -0.165390
C448 C 0.487730 0.679100 -0.099180
C449 C 0.431040 0.692700 -0.073600
C450 C -0.184950 0.047200 -0.199100
C451 C -0.212000 0.262500 -0.224030
C452 C -0.271550 0.311500 -0.210970
C453 C -0.303990 0.151200 -0.172100
C454 C -0.275910 -0.063300 -0.146000
C455 C -0.216830 -0.114500 -0.158850
C456 C -0.366920 0.206300 -0.154640
O457 O -0.127820 -0.024240 -0.210660
C458 C -0.060140 0.327000 -0.189310
H459 H 0.129900 0.739000 0.025300
H460 H 0.229800 0.722000 -0.003100
H461 H 0.180800 0.094000 -0.119900
H462 H 0.082400 0.138000 -0.086500
H463 H 0.373400 0.203000 -0.161500
H464 H -0.197300 -0.259000 -0.142600
H465 H -0.190600 0.376000 -0.249100
H466 H -0.291700 0.460000 -0.228100
H467 H -0.429100 0.440000 -0.170000
H468 H -0.296600 -0.176000 -0.116700
H469 H 0.283500 0.241000 -0.118400
H470 H 0.320800 0.676000 -0.039900
H471 H 0.471300 0.197000 -0.198200
H472 H 0.519000 0.809000 -0.084100
H473 H -0.021400 0.738000 -0.137000
H474 H -0.025600 0.938000 -0.086500
N475 N 0.097910 0.440300 -0.027940
N476 N 0.502380 0.499900 -0.144150
O477 O -0.388460 0.412500 -0.182590
O478 O -0.394230 0.074000 -0.115820
C479 C -0.092480 0.134100 -0.250570
O480 O -0.050060 0.512650 -0.223420
O481 O -0.044160 0.277050 -0.108170
O482 O -0.006690 0.802240 -0.086690
H483 H 0.424700 0.821000 -0.039100
H484 H -0.118600 0.207000 -0.304100
H485 H -0.059100 0.041000 -0.267000
C486 C -0.141810 0.392300 1.004420
C487 C -0.201140 0.403700 1.021240
C488 C -0.217890 0.596000 1.064990
C489 C -0.172290 0.767900 1.089300
C490 C -0.113660 0.744600 1.070040
C491 C -0.279630 0.619300 1.087400
C492 C -0.326190 0.466900 1.070050
C493 C -0.386690 0.484500 1.095840
C494 C -0.402410 0.670100 1.143190
C495 C -0.460130 0.671400 1.165390
C496 C -0.487730 0.320900 1.099180
C497 C -0.431040 0.307300 1.073600
C498 C 0.184950 0.952800 1.199100
C499 C 0.212000 0.737500 1.224030
C500 C 0.271550 0.688500 1.210970
C501 C 0.303990 0.848800 1.172100
C502 C 0.275910 1.063300 1.146000
C503 C 0.216830 1.114500 1.158850
C504 C 0.366920 0.793700 1.154640
O505 O 0.127820 1.024240 1.210660
C506 C 0.060140 0.673000 1.189310
H507 H -0.129900 0.261000 0.974700
H508 H -0.229800 0.278000 1.003100
H509 H -0.180800 0.906000 1.119900
H510 H -0.082400 0.862000 1.086500
H511 H -0.373400 0.797000 1.161500
H512 H 0.197300 1.259000 1.142600
H513 H 0.190600 0.624000 1.249100
H514 H 0.291700 0.540000 1.228100
H515 H 0.429100 0.560000 1.170000
H516 H 0.296600 1.176000 1.116700
H517 H -0.283500 0.759000 1.118400
H518 H -0.320800 0.324000 1.039900
H519 H -0.471300 0.803000 1.198200
H520 H -0.519000 0.191000 1.084100
H521 H 0.021400 0.262000 1.137000
H522 H 0.025600 0.062000 1.086500
Mn523 Mn 0.000000 0.500000 1.000000
N524 N -0.097910 0.559700 1.027940
N525 N -0.502380 0.500100 1.144150
O526 O 0.388460 0.587500 1.182590
O527 O 0.394230 0.926000 1.115820
C528 C 0.092480 0.865900 1.250570
O529 O 0.050060 0.487350 1.223420
O530 O 0.044160 0.722950 1.108170
O531 O 0.006690 0.197760 1.086690
H532 H -0.424700 0.179000 1.039100
H533 H 0.118600 0.793000 1.304100
H534 H 0.059100 0.959000 1.267000
C535 C 0.141810 0.607700 0.995580
C536 C 0.201140 0.596300 0.978760
C537 C 0.217890 0.404000 0.935010
C538 C 0.172290 0.232100 0.910700
C539 C 0.113660 0.255400 0.929960
C540 C 0.279630 0.380700 0.912600
C541 C 0.326190 0.533100 0.929950
C542 C 0.386690 0.515500 0.904160
C543 C 0.402410 0.329900 0.856810
C544 C 0.460130 0.328600 0.834610
C545 C 0.487730 0.679100 0.900820
C546 C 0.431040 0.692700 0.926400
C547 C -0.184950 0.047200 0.800900
C548 C -0.212000 0.262500 0.775970
C549 C -0.271550 0.311500 0.789030
C550 C -0.303990 0.151200 0.827900
C551 C -0.275910 -0.063300 0.854000
C552 C -0.216830 -0.114500 0.841150
C553 C -0.366920 0.206300 0.845360
O554 O -0.127820 -0.024240 0.789340
C555 C -0.060140 0.327000 0.810690
H556 H 0.129900 0.739000 1.025300
H557 H 0.229800 0.722000 0.996900
H558 H 0.180800 0.094000 0.880100
H559 H 0.082400 0.138000 0.913500
H560 H 0.373400 0.203000 0.838500
H561 H -0.197300 -0.259000 0.857400
H562 H -0.190600 0.376000 0.750900
H563 H -0.291700 0.460000 0.771900
H564 H -0.429100 0.440000 0.830000
H565 H -0.296600 -0.176000 0.883300
H566 H 0.283500 0.241000 0.881600
H567 H 0.320800 0.676000 0.960100
H568 H 0.471300 0.197000 0.801800
H569 H 0.519000 0.809000 0.915900
H570 H -0.021400 0.738000 0.863000
H571 H -0.025600 0.938000 0.913500
N572 N 0.097910 0.440300 0.972060
N573 N 0.502380 0.499900 0.855850
O574 O -0.388460 0.412500 0.817410
O575 O -0.394230 0.074000 0.884180
C576 C -0.092480 0.134100 0.749430
O577 O -0.050060 0.512650 0.776580
O578 O -0.044160 0.277050 0.891830
O579 O -0.006690 0.802240 0.913310
H580 H 0.424700 0.821000 0.960900
H581 H -0.118600 0.207000 0.695900
H582 H -0.059100 0.041000 0.733000
C583 C 0.858190 0.392300 0.004420
C584 C 0.798860 0.403700 0.021240
C585 C 0.782110 0.596000 0.064990
C586 C 0.827710 0.767900 0.089300
C587 C 0.886340 0.744600 0.070040
C588 C 0.720370 0.619300 0.087400
C589 C 0.673810 0.466900 0.070050
C590 C 0.613310 0.484500 0.095840
C591 C 0.597590 0.670100 0.143190
C592 C 0.539870 0.671400 0.165390
C593 C 0.512270 0.320900 0.099180
C594 C 0.568960 0.307300 0.073600
C595 C 1.184950 0.952800 0.199100
C596 C 1.212000 0.737500 0.224030
C597 C 1.271550 0.688500 0.210970
C598 C 1.303990 0.848800 0.172100
C599 C 1.275910 1.063300 0.146000
C600 C 1.216830 1.114500 0.158850
C601 C 1.366920 0.793700 0.154640
O602 O 1.127820 1.024240 0.210660
C603 C 1.060140 0.673000 0.189310
H604 H 0.870100 0.261000 -0.025300
H605 H 0.770200 0.278000 0.003100
H606 H 0.819200 0.906000 0.119900
H607 H 0.917600 0.862000 0.086500
H608 H 0.626600 0.797000 0.161500
H609 H 1.197300 1.259000 0.142600
H610 H 1.190600 0.624000 0.249100
H611 H 1.291700 0.540000 0.228100
H612 H 1.429100 0.560000 0.170000
H613 H 1.296600 1.176000 0.116700
H614 H 0.716500 0.759000 0.118400
H615 H 0.679200 0.324000 0.039900
H616 H 0.528700 0.803000 0.198200
H617 H 0.481000 0.191000 0.084100
H618 H 1.021400 0.262000 0.137000
H619 H 1.025600 0.062000 0.086500
Mn620 Mn 1.000000 0.500000 0.000000
N621 N 0.902090 0.559700 0.027940
N622 N 0.497620 0.500100 0.144150
O623 O 1.388460 0.587500 0.182590
O624 O 1.394230 0.926000 0.115820
C625 C 1.092480 0.865900 0.250570
O626 O 1.050060 0.487350 0.223420
O627 O 1.044160 0.722950 0.108170
O628 O 1.006690 0.197760 0.086690
H629 H 0.575300 0.179000 0.039100
H630 H 1.118600 0.793000 0.304100
H631 H 1.059100 0.959000 0.267000
C632 C 1.141810 0.607700 -0.004420
C633 C 1.201140 0.596300 -0.021240
C634 C 1.217890 0.404000 -0.064990
C635 C 1.172290 0.232100 -0.089300
C636 C 1.113660 0.255400 -0.070040
C637 C 1.279630 0.380700 -0.087400
C638 C 1.326190 0.533100 -0.070050
C639 C 1.386690 0.515500 -0.095840
C640 C 1.402410 0.329900 -0.143190
C641 C 1.460130 0.328600 -0.165390
C642 C 1.487730 0.679100 -0.099180
C643 C 1.431040 0.692700 -0.073600
C644 C 0.815050 0.047200 -0.199100
C645 C 0.788000 0.262500 -0.224030
C646 C 0.728450 0.311500 -0.210970
C647 C 0.696010 0.151200 -0.172100
C648 C 0.724090 -0.063300 -0.146000
C649 C 0.783170 -0.114500 -0.158850
C650 C 0.633080 0.206300 -0.154640
O651 O 0.872180 -0.024240 -0.210660
C652 C 0.939860 0.327000 -0.189310
H653 H 1.129900 0.739000 0.025300
H654 H 1.229800 0.722000 -0.003100
H655 H 1.180800 0.094000 -0.119900
H656 H 1.082400 0.138000 -0.086500
H657 H 1.373400 0.203000 -0.161500
H658 H 0.802700 -0.259000 -0.142600
H659 H 0.809400 0.376000 -0.249100
H660 H 0.708300 0.460000 -0.228100
H661 H 0.570900 0.440000 -0.170000
H662 H 0.703400 -0.176000 -0.116700
H663 H 1.283500 0.241000 -0.118400
H664 H 1.320800 0.676000 -0.039900
H665 H 1.471300 0.197000 -0.198200
H666 H 1.519000 0.809000 -0.084100
H667 H 0.978600 0.738000 -0.137000
H668 H 0.974400 0.938000 -0.086500
N669 N 1.097910 0.440300 -0.027940
N670 N 1.502380 0.499900 -0.144150
O671 O 0.611540 0.412500 -0.182590
O672 O 0.605770 0.074000 -0.115820
C673 C 0.907520 0.134100 -0.250570
O674 O 0.949940 0.512650 -0.223420
O675 O 0.955840 0.277050 -0.108170
O676 O 0.993310 0.802240 -0.086690
H677 H 1.424700 0.821000 -0.039100
H678 H 0.881400 0.207000 -0.304100
H679 H 0.940900 0.041000 -0.267000
C680 C 0.858190 0.392300 1.004420
C681 C 0.798860 0.403700 1.021240
C682 C 0.782110 0.596000 1.064990
C683 C 0.827710 0.767900 1.089300
C684 C 0.886340 0.744600 1.070040
C685 C 0.720370 0.619300 1.087400
C686 C 0.673810 0.466900 1.070050
C687 C 0.613310 0.484500 1.095840
C688 C 0.597590 0.670100 1.143190
C689 C 0.539870 0.671400 1.165390
C690 C 0.512270 0.320900 1.099180
C691 C 0.568960 0.307300 1.073600
C692 C 1.184950 0.952800 1.199100
C693 C 1.212000 0.737500 1.224030
C694 C 1.271550 0.688500 1.210970
C695 C 1.303990 0.848800 1.172100
C696 C 1.275910 1.063300 1.146000
C697 C 1.216830 1.114500 1.158850
C698 C 1.366920 0.793700 1.154640
O699 O 1.127820 1.024240 1.210660
C700 C 1.060140 0.673000 1.189310
H701 H 0.870100 0.261000 0.974700
H702 H 0.770200 0.278000 1.003100
H703 H 0.819200 0.906000 1.119900
H704 H 0.917600 0.862000 1.086500
H705 H 0.626600 0.797000 1.161500
H706 H 1.197300 1.259000 1.142600
H707 H 1.190600 0.624000 1.249100
H708 H 1.291700 0.540000 1.228100
H709 H 1.429100 0.560000 1.170000
H710 H 1.296600 1.176000 1.116700
H711 H 0.716500 0.759000 1.118400
H712 H 0.679200 0.324000 1.039900
H713 H 0.528700 0.803000 1.198200
H714 H 0.481000 0.191000 1.084100
H715 H 1.021400 0.262000 1.137000
H716 H 1.025600 0.062000 1.086500
Mn717 Mn 1.000000 0.500000 1.000000
N718 N 0.902090 0.559700 1.027940
N719 N 0.497620 0.500100 1.144150
O720 O 1.388460 0.587500 1.182590
O721 O 1.394230 0.926000 1.115820
C722 C 1.092480 0.865900 1.250570
O723 O 1.050060 0.487350 1.223420
O724 O 1.044160 0.722950 1.108170
O725 O 1.006690 0.197760 1.086690
H726 H 0.575300 0.179000 1.039100
H727 H 1.118600 0.793000 1.304100
H728 H 1.059100 0.959000 1.267000
C729 C 1.141810 0.607700 0.995580
C730 C 1.201140 0.596300 0.978760
C731 C 1.217890 0.404000 0.935010
C732 C 1.172290 0.232100 0.910700
C733 C 1.113660 0.255400 0.929960
C734 C 1.279630 0.380700 0.912600
C735 C 1.326190 0.533100 0.929950
C736 C 1.386690 0.515500 0.904160
C737 C 1.402410 0.329900 0.856810
C738 C 1.460130 0.328600 0.834610
C739 C 1.487730 0.679100 0.900820
C740 C 1.431040 0.692700 0.926400
C741 C 0.815050 0.047200 0.800900
C742 C 0.788000 0.262500 0.775970
C743 C 0.728450 0.311500 0.789030
C744 C 0.696010 0.151200 0.827900
C745 C 0.724090 -0.063300 0.854000
C746 C 0.783170 -0.114500 0.841150
C747 C 0.633080 0.206300 0.845360
O748 O 0.872180 -0.024240 0.789340
C749 C 0.939860 0.327000 0.810690
H750 H 1.129900 0.739000 1.025300
H751 H 1.229800 0.722000 0.996900
H752 H 1.180800 0.094000 0.880100
H753 H 1.082400 0.138000 0.913500
H754 H 1.373400 0.203000 0.838500
H755 H 0.802700 -0.259000 0.857400
H756 H 0.809400 0.376000 0.750900
H757 H 0.708300 0.460000 0.771900
H758 H 0.570900 0.440000 0.830000
H759 H 0.703400 -0.176000 0.883300
H760 H 1.283500 0.241000 0.881600
H761 H 1.320800 0.676000 0.960100
H762 H 1.471300 0.197000 0.801800
H763 H 1.519000 0.809000 0.915900
H764 H 0.978600 0.738000 0.863000
H765 H 0.974400 0.938000 0.913500
N766 N 1.097910 0.440300 0.972060
N767 N 1.502380 0.499900 0.855850
O768 O 0.611540 0.412500 0.817410
O769 O 0.605770 0.074000 0.884180
C770 C 0.907520 0.134100 0.749430
O771 O 0.949940 0.512650 0.776580
O772 O 0.955840 0.277050 0.891830
O773 O 0.993310 0.802240 0.913310
H774 H 1.424700 0.821000 0.960900
H775 H 0.881400 0.207000 0.695900
H776 H 0.940900 0.041000 0.733000

#END
