
#######################################################################
#
#                 Cambridge Crystallographic Data Centre
#                                CCDC 
#
#######################################################################
#
# If this CIF has been generated from an entry in the Cambridge 
# Structural Database, then it will include bibliographic, chemical, 
# crystal, experimental, refinement or atomic coordinate data resulting 
# from the CCDC's data processing and validation procedures.
#
#######################################################################

data_ABUPAO
_symmetry_cell_setting           monoclinic
_symmetry_space_group_name_H-M   'C c'
_symmetry_Int_Tables_number      9
_space_group_name_Hall           'C -2yc'
loop_
_symmetry_equiv_pos_site_id
_symmetry_equiv_pos_as_xyz
1 x,y,z
2 x,-y,1/2+z
3 1/2+x,1/2+y,z
4 1/2+x,1/2-y,1/2+z
_cell_length_a                   13.2415(4)
_cell_length_b                   30.0686(7)
_cell_length_c                   25.8422(8)
_cell_angle_alpha                90
_cell_angle_beta                 102.555(1)
_cell_angle_gamma                90
_cell_volume                     10043.1
loop_
_atom_site_label
_atom_site_type_symbol
_atom_site_fract_x
_atom_site_fract_y
_atom_site_fract_z
C1 C 0.8633(4) 0.3973(2) 0.1093(3)
C2 C 0.7933(4) 0.4709(2) 0.1118(2)
N1 N 0.7715(4) 0.4158(2) 0.1797(2)
C3 C 0.8119(5) 0.5280(2) 0.0441(2)
C4 C 0.8873(4) 0.4522(2) 0.0453(2)
C5 C 0.8307(4) 0.4825(2) 0.0681(2)
O1 O 0.7505(4) 0.5530(2) 0.0618(2)
C6 C 0.8102(4) 0.4283(2) 0.1329(2)
O2 O 1.0025(4) 0.3918(2) 0.0038(2)
O3 O 0.7318(5) 0.4454(2) 0.2010(2)
O4 O 0.9684(4) 0.3375(1) 0.0578(2)
O5 O 0.8538(4) 0.5388(1) 0.0065(2)
O6 O 0.7803(3) 0.3770(2) 0.1954(2)
C7 C 0.9622(5) 0.3768(2) 0.0417(2)
C8 C 0.9035(4) 0.4091(2) 0.0666(2)
H1 H 0.872 0.368 0.122
H2 H 0.757 0.491 0.127
H3 H 0.914 0.460 0.016
C1 C 0.8633(4) 0.6027(2) 0.6093(3)
C2 C 0.7933(4) 0.5291(2) 0.6118(2)
N1 N 0.7715(4) 0.5842(2) 0.6797(2)
C3 C 0.8119(5) 0.4720(2) 0.5441(2)
C4 C 0.8873(4) 0.5478(2) 0.5453(2)
C5 C 0.8307(4) 0.5175(2) 0.5681(2)
O1 O 0.7505(4) 0.4470(2) 0.5618(2)
C6 C 0.8102(4) 0.5717(2) 0.6329(2)
O2 O 1.0025(4) 0.6082(2) 0.5038(2)
O3 O 0.7318(5) 0.5546(2) 0.7010(2)
O4 O 0.9684(4) 0.6625(1) 0.5578(2)
O5 O 0.8538(4) 0.4612(1) 0.5065(2)
O6 O 0.7803(3) 0.6230(2) 0.6954(2)
C7 C 0.9622(5) 0.6232(2) 0.5417(2)
C8 C 0.9035(4) 0.5909(2) 0.5666(2)
H1 H 0.872 0.632 0.622
H2 H 0.757 0.509 0.627
H3 H 0.914 0.540 0.516
C1 C 0.3633(4) 0.8973(2) 0.1093(3)
C2 C 0.2933(4) 0.9709(2) 0.1118(2)
N1 N 0.2715(4) 0.9158(2) 0.1797(2)
C3 C 0.3119(5) 1.0280(2) 0.0441(2)
C4 C 0.3873(4) 0.9522(2) 0.0453(2)
C5 C 0.3307(4) 0.9825(2) 0.0681(2)
O1 O 0.2505(4) 1.0530(2) 0.0618(2)
C6 C 0.3102(4) 0.9283(2) 0.1329(2)
O2 O 0.5025(4) 0.8918(2) 0.0038(2)
O3 O 0.2318(5) 0.9454(2) 0.2010(2)
O4 O 0.4684(4) 0.8375(1) 0.0578(2)
O5 O 0.3538(4) 1.0388(1) 0.0065(2)
O6 O 0.2803(3) 0.8770(2) 0.1954(2)
C7 C 0.4622(5) 0.8768(2) 0.0417(2)
C8 C 0.4035(4) 0.9091(2) 0.0666(2)
H1 H 0.372 0.868 0.122
H2 H 0.257 0.991 0.127
H3 H 0.414 0.960 0.016
C1 C 0.3633(4) 0.1027(2) 0.6093(3)
C2 C 0.2933(4) 0.0291(2) 0.6118(2)
N1 N 0.2715(4) 0.0842(2) 0.6797(2)
C3 C 0.3119(5) -0.0280(2) 0.5441(2)
C4 C 0.3873(4) 0.0478(2) 0.5453(2)
C5 C 0.3307(4) 0.0175(2) 0.5681(2)
O1 O 0.2505(4) -0.0530(2) 0.5618(2)
C6 C 0.3102(4) 0.0717(2) 0.6329(2)
O2 O 0.5025(4) 0.1082(2) 0.5038(2)
O3 O 0.2318(5) 0.0546(2) 0.7010(2)
O4 O 0.4684(4) 0.1625(1) 0.5578(2)
O5 O 0.3538(4) -0.0388(1) 0.5065(2)
O6 O 0.2803(3) 0.1230(2) 0.6954(2)
C7 C 0.4622(5) 0.1232(2) 0.5417(2)
C8 C 0.4035(4) 0.0909(2) 0.5666(2)
H1 H 0.372 0.132 0.622
H2 H 0.257 0.009 0.627
H3 H 0.414 0.040 0.516
C9 C 0.1651(5) 0.4092(2) 0.4492(3)
O7 O 0.0740(4) 0.3862(2) 0.5148(2)
O8 O 0.2201(5) 0.5334(2) 0.5157(2)
O9 O 0.2705(4) 0.3845(2) 0.3156(2)
C10 C 0.1036(5) 0.3767(2) 0.4736(3)
O10 O 0.3314(4) 0.5514(2) 0.4648(2)
O11 O 0.0852(4) 0.3388(2) 0.4503(3)
C11 C 0.2453(5) 0.4816(2) 0.4521(2)
C12 C 0.2793(4) 0.4731(2) 0.4069(3)
O12 O 0.3329(5) 0.4516(2) 0.3148(3)
N2 N 0.2889(4) 0.4217(2) 0.3341(3)
C13 C 0.2564(5) 0.4319(2) 0.3831(3)
C14 C 0.1856(5) 0.4512(2) 0.4735(2)
C15 C 0.1999(5) 0.3997(2) 0.4040(3)
C16 C 0.2667(6) 0.5254(2) 0.4789(2)
H4 H 0.317 0.494 0.392
H5 H 0.160 0.459 0.503
H6 H 0.186 0.372 0.387
C9 C 0.1651(5) 0.5908(2) 0.9492(3)
O7 O 0.0740(4) 0.6138(2) 1.0148(2)
O8 O 0.2201(5) 0.4666(2) 1.0157(2)
O9 O 0.2705(4) 0.6155(2) 0.8156(2)
C10 C 0.1036(5) 0.6233(2) 0.9736(3)
O10 O 0.3314(4) 0.4486(2) 0.9648(2)
O11 O 0.0852(4) 0.6612(2) 0.9503(3)
C11 C 0.2453(5) 0.5184(2) 0.9521(2)
C12 C 0.2793(4) 0.5269(2) 0.9069(3)
O12 O 0.3329(5) 0.5484(2) 0.8148(3)
N2 N 0.2889(4) 0.5783(2) 0.8341(3)
C13 C 0.2564(5) 0.5681(2) 0.8831(3)
C14 C 0.1856(5) 0.5488(2) 0.9735(2)
C15 C 0.1999(5) 0.6003(2) 0.9040(3)
C16 C 0.2667(6) 0.4746(2) 0.9789(2)
H4 H 0.317 0.506 0.892
H5 H 0.160 0.541 1.003
H6 H 0.186 0.628 0.887
C9 C 0.6651(5) 0.9092(2) 0.4492(3)
O7 O 0.5740(4) 0.8862(2) 0.5148(2)
O8 O 0.7201(5) 1.0334(2) 0.5157(2)
O9 O 0.7705(4) 0.8845(2) 0.3156(2)
C10 C 0.6036(5) 0.8767(2) 0.4736(3)
O10 O 0.8314(4) 1.0514(2) 0.4648(2)
O11 O 0.5852(4) 0.8388(2) 0.4503(3)
C11 C 0.7453(5) 0.9816(2) 0.4521(2)
C12 C 0.7793(4) 0.9731(2) 0.4069(3)
O12 O 0.8329(5) 0.9516(2) 0.3148(3)
N2 N 0.7889(4) 0.9217(2) 0.3341(3)
C13 C 0.7564(5) 0.9319(2) 0.3831(3)
C14 C 0.6856(5) 0.9512(2) 0.4735(2)
C15 C 0.6999(5) 0.8997(2) 0.4040(3)
C16 C 0.7667(6) 1.0254(2) 0.4789(2)
H4 H 0.817 0.994 0.392
H5 H 0.660 0.959 0.503
H6 H 0.686 0.872 0.387
C9 C 0.6651(5) 0.0908(2) 0.9492(3)
O7 O 0.5740(4) 0.1138(2) 1.0148(2)
O8 O 0.7201(5) -0.0334(2) 1.0157(2)
O9 O 0.7705(4) 0.1155(2) 0.8156(2)
C10 C 0.6036(5) 0.1233(2) 0.9736(3)
O10 O 0.8314(4) -0.0514(2) 0.9648(2)
O11 O 0.5852(4) 0.1612(2) 0.9503(3)
C11 C 0.7453(5) 0.0184(2) 0.9521(2)
C12 C 0.7793(4) 0.0269(2) 0.9069(3)
O12 O 0.8329(5) 0.0484(2) 0.8148(3)
N2 N 0.7889(4) 0.0783(2) 0.8341(3)
C13 C 0.7564(5) 0.0681(2) 0.8831(3)
C14 C 0.6856(5) 0.0488(2) 0.9735(2)
C15 C 0.6999(5) 0.1003(2) 0.9040(3)
C16 C 0.7667(6) -0.0254(2) 0.9789(2)
H4 H 0.817 0.006 0.892
H5 H 0.660 0.041 1.003
H6 H 0.686 0.128 0.887
C17 C 0.3656(5) 0.2323(2) 0.1094(3)
N3 N 0.2744(5) 0.2543(2) 0.1797(3)
C18 C 0.3315(5) 0.3167(2) 0.0668(3)
O13 O 0.2528(4) 0.3882(2) 0.0575(2)
C19 C 0.2941(6) 0.3067(2) 0.1109(3)
C20 C 0.3868(5) 0.2850(2) 0.0435(3)
C21 C 0.3139(6) 0.3615(2) 0.0426(3)
C22 C 0.3096(5) 0.2639(2) 0.1328(3)
O14 O 0.3642(5) 0.3710(2) 0.0070(2)
O15 O 0.4917(4) 0.2204(2) -0.0016(2)
O16 O 0.4741(4) 0.1713(1) 0.0611(2)
O17 O 0.2266(5) 0.2829(2) 0.1986(3)
O18 O 0.2905(4) 0.2166(2) 0.1984(2)
C23 C 0.4607(5) 0.2094(2) 0.0398(4)
C24 C 0.4037(5) 0.2430(2) 0.0653(3)
H7 H 0.377 0.204 0.124
H8 H 0.259 0.328 0.126
H9 H 0.412 0.292 0.014
C17 C 0.3656(5) 0.7677(2) 0.6094(3)
N3 N 0.2744(5) 0.7457(2) 0.6797(3)
C18 C 0.3315(5) 0.6833(2) 0.5668(3)
O13 O 0.2528(4) 0.6118(2) 0.5575(2)
C19 C 0.2941(6) 0.6933(2) 0.6109(3)
C20 C 0.3868(5) 0.7150(2) 0.5435(3)
C21 C 0.3139(6) 0.6385(2) 0.5426(3)
C22 C 0.3096(5) 0.7361(2) 0.6328(3)
O14 O 0.3642(5) 0.6290(2) 0.5070(2)
O15 O 0.4917(4) 0.7796(2) 0.4984(2)
O16 O 0.4741(4) 0.8287(1) 0.5611(2)
O17 O 0.2266(5) 0.7171(2) 0.6986(3)
O18 O 0.2905(4) 0.7834(2) 0.6984(2)
C23 C 0.4607(5) 0.7906(2) 0.5398(4)
C24 C 0.4037(5) 0.7570(2) 0.5653(3)
H7 H 0.377 0.796 0.624
H8 H 0.259 0.672 0.626
H9 H 0.412 0.708 0.514
C17 C 0.8656(5) 0.7323(2) 0.1094(3)
N3 N 0.7744(5) 0.7543(2) 0.1797(3)
C18 C 0.8315(5) 0.8167(2) 0.0668(3)
O13 O 0.7528(4) 0.8882(2) 0.0575(2)
C19 C 0.7941(6) 0.8067(2) 0.1109(3)
C20 C 0.8868(5) 0.7850(2) 0.0435(3)
C21 C 0.8139(6) 0.8615(2) 0.0426(3)
C22 C 0.8096(5) 0.7639(2) 0.1328(3)
O14 O 0.8642(5) 0.8710(2) 0.0070(2)
O15 O 0.9917(4) 0.7204(2) -0.0016(2)
O16 O 0.9741(4) 0.6713(1) 0.0611(2)
O17 O 0.7266(5) 0.7829(2) 0.1986(3)
O18 O 0.7905(4) 0.7166(2) 0.1984(2)
C23 C 0.9607(5) 0.7094(2) 0.0398(4)
C24 C 0.9037(5) 0.7430(2) 0.0653(3)
H7 H 0.877 0.704 0.124
H8 H 0.759 0.828 0.126
H9 H 0.912 0.792 0.014
C17 C 0.8656(5) 0.2677(2) 0.6094(3)
N3 N 0.7744(5) 0.2457(2) 0.6797(3)
C18 C 0.8315(5) 0.1833(2) 0.5668(3)
O13 O 0.7528(4) 0.1118(2) 0.5575(2)
C19 C 0.7941(6) 0.1933(2) 0.6109(3)
C20 C 0.8868(5) 0.2150(2) 0.5435(3)
C21 C 0.8139(6) 0.1385(2) 0.5426(3)
C22 C 0.8096(5) 0.2361(2) 0.6328(3)
O14 O 0.8642(5) 0.1290(2) 0.5070(2)
O15 O 0.9917(4) 0.2796(2) 0.4984(2)
O16 O 0.9741(4) 0.3287(1) 0.5611(2)
O17 O 0.7266(5) 0.2171(2) 0.6986(3)
O18 O 0.7905(4) 0.2834(2) 0.6984(2)
C23 C 0.9607(5) 0.2906(2) 0.5398(4)
C24 C 0.9037(5) 0.2570(2) 0.5653(3)
H7 H 0.877 0.296 0.624
H8 H 0.759 0.172 0.626
H9 H 0.912 0.208 0.514
O19 O 0.0637(4) 0.2777(2) 1.0148(2)
C25 C 0.1660(5) 0.2596(2) 0.9527(2)
C26 C 0.2393(5) 0.1867(2) 0.9532(2)
O20 O 0.1045(4) 0.3327(1) 0.9624(2)
O21 O 0.3231(4) 0.1171(1) 0.9618(2)
O22 O 0.2185(4) 0.1314(2) 1.0162(2)
C27 C 0.1055(5) 0.2923(2) 0.9774(2)
C28 C 0.2556(5) 0.2399(2) 0.8860(3)
O23 O 0.2768(4) 0.2891(2) 0.8195(2)
N4 N 0.2895(4) 0.2506(2) 0.8372(2)
C29 C 0.1818(5) 0.2164(2) 0.9749(2)
C30 C 0.2756(4) 0.1972(2) 0.9089(3)
O24 O 0.3282(5) 0.2209(2) 0.8160(2)
C31 C 0.2015(4) 0.2713(2) 0.9086(2)
C32 C 0.2597(5) 0.1417(2) 0.9791(2)
H10 H 0.154 0.208 1.004
H11 H 0.313 0.176 0.894
H12 H 0.190 0.300 0.894
O19 O 0.0637(4) 0.7223(2) 0.5148(2)
C25 C 0.1660(5) 0.7404(2) 0.4527(2)
C26 C 0.2393(5) 0.8133(2) 0.4532(2)
O20 O 0.1045(4) 0.6673(1) 0.4624(2)
O21 O 0.3231(4) 0.8829(1) 0.4618(2)
O22 O 0.2185(4) 0.8686(2) 0.5162(2)
C27 C 0.1055(5) 0.7077(2) 0.4774(2)
C28 C 0.2556(5) 0.7601(2) 0.3860(3)
O23 O 0.2768(4) 0.7109(2) 0.3195(2)
N4 N 0.2895(4) 0.7494(2) 0.3372(2)
C29 C 0.1818(5) 0.7836(2) 0.4749(2)
C30 C 0.2756(4) 0.8028(2) 0.4089(3)
O24 O 0.3282(5) 0.7791(2) 0.3160(2)
C31 C 0.2015(4) 0.7287(2) 0.4086(2)
C32 C 0.2597(5) 0.8583(2) 0.4791(2)
H10 H 0.154 0.792 0.504
H11 H 0.313 0.824 0.394
H12 H 0.190 0.700 0.394
O19 O 0.5637(4) 0.7777(2) 1.0148(2)
C25 C 0.6660(5) 0.7596(2) 0.9527(2)
C26 C 0.7393(5) 0.6867(2) 0.9532(2)
O20 O 0.6045(4) 0.8327(1) 0.9624(2)
O21 O 0.8231(4) 0.6171(1) 0.9618(2)
O22 O 0.7185(4) 0.6314(2) 1.0162(2)
C27 C 0.6055(5) 0.7923(2) 0.9774(2)
C28 C 0.7556(5) 0.7399(2) 0.8860(3)
O23 O 0.7768(4) 0.7891(2) 0.8195(2)
N4 N 0.7895(4) 0.7506(2) 0.8372(2)
C29 C 0.6818(5) 0.7164(2) 0.9749(2)
C30 C 0.7756(4) 0.6972(2) 0.9089(3)
O24 O 0.8282(5) 0.7209(2) 0.8160(2)
C31 C 0.7015(4) 0.7713(2) 0.9086(2)
C32 C 0.7597(5) 0.6417(2) 0.9791(2)
H10 H 0.654 0.708 1.004
H11 H 0.813 0.676 0.894
H12 H 0.690 0.800 0.894
O19 O 0.5637(4) 0.2223(2) 0.5148(2)
C25 C 0.6660(5) 0.2404(2) 0.4527(2)
C26 C 0.7393(5) 0.3133(2) 0.4532(2)
O20 O 0.6045(4) 0.1673(1) 0.4624(2)
O21 O 0.8231(4) 0.3829(1) 0.4618(2)
O22 O 0.7185(4) 0.3686(2) 0.5162(2)
C27 C 0.6055(5) 0.2077(2) 0.4774(2)
C28 C 0.7556(5) 0.2601(2) 0.3860(3)
O23 O 0.7768(4) 0.2109(2) 0.3195(2)
N4 N 0.7895(4) 0.2494(2) 0.3372(2)
C29 C 0.6818(5) 0.2836(2) 0.4749(2)
C30 C 0.7756(4) 0.3028(2) 0.4089(3)
O24 O 0.8282(5) 0.2791(2) 0.3160(2)
C31 C 0.7015(4) 0.2287(2) 0.4086(2)
C32 C 0.7597(5) 0.3583(2) 0.4791(2)
H10 H 0.654 0.292 0.504
H11 H 0.813 0.324 0.394
H12 H 0.690 0.200 0.394
C33 C 0.8468(4) 0.0638(2) 0.1356(2)
C34 C 0.8008(4) 0.1468(2) 0.0873(2)
C35 C 0.7918(4) 0.0954(2) 0.1567(2)
C36 C 0.8580(4) 0.1154(2) 0.0654(2)
C37 C 0.7759(4) 0.1905(2) 0.0611(2)
O25 O 0.8191(4) 0.1998(2) 0.0228(2)
C38 C 0.7666(4) 0.1363(2) 0.1334(2)
O26 O 0.7140(3) 0.2158(1) 0.0774(2)
C39 C 0.8807(4) 0.0747(2) 0.0896(2)
O27 O 0.9769(3) 0.0547(1) 0.0266(2)
N5 N 0.7596(4) 0.0853(2) 0.2064(2)
O28 O 0.9559(4) 0.0039(2) 0.0863(2)
O29 O 0.7758(3) 0.0481(2) 0.2249(2)
O30 O 0.7194(4) 0.1152(2) 0.2272(2)
C40 C 0.9404(4) 0.0413(2) 0.0655(2)
H13 H 0.861 0.036 0.151
H14 H 0.880 0.122 0.035
H15 H 0.727 0.156 0.148
C33 C 0.8468(4) 0.9362(2) 0.6356(2)
C34 C 0.8008(4) 0.8532(2) 0.5873(2)
C35 C 0.7918(4) 0.9046(2) 0.6567(2)
C36 C 0.8580(4) 0.8846(2) 0.5654(2)
C37 C 0.7759(4) 0.8095(2) 0.5611(2)
O25 O 0.8191(4) 0.8002(2) 0.5228(2)
C38 C 0.7666(4) 0.8637(2) 0.6334(2)
O26 O 0.7140(3) 0.7842(1) 0.5774(2)
C39 C 0.8807(4) 0.9253(2) 0.5896(2)
O27 O 0.9769(3) 0.9453(1) 0.5266(2)
N5 N 0.7596(4) 0.9147(2) 0.7064(2)
O28 O 0.9559(4) 0.9961(2) 0.5863(2)
O29 O 0.7758(3) 0.9519(2) 0.7249(2)
O30 O 0.7194(4) 0.8848(2) 0.7272(2)
C40 C 0.9404(4) 0.9587(2) 0.5655(2)
H13 H 0.861 0.964 0.651
H14 H 0.880 0.878 0.535
H15 H 0.727 0.844 0.648
C33 C 0.3468(4) 0.5638(2) 0.1356(2)
C34 C 0.3008(4) 0.6468(2) 0.0873(2)
C35 C 0.2918(4) 0.5954(2) 0.1567(2)
C36 C 0.3580(4) 0.6154(2) 0.0654(2)
C37 C 0.2759(4) 0.6905(2) 0.0611(2)
O25 O 0.3191(4) 0.6998(2) 0.0228(2)
C38 C 0.2666(4) 0.6363(2) 0.1334(2)
O26 O 0.2140(3) 0.7158(1) 0.0774(2)
C39 C 0.3807(4) 0.5747(2) 0.0896(2)
O27 O 0.4769(3) 0.5547(1) 0.0266(2)
N5 N 0.2596(4) 0.5853(2) 0.2064(2)
O28 O 0.4559(4) 0.5039(2) 0.0863(2)
O29 O 0.2758(3) 0.5481(2) 0.2249(2)
O30 O 0.2194(4) 0.6152(2) 0.2272(2)
C40 C 0.4404(4) 0.5413(2) 0.0655(2)
H13 H 0.361 0.536 0.151
H14 H 0.380 0.622 0.035
H15 H 0.227 0.656 0.148
C33 C 0.3468(4) 0.4362(2) 0.6356(2)
C34 C 0.3008(4) 0.3532(2) 0.5873(2)
C35 C 0.2918(4) 0.4046(2) 0.6567(2)
C36 C 0.3580(4) 0.3846(2) 0.5654(2)
C37 C 0.2759(4) 0.3095(2) 0.5611(2)
O25 O 0.3191(4) 0.3002(2) 0.5228(2)
C38 C 0.2666(4) 0.3637(2) 0.6334(2)
O26 O 0.2140(3) 0.2842(1) 0.5774(2)
C39 C 0.3807(4) 0.4253(2) 0.5896(2)
O27 O 0.4769(3) 0.4453(1) 0.5266(2)
N5 N 0.2596(4) 0.4147(2) 0.7064(2)
O28 O 0.4559(4) 0.4961(2) 0.5863(2)
O29 O 0.2758(3) 0.4519(2) 0.7249(2)
O30 O 0.2194(4) 0.3848(2) 0.7272(2)
C40 C 0.4404(4) 0.4587(2) 0.5655(2)
H13 H 0.361 0.464 0.651
H14 H 0.380 0.378 0.535
H15 H 0.227 0.344 0.648
C41 C 0.1448(4) 0.0763(2) 0.4761(2)
C42 C 0.0868(4) 0.0428(2) 0.5008(2)
O31 O 0.0537(3) 0.0546(1) 0.5410(2)
C43 C 0.1833(4) 0.0640(2) 0.4319(2)
O32 O 0.0756(3) 0.0040(1) 0.4820(2)
C44 C 0.2527(4) 0.1394(2) 0.4301(2)
O33 O 0.2883(4) 0.2219(1) 0.4799(2)
C45 C 0.2356(4) 0.0969(2) 0.4100(2)
N6 N 0.2747(4) 0.0843(2) 0.3618(2)
C46 C 0.2121(4) 0.1502(2) 0.4741(2)
C47 C 0.1572(4) 0.1190(2) 0.4962(2)
O34 O 0.1827(4) 0.2053(1) 0.5343(2)
O35 O 0.2638(4) 0.0462(2) 0.3461(2)
C48 C 0.2297(4) 0.1959(2) 0.4975(2)
O36 O 0.3163(4) 0.1144(2) 0.3411(2)
H16 H 0.174 0.035 0.418
H17 H 0.290 0.160 0.415
H18 H 0.129 0.127 0.525
C41 C 0.1448(4) 0.9237(2) 0.9761(2)
C42 C 0.0868(4) 0.9572(2) 1.0008(2)
O31 O 0.0537(3) 0.9454(1) 1.0410(2)
C43 C 0.1833(4) 0.9360(2) 0.9319(2)
O32 O 0.0756(3) 0.9960(1) 0.9820(2)
C44 C 0.2527(4) 0.8606(2) 0.9301(2)
O33 O 0.2883(4) 0.7781(1) 0.9799(2)
C45 C 0.2356(4) 0.9031(2) 0.9100(2)
N6 N 0.2747(4) 0.9157(2) 0.8618(2)
C46 C 0.2121(4) 0.8498(2) 0.9741(2)
C47 C 0.1572(4) 0.8810(2) 0.9962(2)
O34 O 0.1827(4) 0.7947(1) 1.0343(2)
O35 O 0.2638(4) 0.9538(2) 0.8461(2)
C48 C 0.2297(4) 0.8041(2) 0.9975(2)
O36 O 0.3163(4) 0.8856(2) 0.8411(2)
H16 H 0.174 0.965 0.918
H17 H 0.290 0.840 0.915
H18 H 0.129 0.873 1.025
C41 C 0.6448(4) 0.5763(2) 0.4761(2)
C42 C 0.5868(4) 0.5428(2) 0.5008(2)
O31 O 0.5537(3) 0.5546(1) 0.5410(2)
C43 C 0.6833(4) 0.5640(2) 0.4319(2)
O32 O 0.5756(3) 0.5040(1) 0.4820(2)
C44 C 0.7527(4) 0.6394(2) 0.4301(2)
O33 O 0.7883(4) 0.7219(1) 0.4799(2)
C45 C 0.7356(4) 0.5969(2) 0.4100(2)
N6 N 0.7747(4) 0.5843(2) 0.3618(2)
C46 C 0.7121(4) 0.6502(2) 0.4741(2)
C47 C 0.6572(4) 0.6190(2) 0.4962(2)
O34 O 0.6827(4) 0.7053(1) 0.5343(2)
O35 O 0.7638(4) 0.5462(2) 0.3461(2)
C48 C 0.7297(4) 0.6959(2) 0.4975(2)
O36 O 0.8163(4) 0.6144(2) 0.3411(2)
H16 H 0.674 0.535 0.418
H17 H 0.790 0.660 0.415
H18 H 0.629 0.627 0.525
C41 C 0.6448(4) 0.4237(2) 0.9761(2)
C42 C 0.5868(4) 0.4572(2) 1.0008(2)
O31 O 0.5537(3) 0.4454(1) 1.0410(2)
C43 C 0.6833(4) 0.4360(2) 0.9319(2)
O32 O 0.5756(3) 0.4960(1) 0.9820(2)
C44 C 0.7527(4) 0.3606(2) 0.9301(2)
O33 O 0.7883(4) 0.2781(1) 0.9799(2)
C45 C 0.7356(4) 0.4031(2) 0.9100(2)
N6 N 0.7747(4) 0.4157(2) 0.8618(2)
C46 C 0.7121(4) 0.3498(2) 0.9741(2)
C47 C 0.6572(4) 0.3810(2) 0.9962(2)
O34 O 0.6827(4) 0.2947(1) 1.0343(2)
O35 O 0.7638(4) 0.4538(2) 0.8461(2)
C48 C 0.7297(4) 0.3041(2) 0.9975(2)
O36 O 0.8163(4) 0.3856(2) 0.8411(2)
H16 H 0.674 0.465 0.918
H17 H 0.790 0.340 0.915
H18 H 0.629 0.373 1.025
C49 C 0.4966(4) 0.3273(2) 0.2169(2)
C50 C 0.5020(3) 0.3057(2) 0.3376(2)
C51 C 0.5373(4) 0.3794(2) 0.3839(2)
C52 C 0.5678(4) 0.2518(2) 0.2169(2)
C53 C 0.4528(4) 0.2926(2) 0.3781(2)
C54 C 0.5066(4) 0.2744(2) 0.2950(2)
C55 C 0.4077(5) 0.3979(2) 0.2058(3)
C56 C 0.4365(4) 0.3239(3) 0.4174(2)
C57 C 0.5248(4) 0.2854(2) 0.2439(2)
C58 C 0.5537(4) 0.3492(2) 0.3431(2)
C59 C 0.6300(4) 0.3621(2) 0.3147(2)
C60 C 0.4749(4) 0.3658(2) 0.4194(2)
C61 C 0.4238(5) 0.2473(3) 0.3822(2)
C62 C 0.4281(4) 0.3575(2) 0.2317(2)
C63 C 0.5987(5) 0.3049(3) 0.1514(2)
C64 C 0.6754(4) 0.4029(2) 0.3210(2)
C65 C 0.4480(5) 0.2160(2) 0.3488(3)
C66 C 0.5184(6) 0.3789(3) 0.1468(2)
C67 C 0.6086(5) 0.2631(3) 0.1724(2)
C68 C 0.4565(6) 0.4080(3) 0.1630(3)
C69 C 0.5694(5) 0.2075(2) 0.2327(3)
C70 C 0.5240(6) 0.1955(2) 0.2745(3)
C71 C 0.6525(5) 0.4337(2) 0.3559(3)
C72 C 0.5410(5) 0.3376(2) 0.1721(2)
C73 C 0.5862(5) 0.4220(2) 0.3878(3)
C74 C 0.4934(5) 0.2287(2) 0.3065(2)
H19 H 0.363 0.418 0.216
H20 H 0.399 0.315 0.442
H21 H 0.649 0.342 0.291
H22 H 0.460 0.386 0.444
H23 H 0.388 0.239 0.408
H24 H 0.396 0.350 0.259
H25 H 0.630 0.312 0.123
H26 H 0.723 0.410 0.301
H27 H 0.435 0.186 0.354
H28 H 0.547 0.386 0.118
H29 H 0.643 0.241 0.157
H30 H 0.445 0.435 0.146
H31 H 0.601 0.186 0.215
H32 H 0.514 0.166 0.281
H33 H 0.681 0.462 0.358
H34 H 0.573 0.442 0.413
C49 C 0.4966(4) 0.6727(2) 0.7169(2)
C50 C 0.5020(3) 0.6943(2) 0.8376(2)
C51 C 0.5373(4) 0.6206(2) 0.8839(2)
C52 C 0.5678(4) 0.7482(2) 0.7169(2)
C53 C 0.4528(4) 0.7074(2) 0.8781(2)
C54 C 0.5066(4) 0.7256(2) 0.7950(2)
C55 C 0.4077(5) 0.6021(2) 0.7058(3)
C56 C 0.4365(4) 0.6761(3) 0.9174(2)
C57 C 0.5248(4) 0.7146(2) 0.7439(2)
C58 C 0.5537(4) 0.6508(2) 0.8431(2)
C59 C 0.6300(4) 0.6379(2) 0.8147(2)
C60 C 0.4749(4) 0.6342(2) 0.9194(2)
C61 C 0.4238(5) 0.7527(3) 0.8822(2)
C62 C 0.4281(4) 0.6425(2) 0.7317(2)
C63 C 0.5987(5) 0.6951(3) 0.6514(2)
C64 C 0.6754(4) 0.5971(2) 0.8210(2)
C65 C 0.4480(5) 0.7840(2) 0.8488(3)
C66 C 0.5184(6) 0.6211(3) 0.6468(2)
C67 C 0.6086(5) 0.7369(3) 0.6724(2)
C68 C 0.4565(6) 0.5920(3) 0.6630(3)
C69 C 0.5694(5) 0.7925(2) 0.7327(3)
C70 C 0.5240(6) 0.8045(2) 0.7745(3)
C71 C 0.6525(5) 0.5663(2) 0.8559(3)
C72 C 0.5410(5) 0.6624(2) 0.6721(2)
C73 C 0.5862(5) 0.5780(2) 0.8878(3)
C74 C 0.4934(5) 0.7713(2) 0.8065(2)
H19 H 0.363 0.582 0.716
H20 H 0.399 0.685 0.942
H21 H 0.649 0.658 0.791
H22 H 0.460 0.614 0.944
H23 H 0.388 0.761 0.908
H24 H 0.396 0.650 0.759
H25 H 0.630 0.688 0.623
H26 H 0.723 0.590 0.801
H27 H 0.435 0.814 0.854
H28 H 0.547 0.614 0.618
H29 H 0.643 0.759 0.657
H30 H 0.445 0.565 0.646
H31 H 0.601 0.814 0.715
H32 H 0.514 0.834 0.781
H33 H 0.681 0.538 0.858
H34 H 0.573 0.558 0.913
C49 C -0.0034(4) 0.8273(2) 0.2169(2)
C50 C 0.0020(3) 0.8057(2) 0.3376(2)
C51 C 0.0373(4) 0.8794(2) 0.3839(2)
C52 C 0.0678(4) 0.7518(2) 0.2169(2)
C53 C -0.0472(4) 0.7926(2) 0.3781(2)
C54 C 0.0066(4) 0.7744(2) 0.2950(2)
C55 C -0.0923(5) 0.8979(2) 0.2058(3)
C56 C -0.0635(4) 0.8239(3) 0.4174(2)
C57 C 0.0248(4) 0.7854(2) 0.2439(2)
C58 C 0.0537(4) 0.8492(2) 0.3431(2)
C59 C 0.1300(4) 0.8621(2) 0.3147(2)
C60 C -0.0251(4) 0.8658(2) 0.4194(2)
C61 C -0.0762(5) 0.7473(3) 0.3822(2)
C62 C -0.0719(4) 0.8575(2) 0.2317(2)
C63 C 0.0987(5) 0.8049(3) 0.1514(2)
C64 C 0.1754(4) 0.9029(2) 0.3210(2)
C65 C -0.0520(5) 0.7160(2) 0.3488(3)
C66 C 0.0184(6) 0.8789(3) 0.1468(2)
C67 C 0.1086(5) 0.7631(3) 0.1724(2)
C68 C -0.0435(6) 0.9080(3) 0.1630(3)
C69 C 0.0694(5) 0.7075(2) 0.2327(3)
C70 C 0.0240(6) 0.6955(2) 0.2745(3)
C71 C 0.1525(5) 0.9337(2) 0.3559(3)
C72 C 0.0410(5) 0.8376(2) 0.1721(2)
C73 C 0.0862(5) 0.9220(2) 0.3878(3)
C74 C -0.0066(5) 0.7287(2) 0.3065(2)
H19 H -0.137 0.918 0.216
H20 H -0.101 0.815 0.442
H21 H 0.149 0.842 0.291
H22 H -0.040 0.886 0.444
H23 H -0.112 0.739 0.408
H24 H -0.104 0.850 0.259
H25 H 0.130 0.812 0.123
H26 H 0.223 0.910 0.301
H27 H -0.065 0.686 0.354
H28 H 0.047 0.886 0.118
H29 H 0.143 0.741 0.157
H30 H -0.055 0.935 0.146
H31 H 0.101 0.686 0.215
H32 H 0.014 0.666 0.281
H33 H 0.181 0.962 0.358
H34 H 0.073 0.942 0.413
C49 C -0.0034(4) 0.1727(2) 0.7169(2)
C50 C 0.0020(3) 0.1943(2) 0.8376(2)
C51 C 0.0373(4) 0.1206(2) 0.8839(2)
C52 C 0.0678(4) 0.2482(2) 0.7169(2)
C53 C -0.0472(4) 0.2074(2) 0.8781(2)
C54 C 0.0066(4) 0.2256(2) 0.7950(2)
C55 C -0.0923(5) 0.1021(2) 0.7058(3)
C56 C -0.0635(4) 0.1761(3) 0.9174(2)
C57 C 0.0248(4) 0.2146(2) 0.7439(2)
C58 C 0.0537(4) 0.1508(2) 0.8431(2)
C59 C 0.1300(4) 0.1379(2) 0.8147(2)
C60 C -0.0251(4) 0.1342(2) 0.9194(2)
C61 C -0.0762(5) 0.2527(3) 0.8822(2)
C62 C -0.0719(4) 0.1425(2) 0.7317(2)
C63 C 0.0987(5) 0.1951(3) 0.6514(2)
C64 C 0.1754(4) 0.0971(2) 0.8210(2)
C65 C -0.0520(5) 0.2840(2) 0.8488(3)
C66 C 0.0184(6) 0.1211(3) 0.6468(2)
C67 C 0.1086(5) 0.2369(3) 0.6724(2)
C68 C -0.0435(6) 0.0920(3) 0.6630(3)
C69 C 0.0694(5) 0.2925(2) 0.7327(3)
C70 C 0.0240(6) 0.3045(2) 0.7745(3)
C71 C 0.1525(5) 0.0663(2) 0.8559(3)
C72 C 0.0410(5) 0.1624(2) 0.6721(2)
C73 C 0.0862(5) 0.0780(2) 0.8878(3)
C74 C -0.0066(5) 0.2713(2) 0.8065(2)
H19 H -0.137 0.082 0.716
H20 H -0.101 0.185 0.942
H21 H 0.149 0.158 0.791
H22 H -0.040 0.114 0.944
H23 H -0.112 0.261 0.908
H24 H -0.104 0.150 0.759
H25 H 0.130 0.188 0.623
H26 H 0.223 0.090 0.801
H27 H -0.065 0.314 0.854
H28 H 0.047 0.114 0.618
H29 H 0.143 0.259 0.657
H30 H -0.055 0.065 0.646
H31 H 0.101 0.314 0.715
H32 H 0.014 0.334 0.781
H33 H 0.181 0.038 0.858
H34 H 0.073 0.058 0.913
C75 C 0.1142(4) 0.5250(2) 0.3086(2)
C76 C 0.0094(5) 0.5480(2) 0.1591(2)
C77 C 0.1421(4) 0.5638(2) 0.3367(2)
C78 C 0.0319(5) 0.5435(3) 0.3961(3)
C79 C 0.0364(5) 0.4421(2) 0.2431(3)
C80 C -0.1310(5) 0.5726(2) 0.2216(2)
C81 C 0.0408(4) 0.4744(2) 0.2016(2)
C82 C 0.0167(4) 0.4524(2) 0.2939(3)
C83 C -0.0120(4) 0.5175(2) 0.1963(2)
C84 C -0.0875(5) 0.5299(2) 0.2255(2)
C85 C 0.0421(4) 0.4944(2) 0.3225(2)
C86 C 0.0994(5) 0.5746(2) 0.3803(2)
C87 C 0.0549(5) 0.3969(2) 0.2316(3)
C88 C 0.0941(5) 0.4620(2) 0.1620(3)
C89 C -0.0345(5) 0.5907(2) 0.1552(2)
C90 C 0.0226(7) 0.3623(2) 0.2631(4)
C91 C -0.0228(7) 0.3725(2) 0.3023(3)
C92 C -0.0643(5) 0.4291(3) 0.3675(3)
C93 C -0.0545(5) 0.4704(3) 0.3886(3)
C94 C 0.1266(5) 0.4167(2) 0.1572(3)
C95 C 0.0990(6) 0.3853(2) 0.1892(4)
C96 C 0.0722(5) 0.5351(2) 0.1228(2)
C97 C -0.1015(5) 0.6033(2) 0.1856(2)
C98 C 0.0056(4) 0.5035(2) 0.3685(2)
C99 C -0.0271(5) 0.4188(2) 0.3210(3)
C100 C 0.1087(5) 0.4929(2) 0.1230(2)
H35 H 0.143 0.519 0.280
H36 H 0.189 0.583 0.327
H37 H 0.004 0.550 0.426
H38 H -0.178 0.581 0.242
H39 H -0.108 0.509 0.248
H40 H 0.115 0.601 0.398
H41 H -0.017 0.611 0.131
H42 H 0.034 0.333 0.256
H43 H -0.053 0.350 0.319
H44 H -0.087 0.477 0.416
H45 H 0.166 0.409 0.133
H46 H 0.110 0.355 0.183
H47 H 0.088 0.556 0.099
H48 H -0.128 0.632 0.183
H49 H 0.144 0.484 0.097
C75 C 0.1142(4) 0.4750(2) 0.8086(2)
C76 C 0.0094(5) 0.4520(2) 0.6591(2)
C77 C 0.1421(4) 0.4362(2) 0.8367(2)
C78 C 0.0319(5) 0.4565(3) 0.8961(3)
C79 C 0.0364(5) 0.5579(2) 0.7431(3)
C80 C -0.1310(5) 0.4274(2) 0.7216(2)
C81 C 0.0408(4) 0.5256(2) 0.7016(2)
C82 C 0.0167(4) 0.5476(2) 0.7939(3)
C83 C -0.0120(4) 0.4825(2) 0.6963(2)
C84 C -0.0875(5) 0.4701(2) 0.7255(2)
C85 C 0.0421(4) 0.5056(2) 0.8225(2)
C86 C 0.0994(5) 0.4254(2) 0.8803(2)
C87 C 0.0549(5) 0.6031(2) 0.7316(3)
C88 C 0.0941(5) 0.5380(2) 0.6620(3)
C89 C -0.0345(5) 0.4093(2) 0.6552(2)
C90 C 0.0226(7) 0.6377(2) 0.7631(4)
C91 C -0.0228(7) 0.6275(2) 0.8023(3)
C92 C -0.0643(5) 0.5709(3) 0.8675(3)
C93 C -0.0545(5) 0.5296(3) 0.8886(3)
C94 C 0.1266(5) 0.5833(2) 0.6572(3)
C95 C 0.0990(6) 0.6147(2) 0.6892(4)
C96 C 0.0722(5) 0.4649(2) 0.6228(2)
C97 C -0.1015(5) 0.3967(2) 0.6856(2)
C98 C 0.0056(4) 0.4965(2) 0.8685(2)
C99 C -0.0271(5) 0.5812(2) 0.8210(3)
C100 C 0.1087(5) 0.5071(2) 0.6230(2)
H35 H 0.143 0.481 0.780
H36 H 0.189 0.417 0.827
H37 H 0.004 0.450 0.926
H38 H -0.178 0.419 0.742
H39 H -0.108 0.491 0.748
H40 H 0.115 0.399 0.898
H41 H -0.017 0.389 0.631
H42 H 0.034 0.667 0.756
H43 H -0.053 0.650 0.819
H44 H -0.087 0.523 0.916
H45 H 0.166 0.591 0.633
H46 H 0.110 0.645 0.683
H47 H 0.088 0.444 0.599
H48 H -0.128 0.368 0.683
H49 H 0.144 0.516 0.597
C75 C 0.6142(4) 1.0250(2) 0.3086(2)
C76 C 0.5094(5) 1.0480(2) 0.1591(2)
C77 C 0.6421(4) 1.0638(2) 0.3367(2)
C78 C 0.5319(5) 1.0435(3) 0.3961(3)
C79 C 0.5364(5) 0.9421(2) 0.2431(3)
C80 C 0.3690(5) 1.0726(2) 0.2216(2)
C81 C 0.5408(4) 0.9744(2) 0.2016(2)
C82 C 0.5167(4) 0.9524(2) 0.2939(3)
C83 C 0.4880(4) 1.0175(2) 0.1963(2)
C84 C 0.4125(5) 1.0299(2) 0.2255(2)
C85 C 0.5421(4) 0.9944(2) 0.3225(2)
C86 C 0.5994(5) 1.0746(2) 0.3803(2)
C87 C 0.5549(5) 0.8969(2) 0.2316(3)
C88 C 0.5941(5) 0.9620(2) 0.1620(3)
C89 C 0.4655(5) 1.0907(2) 0.1552(2)
C90 C 0.5226(7) 0.8623(2) 0.2631(4)
C91 C 0.4772(7) 0.8725(2) 0.3023(3)
C92 C 0.4357(5) 0.9291(3) 0.3675(3)
C93 C 0.4455(5) 0.9704(3) 0.3886(3)
C94 C 0.6266(5) 0.9167(2) 0.1572(3)
C95 C 0.5990(6) 0.8853(2) 0.1892(4)
C96 C 0.5722(5) 1.0351(2) 0.1228(2)
C97 C 0.3985(5) 1.1033(2) 0.1856(2)
C98 C 0.5056(4) 1.0035(2) 0.3685(2)
C99 C 0.4729(5) 0.9188(2) 0.3210(3)
C100 C 0.6087(5) 0.9929(2) 0.1230(2)
H35 H 0.643 1.019 0.280
H36 H 0.689 1.083 0.327
H37 H 0.504 1.050 0.426
H38 H 0.322 1.081 0.242
H39 H 0.392 1.009 0.248
H40 H 0.615 1.101 0.398
H41 H 0.483 1.111 0.131
H42 H 0.534 0.833 0.256
H43 H 0.447 0.850 0.319
H44 H 0.413 0.977 0.416
H45 H 0.666 0.909 0.133
H46 H 0.610 0.855 0.183
H47 H 0.588 1.056 0.099
H48 H 0.372 1.132 0.183
H49 H 0.644 0.984 0.097
C75 C 0.6142(4) -0.0250(2) 0.8086(2)
C76 C 0.5094(5) -0.0480(2) 0.6591(2)
C77 C 0.6421(4) -0.0638(2) 0.8367(2)
C78 C 0.5319(5) -0.0435(3) 0.8961(3)
C79 C 0.5364(5) 0.0579(2) 0.7431(3)
C80 C 0.3690(5) -0.0726(2) 0.7216(2)
C81 C 0.5408(4) 0.0256(2) 0.7016(2)
C82 C 0.5167(4) 0.0476(2) 0.7939(3)
C83 C 0.4880(4) -0.0175(2) 0.6963(2)
C84 C 0.4125(5) -0.0299(2) 0.7255(2)
C85 C 0.5421(4) 0.0056(2) 0.8225(2)
C86 C 0.5994(5) -0.0746(2) 0.8803(2)
C87 C 0.5549(5) 0.1031(2) 0.7316(3)
C88 C 0.5941(5) 0.0380(2) 0.6620(3)
C89 C 0.4655(5) -0.0907(2) 0.6552(2)
C90 C 0.5226(7) 0.1377(2) 0.7631(4)
C91 C 0.4772(7) 0.1275(2) 0.8023(3)
C92 C 0.4357(5) 0.0709(3) 0.8675(3)
C93 C 0.4455(5) 0.0296(3) 0.8886(3)
C94 C 0.6266(5) 0.0833(2) 0.6572(3)
C95 C 0.5990(6) 0.1147(2) 0.6892(4)
C96 C 0.5722(5) -0.0351(2) 0.6228(2)
C97 C 0.3985(5) -0.1033(2) 0.6856(2)
C98 C 0.5056(4) -0.0035(2) 0.8685(2)
C99 C 0.4729(5) 0.0812(2) 0.8210(3)
C100 C 0.6087(5) 0.0071(2) 0.6230(2)
H35 H 0.643 -0.019 0.780
H36 H 0.689 -0.083 0.827
H37 H 0.504 -0.050 0.926
H38 H 0.322 -0.081 0.742
H39 H 0.392 -0.009 0.748
H40 H 0.615 -0.101 0.898
H41 H 0.483 -0.111 0.631
H42 H 0.534 0.167 0.756
H43 H 0.447 0.150 0.819
H44 H 0.413 0.023 0.916
H45 H 0.666 0.091 0.633
H46 H 0.610 0.145 0.683
H47 H 0.588 -0.056 0.599
H48 H 0.372 -0.132 0.683
H49 H 0.644 0.016 0.597
C101 C 0.1259(2) 0.1951(1) 0.2968(1)
C102 C 0.1560(3) 0.2350(1) 0.3204(1)
C103 C 0.1159(4) 0.2497(2) 0.3628(1)
C104 C 0.0497(4) 0.2232(2) 0.3824(1)
C105 C 0.0205(3) 0.1810(2) 0.3607(1)
C106 C 0.0555(2) 0.1672(1) 0.3150(1)
C107 C 0.0258(2) 0.1235(1) 0.2927(1)
C108 C -0.0116(3) 0.0927(2) 0.3251(2)
C109 C -0.0462(4) 0.1079(2) 0.3704(2)
C110 C -0.0360(4) 0.1508(2) 0.3859(1)
C111 C -0.0110(4) 0.0466(1) 0.3132(2)
C112 C 0.0282(4) 0.0323(1) 0.2723(2)
C113 C 0.0564(4) 0.0624(1) 0.2354(2)
C114 C 0.0419(3) 0.1087(1) 0.2416(1)
C115 C 0.1002(4) 0.0469(1) 0.1935(2)
C116 C 0.1248(4) 0.0754(2) 0.1581(2)
C117 C 0.0945(3) 0.1210(1) 0.1572(1)
C118 C 0.0443(2) 0.1370(1) 0.1969(1)
C119 C 0.1117(4) 0.1498(2) 0.1164(1)
C120 C 0.0811(4) 0.1924(2) 0.1141(1)
C121 C 0.0189(3) 0.2089(1) 0.1486(1)
C122 C -0.0061(2) 0.1800(1) 0.1877(1)
C123 C -0.0235(4) 0.2519(1) 0.1425(1)
C124 C -0.0933(4) 0.2656(1) 0.1709(2)
C125 C -0.1268(3) 0.2358(1) 0.2048(2)
C126 C -0.0843(2) 0.1942(1) 0.2133(1)
C101 C 0.1259(2) 0.8049(1) 0.7968(1)
C102 C 0.1560(3) 0.7650(1) 0.8204(1)
C103 C 0.1159(4) 0.7503(2) 0.8628(1)
C104 C 0.0497(4) 0.7768(2) 0.8824(1)
C105 C 0.0205(3) 0.8190(2) 0.8607(1)
C106 C 0.0555(2) 0.8328(1) 0.8150(1)
C107 C 0.0258(2) 0.8765(1) 0.7927(1)
C108 C -0.0116(3) 0.9073(2) 0.8251(2)
C109 C -0.0462(4) 0.8921(2) 0.8704(2)
C110 C -0.0360(4) 0.8492(2) 0.8859(1)
C111 C -0.0110(4) 0.9534(1) 0.8132(2)
C112 C 0.0282(4) 0.9677(1) 0.7723(2)
C113 C 0.0564(4) 0.9376(1) 0.7354(2)
C114 C 0.0419(3) 0.8913(1) 0.7416(1)
C115 C 0.1002(4) 0.9531(1) 0.6935(2)
C116 C 0.1248(4) 0.9246(2) 0.6581(2)
C117 C 0.0945(3) 0.8790(1) 0.6572(1)
C118 C 0.0443(2) 0.8630(1) 0.6969(1)
C119 C 0.1117(4) 0.8502(2) 0.6164(1)
C120 C 0.0811(4) 0.8076(2) 0.6141(1)
C121 C 0.0189(3) 0.7911(1) 0.6486(1)
C122 C -0.0061(2) 0.8200(1) 0.6877(1)
C123 C -0.0235(4) 0.7481(1) 0.6425(1)
C124 C -0.0933(4) 0.7344(1) 0.6709(2)
C125 C -0.1268(3) 0.7642(1) 0.7048(2)
C126 C -0.0843(2) 0.8058(1) 0.7133(1)
C101 C 0.6259(2) 0.6951(1) 0.2968(1)
C102 C 0.6560(3) 0.7350(1) 0.3204(1)
C103 C 0.6159(4) 0.7497(2) 0.3628(1)
C104 C 0.5497(4) 0.7232(2) 0.3824(1)
C105 C 0.5205(3) 0.6810(2) 0.3607(1)
C106 C 0.5555(2) 0.6672(1) 0.3150(1)
C107 C 0.5258(2) 0.6235(1) 0.2927(1)
C108 C 0.4884(3) 0.5927(2) 0.3251(2)
C109 C 0.4538(4) 0.6079(2) 0.3704(2)
C110 C 0.4640(4) 0.6508(2) 0.3859(1)
C111 C 0.4890(4) 0.5466(1) 0.3132(2)
C112 C 0.5282(4) 0.5323(1) 0.2723(2)
C113 C 0.5564(4) 0.5624(1) 0.2354(2)
C114 C 0.5419(3) 0.6087(1) 0.2416(1)
C115 C 0.6002(4) 0.5469(1) 0.1935(2)
C116 C 0.6248(4) 0.5754(2) 0.1581(2)
C117 C 0.5945(3) 0.6210(1) 0.1572(1)
C118 C 0.5443(2) 0.6370(1) 0.1969(1)
C119 C 0.6117(4) 0.6498(2) 0.1164(1)
C120 C 0.5811(4) 0.6924(2) 0.1141(1)
C121 C 0.5189(3) 0.7089(1) 0.1486(1)
C122 C 0.4939(2) 0.6800(1) 0.1877(1)
C123 C 0.4765(4) 0.7519(1) 0.1425(1)
C124 C 0.4067(4) 0.7656(1) 0.1709(2)
C125 C 0.3732(3) 0.7358(1) 0.2048(2)
C126 C 0.4157(2) 0.6942(1) 0.2133(1)
C101 C 0.6259(2) 0.3049(1) 0.7968(1)
C102 C 0.6560(3) 0.2650(1) 0.8204(1)
C103 C 0.6159(4) 0.2503(2) 0.8628(1)
C104 C 0.5497(4) 0.2768(2) 0.8824(1)
C105 C 0.5205(3) 0.3190(2) 0.8607(1)
C106 C 0.5555(2) 0.3328(1) 0.8150(1)
C107 C 0.5258(2) 0.3765(1) 0.7927(1)
C108 C 0.4884(3) 0.4073(2) 0.8251(2)
C109 C 0.4538(4) 0.3921(2) 0.8704(2)
C110 C 0.4640(4) 0.3492(2) 0.8859(1)
C111 C 0.4890(4) 0.4534(1) 0.8132(2)
C112 C 0.5282(4) 0.4677(1) 0.7723(2)
C113 C 0.5564(4) 0.4376(1) 0.7354(2)
C114 C 0.5419(3) 0.3913(1) 0.7416(1)
C115 C 0.6002(4) 0.4531(1) 0.6935(2)
C116 C 0.6248(4) 0.4246(2) 0.6581(2)
C117 C 0.5945(3) 0.3790(1) 0.6572(1)
C118 C 0.5443(2) 0.3630(1) 0.6969(1)
C119 C 0.6117(4) 0.3502(2) 0.6164(1)
C120 C 0.5811(4) 0.3076(2) 0.6141(1)
C121 C 0.5189(3) 0.2911(1) 0.6486(1)
C122 C 0.4939(2) 0.3200(1) 0.6877(1)
C123 C 0.4765(4) 0.2481(1) 0.6425(1)
C124 C 0.4067(4) 0.2344(1) 0.6709(2)
C125 C 0.3732(3) 0.2642(1) 0.7048(2)
C126 C 0.4157(2) 0.3058(1) 0.7133(1)
C127? C 0.1515(2) 0.1969(1) 0.3043(1)
C128? C 0.1993(3) 0.2373(1) 0.3132(2)
C129? C 0.1674(4) 0.2682(1) 0.3464(2)
C130? C 0.0914(4) 0.2573(1) 0.3719(2)
C131? C 0.0436(3) 0.2152(1) 0.3657(1)
C132? C 0.0706(2) 0.1847(1) 0.3290(1)
C133? C 0.0217(2) 0.1412(1) 0.3227(1)
C134? C -0.0279(3) 0.1270(1) 0.3628(1)
C135? C -0.0540(4) 0.1586(2) 0.3987(1)
C136? C -0.0246(4) 0.2015(2) 0.3983(1)
C137? C -0.0480(4) 0.0811(2) 0.3682(2)
C138? C -0.0170(4) 0.0511(1) 0.3363(2)
C139? C 0.0232(3) 0.0643(1) 0.2918(2)
C140? C 0.0297(2) 0.1103(1) 0.2806(1)
C141? C 0.0583(4) 0.0324(1) 0.2596(2)
C142? C 0.0942(4) 0.0450(1) 0.2170(2)
C143? C 0.0848(3) 0.0899(1) 0.1989(1)
C144? C 0.0436(2) 0.1223(1) 0.2286(1)
C145? C 0.1134(4) 0.1021(2) 0.1509(2)
C146? C 0.1023(4) 0.1439(2) 0.1324(1)
C147? C 0.0495(3) 0.1765(2) 0.1569(1)
C148? C 0.0132(3) 0.1647(1) 0.2030(1)
C149? C 0.0269(4) 0.2188(2) 0.1343(1)
C150? C -0.0346(4) 0.2478(2) 0.1537(2)
C151? C -0.0799(4) 0.2346(1) 0.1950(2)
C152? C -0.0565(3) 0.1943(1) 0.2193(1)
C127? C 0.1515(2) 0.8031(1) 0.8043(1)
C128? C 0.1993(3) 0.7627(1) 0.8132(2)
C129? C 0.1674(4) 0.7318(1) 0.8464(2)
C130? C 0.0914(4) 0.7427(1) 0.8719(2)
C131? C 0.0436(3) 0.7848(1) 0.8657(1)
C132? C 0.0706(2) 0.8153(1) 0.8290(1)
C133? C 0.0217(2) 0.8588(1) 0.8227(1)
C134? C -0.0279(3) 0.8730(1) 0.8628(1)
C135? C -0.0540(4) 0.8414(2) 0.8987(1)
C136? C -0.0246(4) 0.7985(2) 0.8983(1)
C137? C -0.0480(4) 0.9189(2) 0.8682(2)
C138? C -0.0170(4) 0.9489(1) 0.8363(2)
C139? C 0.0232(3) 0.9357(1) 0.7918(2)
C140? C 0.0297(2) 0.8897(1) 0.7806(1)
C141? C 0.0583(4) 0.9676(1) 0.7596(2)
C142? C 0.0942(4) 0.9550(1) 0.7170(2)
C143? C 0.0848(3) 0.9101(1) 0.6989(1)
C144? C 0.0436(2) 0.8777(1) 0.7286(1)
C145? C 0.1134(4) 0.8979(2) 0.6509(2)
C146? C 0.1023(4) 0.8561(2) 0.6324(1)
C147? C 0.0495(3) 0.8235(2) 0.6569(1)
C148? C 0.0132(3) 0.8353(1) 0.7030(1)
C149? C 0.0269(4) 0.7812(2) 0.6343(1)
C150? C -0.0346(4) 0.7522(2) 0.6537(2)
C151? C -0.0799(4) 0.7654(1) 0.6950(2)
C152? C -0.0565(3) 0.8057(1) 0.7193(1)
C127? C 0.6515(2) 0.6969(1) 0.3043(1)
C128? C 0.6993(3) 0.7373(1) 0.3132(2)
C129? C 0.6674(4) 0.7682(1) 0.3464(2)
C130? C 0.5914(4) 0.7573(1) 0.3719(2)
C131? C 0.5436(3) 0.7152(1) 0.3657(1)
C132? C 0.5706(2) 0.6847(1) 0.3290(1)
C133? C 0.5217(2) 0.6412(1) 0.3227(1)
C134? C 0.4721(3) 0.6270(1) 0.3628(1)
C135? C 0.4460(4) 0.6586(2) 0.3987(1)
C136? C 0.4754(4) 0.7015(2) 0.3983(1)
C137? C 0.4520(4) 0.5811(2) 0.3682(2)
C138? C 0.4830(4) 0.5511(1) 0.3363(2)
C139? C 0.5232(3) 0.5643(1) 0.2918(2)
C140? C 0.5297(2) 0.6103(1) 0.2806(1)
C141? C 0.5583(4) 0.5324(1) 0.2596(2)
C142? C 0.5942(4) 0.5450(1) 0.2170(2)
C143? C 0.5848(3) 0.5899(1) 0.1989(1)
C144? C 0.5436(2) 0.6223(1) 0.2286(1)
C145? C 0.6134(4) 0.6021(2) 0.1509(2)
C146? C 0.6023(4) 0.6439(2) 0.1324(1)
C147? C 0.5495(3) 0.6765(2) 0.1569(1)
C148? C 0.5132(3) 0.6647(1) 0.2030(1)
C149? C 0.5269(4) 0.7188(2) 0.1343(1)
C150? C 0.4654(4) 0.7478(2) 0.1537(2)
C151? C 0.4201(4) 0.7346(1) 0.1950(2)
C152? C 0.4435(3) 0.6943(1) 0.2193(1)
C127? C 0.6515(2) 0.3031(1) 0.8043(1)
C128? C 0.6993(3) 0.2627(1) 0.8132(2)
C129? C 0.6674(4) 0.2318(1) 0.8464(2)
C130? C 0.5914(4) 0.2427(1) 0.8719(2)
C131? C 0.5436(3) 0.2848(1) 0.8657(1)
C132? C 0.5706(2) 0.3153(1) 0.8290(1)
C133? C 0.5217(2) 0.3588(1) 0.8227(1)
C134? C 0.4721(3) 0.3730(1) 0.8628(1)
C135? C 0.4460(4) 0.3414(2) 0.8987(1)
C136? C 0.4754(4) 0.2985(2) 0.8983(1)
C137? C 0.4520(4) 0.4189(2) 0.8682(2)
C138? C 0.4830(4) 0.4489(1) 0.8363(2)
C139? C 0.5232(3) 0.4357(1) 0.7918(2)
C140? C 0.5297(2) 0.3897(1) 0.7806(1)
C141? C 0.5583(4) 0.4676(1) 0.7596(2)
C142? C 0.5942(4) 0.4550(1) 0.7170(2)
C143? C 0.5848(3) 0.4101(1) 0.6989(1)
C144? C 0.5436(2) 0.3777(1) 0.7286(1)
C145? C 0.6134(4) 0.3979(2) 0.6509(2)
C146? C 0.6023(4) 0.3561(2) 0.6324(1)
C147? C 0.5495(3) 0.3235(2) 0.6569(1)
C148? C 0.5132(3) 0.3353(1) 0.7030(1)
C149? C 0.5269(4) 0.2812(2) 0.6343(1)
C150? C 0.4654(4) 0.2522(2) 0.6537(2)
C151? C 0.4201(4) 0.2654(1) 0.6950(2)
C152? C 0.4435(3) 0.3057(1) 0.7193(1)

#END
