./ABUPAO_from_xyz.cif_generated_by_CrystalShift
_symmetry_cell_setting triclinic
_symmetry_space_group_name_H-M 'P 1'
loop_
_symmetry_equiv_pos_site_id
_symmetry_equiv_pos_as_xyz
1 x,y,z
_cell_length_a 13.241500
_cell_length_b 30.068600
_cell_length_c 25.842200
_cell_angle_alpha 90.000000
_cell_angle_beta 102.555000
_cell_angle_gamma 90.000000
_cell_volume 10043.122454
loop_
_atom_site_label
_atom_site_type_symbol
_atom_site_fract_x
_atom_site_fract_y
_atom_site_fract_z
C1 C 0.863300 0.397300 0.109300
C2 C 0.793300 0.470900 0.111800
N3 N 0.771500 0.415800 0.179700
C4 C 0.811900 0.528000 0.044100
C5 C 0.887300 0.452200 0.045300
C6 C 0.830700 0.482500 0.068100
O7 O 0.750500 0.553000 0.061800
C8 C 0.810200 0.428300 0.132900
O9 O 1.002500 0.391800 0.003800
O10 O 0.731800 0.445400 0.201000
O11 O 0.968400 0.337500 0.057800
O12 O 0.853800 0.538800 0.006500
O13 O 0.780300 0.377000 0.195400
C14 C 0.962200 0.376800 0.041700
C15 C 0.903500 0.409100 0.066600
H16 H 0.872000 0.368000 0.122000
H17 H 0.757000 0.491000 0.127000
H18 H 0.914000 0.460000 0.016000
C19 C 0.863300 0.602700 0.609300
C20 C 0.793300 0.529100 0.611800
N21 N 0.771500 0.584200 0.679700
C22 C 0.811900 0.472000 0.544100
C23 C 0.887300 0.547800 0.545300
C24 C 0.830700 0.517500 0.568100
O25 O 0.750500 0.447000 0.561800
C26 C 0.810200 0.571700 0.632900
O27 O 1.002500 0.608200 0.503800
O28 O 0.731800 0.554600 0.701000
O29 O 0.968400 0.662500 0.557800
O30 O 0.853800 0.461200 0.506500
O31 O 0.780300 0.623000 0.695400
C32 C 0.962200 0.623200 0.541700
C33 C 0.903500 0.590900 0.566600
H34 H 0.872000 0.632000 0.622000
H35 H 0.757000 0.509000 0.627000
H36 H 0.914000 0.540000 0.516000
C37 C 0.363300 0.897300 0.109300
C38 C 0.293300 0.970900 0.111800
N39 N 0.271500 0.915800 0.179700
C40 C 0.311900 1.028000 0.044100
C41 C 0.387300 0.952200 0.045300
C42 C 0.330700 0.982500 0.068100
O43 O 0.250500 1.053000 0.061800
C44 C 0.310200 0.928300 0.132900
O45 O 0.502500 0.891800 0.003800
O46 O 0.231800 0.945400 0.201000
O47 O 0.468400 0.837500 0.057800
O48 O 0.353800 1.038800 0.006500
O49 O 0.280300 0.877000 0.195400
C50 C 0.462200 0.876800 0.041700
C51 C 0.403500 0.909100 0.066600
H52 H 0.372000 0.868000 0.122000
H53 H 0.257000 0.991000 0.127000
H54 H 0.414000 0.960000 0.016000
C55 C 0.363300 0.102700 0.609300
C56 C 0.293300 0.029100 0.611800
N57 N 0.271500 0.084200 0.679700
C58 C 0.311900 -0.028000 0.544100
C59 C 0.387300 0.047800 0.545300
C60 C 0.330700 0.017500 0.568100
O61 O 0.250500 -0.053000 0.561800
C62 C 0.310200 0.071700 0.632900
O63 O 0.502500 0.108200 0.503800
O64 O 0.231800 0.054600 0.701000
O65 O 0.468400 0.162500 0.557800
O66 O 0.353800 -0.038800 0.506500
O67 O 0.280300 0.123000 0.695400
C68 C 0.462200 0.123200 0.541700
C69 C 0.403500 0.090900 0.566600
H70 H 0.372000 0.132000 0.622000
H71 H 0.257000 0.009000 0.627000
H72 H 0.414000 0.040000 0.516000
C73 C 0.165100 0.409200 0.449200
O74 O 0.074000 0.386200 0.514800
O75 O 0.220100 0.533400 0.515700
O76 O 0.270500 0.384500 0.315600
C77 C 0.103600 0.376700 0.473600
O78 O 0.331400 0.551400 0.464800
O79 O 0.085200 0.338800 0.450300
C80 C 0.245300 0.481600 0.452100
C81 C 0.279300 0.473100 0.406900
O82 O 0.332900 0.451600 0.314800
N83 N 0.288900 0.421700 0.334100
C84 C 0.256400 0.431900 0.383100
C85 C 0.185600 0.451200 0.473500
C86 C 0.199900 0.399700 0.404000
C87 C 0.266700 0.525400 0.478900
H88 H 0.317000 0.494000 0.392000
H89 H 0.160000 0.459000 0.503000
H90 H 0.186000 0.372000 0.387000
C91 C 0.165100 0.590800 0.949200
O92 O 0.074000 0.613800 1.014800
O93 O 0.220100 0.466600 1.015700
O94 O 0.270500 0.615500 0.815600
C95 C 0.103600 0.623300 0.973600
O96 O 0.331400 0.448600 0.964800
O97 O 0.085200 0.661200 0.950300
C98 C 0.245300 0.518400 0.952100
C99 C 0.279300 0.526900 0.906900
O100 O 0.332900 0.548400 0.814800
N101 N 0.288900 0.578300 0.834100
C102 C 0.256400 0.568100 0.883100
C103 C 0.185600 0.548800 0.973500
C104 C 0.199900 0.600300 0.904000
C105 C 0.266700 0.474600 0.978900
H106 H 0.317000 0.506000 0.892000
H107 H 0.160000 0.541000 1.003000
H108 H 0.186000 0.628000 0.887000
C109 C 0.665100 0.909200 0.449200
O110 O 0.574000 0.886200 0.514800
O111 O 0.720100 1.033400 0.515700
O112 O 0.770500 0.884500 0.315600
C113 C 0.603600 0.876700 0.473600
O114 O 0.831400 1.051400 0.464800
O115 O 0.585200 0.838800 0.450300
C116 C 0.745300 0.981600 0.452100
C117 C 0.779300 0.973100 0.406900
O118 O 0.832900 0.951600 0.314800
N119 N 0.788900 0.921700 0.334100
C120 C 0.756400 0.931900 0.383100
C121 C 0.685600 0.951200 0.473500
C122 C 0.699900 0.899700 0.404000
C123 C 0.766700 1.025400 0.478900
H124 H 0.817000 0.994000 0.392000
H125 H 0.660000 0.959000 0.503000
H126 H 0.686000 0.872000 0.387000
C127 C 0.665100 0.090800 0.949200
O128 O 0.574000 0.113800 1.014800
O129 O 0.720100 -0.033400 1.015700
O130 O 0.770500 0.115500 0.815600
C131 C 0.603600 0.123300 0.973600
O132 O 0.831400 -0.051400 0.964800
O133 O 0.585200 0.161200 0.950300
C134 C 0.745300 0.018400 0.952100
C135 C 0.779300 0.026900 0.906900
O136 O 0.832900 0.048400 0.814800
N137 N 0.788900 0.078300 0.834100
C138 C 0.756400 0.068100 0.883100
C139 C 0.685600 0.048800 0.973500
C140 C 0.699900 0.100300 0.904000
C141 C 0.766700 -0.025400 0.978900
H142 H 0.817000 0.006000 0.892000
H143 H 0.660000 0.041000 1.003000
H144 H 0.686000 0.128000 0.887000
C145 C 0.365600 0.232300 0.109400
N146 N 0.274400 0.254300 0.179700
C147 C 0.331500 0.316700 0.066800
O148 O 0.252800 0.388200 0.057500
C149 C 0.294100 0.306700 0.110900
C150 C 0.386800 0.285000 0.043500
C151 C 0.313900 0.361500 0.042600
C152 C 0.309600 0.263900 0.132800
O153 O 0.364200 0.371000 0.007000
O154 O 0.491700 0.220400 -0.001600
O155 O 0.474100 0.171300 0.061100
O156 O 0.226600 0.282900 0.198600
O157 O 0.290500 0.216600 0.198400
C158 C 0.460700 0.209400 0.039800
C159 C 0.403700 0.243000 0.065300
H160 H 0.377000 0.204000 0.124000
H161 H 0.259000 0.328000 0.126000
H162 H 0.412000 0.292000 0.014000
C163 C 0.365600 0.767700 0.609400
N164 N 0.274400 0.745700 0.679700
C165 C 0.331500 0.683300 0.566800
O166 O 0.252800 0.611800 0.557500
C167 C 0.294100 0.693300 0.610900
C168 C 0.386800 0.715000 0.543500
C169 C 0.313900 0.638500 0.542600
C170 C 0.309600 0.736100 0.632800
O171 O 0.364200 0.629000 0.507000
O172 O 0.491700 0.779600 0.498400
O173 O 0.474100 0.828700 0.561100
O174 O 0.226600 0.717100 0.698600
O175 O 0.290500 0.783400 0.698400
C176 C 0.460700 0.790600 0.539800
C177 C 0.403700 0.757000 0.565300
H178 H 0.377000 0.796000 0.624000
H179 H 0.259000 0.672000 0.626000
H180 H 0.412000 0.708000 0.514000
C181 C 0.865600 0.732300 0.109400
N182 N 0.774400 0.754300 0.179700
C183 C 0.831500 0.816700 0.066800
O184 O 0.752800 0.888200 0.057500
C185 C 0.794100 0.806700 0.110900
C186 C 0.886800 0.785000 0.043500
C187 C 0.813900 0.861500 0.042600
C188 C 0.809600 0.763900 0.132800
O189 O 0.864200 0.871000 0.007000
O190 O 0.991700 0.720400 -0.001600
O191 O 0.974100 0.671300 0.061100
O192 O 0.726600 0.782900 0.198600
O193 O 0.790500 0.716600 0.198400
C194 C 0.960700 0.709400 0.039800
C195 C 0.903700 0.743000 0.065300
H196 H 0.877000 0.704000 0.124000
H197 H 0.759000 0.828000 0.126000
H198 H 0.912000 0.792000 0.014000
C199 C 0.865600 0.267700 0.609400
N200 N 0.774400 0.245700 0.679700
C201 C 0.831500 0.183300 0.566800
O202 O 0.752800 0.111800 0.557500
C203 C 0.794100 0.193300 0.610900
C204 C 0.886800 0.215000 0.543500
C205 C 0.813900 0.138500 0.542600
C206 C 0.809600 0.236100 0.632800
O207 O 0.864200 0.129000 0.507000
O208 O 0.991700 0.279600 0.498400
O209 O 0.974100 0.328700 0.561100
O210 O 0.726600 0.217100 0.698600
O211 O 0.790500 0.283400 0.698400
C212 C 0.960700 0.290600 0.539800
C213 C 0.903700 0.257000 0.565300
H214 H 0.877000 0.296000 0.624000
H215 H 0.759000 0.172000 0.626000
H216 H 0.912000 0.208000 0.514000
O217 O 0.063700 0.277700 1.014800
C218 C 0.166000 0.259600 0.952700
C219 C 0.239300 0.186700 0.953200
O220 O 0.104500 0.332700 0.962400
O221 O 0.323100 0.117100 0.961800
O222 O 0.218500 0.131400 1.016200
C223 C 0.105500 0.292300 0.977400
C224 C 0.255600 0.239900 0.886000
O225 O 0.276800 0.289100 0.819500
N226 N 0.289500 0.250600 0.837200
C227 C 0.181800 0.216400 0.974900
C228 C 0.275600 0.197200 0.908900
O229 O 0.328200 0.220900 0.816000
C230 C 0.201500 0.271300 0.908600
C231 C 0.259700 0.141700 0.979100
H232 H 0.154000 0.208000 1.004000
H233 H 0.313000 0.176000 0.894000
H234 H 0.190000 0.300000 0.894000
O235 O 0.063700 0.722300 0.514800
C236 C 0.166000 0.740400 0.452700
C237 C 0.239300 0.813300 0.453200
O238 O 0.104500 0.667300 0.462400
O239 O 0.323100 0.882900 0.461800
O240 O 0.218500 0.868600 0.516200
C241 C 0.105500 0.707700 0.477400
C242 C 0.255600 0.760100 0.386000
O243 O 0.276800 0.710900 0.319500
N244 N 0.289500 0.749400 0.337200
C245 C 0.181800 0.783600 0.474900
C246 C 0.275600 0.802800 0.408900
O247 O 0.328200 0.779100 0.316000
C248 C 0.201500 0.728700 0.408600
C249 C 0.259700 0.858300 0.479100
H250 H 0.154000 0.792000 0.504000
H251 H 0.313000 0.824000 0.394000
H252 H 0.190000 0.700000 0.394000
O253 O 0.563700 0.777700 1.014800
C254 C 0.666000 0.759600 0.952700
C255 C 0.739300 0.686700 0.953200
O256 O 0.604500 0.832700 0.962400
O257 O 0.823100 0.617100 0.961800
O258 O 0.718500 0.631400 1.016200
C259 C 0.605500 0.792300 0.977400
C260 C 0.755600 0.739900 0.886000
O261 O 0.776800 0.789100 0.819500
N262 N 0.789500 0.750600 0.837200
C263 C 0.681800 0.716400 0.974900
C264 C 0.775600 0.697200 0.908900
O265 O 0.828200 0.720900 0.816000
C266 C 0.701500 0.771300 0.908600
C267 C 0.759700 0.641700 0.979100
H268 H 0.654000 0.708000 1.004000
H269 H 0.813000 0.676000 0.894000
H270 H 0.690000 0.800000 0.894000
O271 O 0.563700 0.222300 0.514800
C272 C 0.666000 0.240400 0.452700
C273 C 0.739300 0.313300 0.453200
O274 O 0.604500 0.167300 0.462400
O275 O 0.823100 0.382900 0.461800
O276 O 0.718500 0.368600 0.516200
C277 C 0.605500 0.207700 0.477400
C278 C 0.755600 0.260100 0.386000
O279 O 0.776800 0.210900 0.319500
N280 N 0.789500 0.249400 0.337200
C281 C 0.681800 0.283600 0.474900
C282 C 0.775600 0.302800 0.408900
O283 O 0.828200 0.279100 0.316000
C284 C 0.701500 0.228700 0.408600
C285 C 0.759700 0.358300 0.479100
H286 H 0.654000 0.292000 0.504000
H287 H 0.813000 0.324000 0.394000
H288 H 0.690000 0.200000 0.394000
C289 C 0.846800 0.063800 0.135600
C290 C 0.800800 0.146800 0.087300
C291 C 0.791800 0.095400 0.156700
C292 C 0.858000 0.115400 0.065400
C293 C 0.775900 0.190500 0.061100
O294 O 0.819100 0.199800 0.022800
C295 C 0.766600 0.136300 0.133400
O296 O 0.714000 0.215800 0.077400
C297 C 0.880700 0.074700 0.089600
O298 O 0.976900 0.054700 0.026600
N299 N 0.759600 0.085300 0.206400
O300 O 0.955900 0.003900 0.086300
O301 O 0.775800 0.048100 0.224900
O302 O 0.719400 0.115200 0.227200
C303 C 0.940400 0.041300 0.065500
H304 H 0.861000 0.036000 0.151000
H305 H 0.880000 0.122000 0.035000
H306 H 0.727000 0.156000 0.148000
C307 C 0.846800 0.936200 0.635600
C308 C 0.800800 0.853200 0.587300
C309 C 0.791800 0.904600 0.656700
C310 C 0.858000 0.884600 0.565400
C311 C 0.775900 0.809500 0.561100
O312 O 0.819100 0.800200 0.522800
C313 C 0.766600 0.863700 0.633400
O314 O 0.714000 0.784200 0.577400
C315 C 0.880700 0.925300 0.589600
O316 O 0.976900 0.945300 0.526600
N317 N 0.759600 0.914700 0.706400
O318 O 0.955900 0.996100 0.586300
O319 O 0.775800 0.951900 0.724900
O320 O 0.719400 0.884800 0.727200
C321 C 0.940400 0.958700 0.565500
H322 H 0.861000 0.964000 0.651000
H323 H 0.880000 0.878000 0.535000
H324 H 0.727000 0.844000 0.648000
C325 C 0.346800 0.563800 0.135600
C326 C 0.300800 0.646800 0.087300
C327 C 0.291800 0.595400 0.156700
C328 C 0.358000 0.615400 0.065400
C329 C 0.275900 0.690500 0.061100
O330 O 0.319100 0.699800 0.022800
C331 C 0.266600 0.636300 0.133400
O332 O 0.214000 0.715800 0.077400
C333 C 0.380700 0.574700 0.089600
O334 O 0.476900 0.554700 0.026600
N335 N 0.259600 0.585300 0.206400
O336 O 0.455900 0.503900 0.086300
O337 O 0.275800 0.548100 0.224900
O338 O 0.219400 0.615200 0.227200
C339 C 0.440400 0.541300 0.065500
H340 H 0.361000 0.536000 0.151000
H341 H 0.380000 0.622000 0.035000
H342 H 0.227000 0.656000 0.148000
C343 C 0.346800 0.436200 0.635600
C344 C 0.300800 0.353200 0.587300
C345 C 0.291800 0.404600 0.656700
C346 C 0.358000 0.384600 0.565400
C347 C 0.275900 0.309500 0.561100
O348 O 0.319100 0.300200 0.522800
C349 C 0.266600 0.363700 0.633400
O350 O 0.214000 0.284200 0.577400
C351 C 0.380700 0.425300 0.589600
O352 O 0.476900 0.445300 0.526600
N353 N 0.259600 0.414700 0.706400
O354 O 0.455900 0.496100 0.586300
O355 O 0.275800 0.451900 0.724900
O356 O 0.219400 0.384800 0.727200
C357 C 0.440400 0.458700 0.565500
H358 H 0.361000 0.464000 0.651000
H359 H 0.380000 0.378000 0.535000
H360 H 0.227000 0.344000 0.648000
C361 C 0.144800 0.076300 0.476100
C362 C 0.086800 0.042800 0.500800
O363 O 0.053700 0.054600 0.541000
C364 C 0.183300 0.064000 0.431900
O365 O 0.075600 0.004000 0.482000
C366 C 0.252700 0.139400 0.430100
O367 O 0.288300 0.221900 0.479900
C368 C 0.235600 0.096900 0.410000
N369 N 0.274700 0.084300 0.361800
C370 C 0.212100 0.150200 0.474100
C371 C 0.157200 0.119000 0.496200
O372 O 0.182700 0.205300 0.534300
O373 O 0.263800 0.046200 0.346100
C374 C 0.229700 0.195900 0.497500
O375 O 0.316300 0.114400 0.341100
H376 H 0.174000 0.035000 0.418000
H377 H 0.290000 0.160000 0.415000
H378 H 0.129000 0.127000 0.525000
C379 C 0.144800 0.923700 0.976100
C380 C 0.086800 0.957200 1.000800
O381 O 0.053700 0.945400 1.041000
C382 C 0.183300 0.936000 0.931900
O383 O 0.075600 0.996000 0.982000
C384 C 0.252700 0.860600 0.930100
O385 O 0.288300 0.778100 0.979900
C386 C 0.235600 0.903100 0.910000
N387 N 0.274700 0.915700 0.861800
C388 C 0.212100 0.849800 0.974100
C389 C 0.157200 0.881000 0.996200
O390 O 0.182700 0.794700 1.034300
O391 O 0.263800 0.953800 0.846100
C392 C 0.229700 0.804100 0.997500
O393 O 0.316300 0.885600 0.841100
H394 H 0.174000 0.965000 0.918000
H395 H 0.290000 0.840000 0.915000
H396 H 0.129000 0.873000 1.025000
C397 C 0.644800 0.576300 0.476100
C398 C 0.586800 0.542800 0.500800
O399 O 0.553700 0.554600 0.541000
C400 C 0.683300 0.564000 0.431900
O401 O 0.575600 0.504000 0.482000
C402 C 0.752700 0.639400 0.430100
O403 O 0.788300 0.721900 0.479900
C404 C 0.735600 0.596900 0.410000
N405 N 0.774700 0.584300 0.361800
C406 C 0.712100 0.650200 0.474100
C407 C 0.657200 0.619000 0.496200
O408 O 0.682700 0.705300 0.534300
O409 O 0.763800 0.546200 0.346100
C410 C 0.729700 0.695900 0.497500
O411 O 0.816300 0.614400 0.341100
H412 H 0.674000 0.535000 0.418000
H413 H 0.790000 0.660000 0.415000
H414 H 0.629000 0.627000 0.525000
C415 C 0.644800 0.423700 0.976100
C416 C 0.586800 0.457200 1.000800
O417 O 0.553700 0.445400 1.041000
C418 C 0.683300 0.436000 0.931900
O419 O 0.575600 0.496000 0.982000
C420 C 0.752700 0.360600 0.930100
O421 O 0.788300 0.278100 0.979900
C422 C 0.735600 0.403100 0.910000
N423 N 0.774700 0.415700 0.861800
C424 C 0.712100 0.349800 0.974100
C425 C 0.657200 0.381000 0.996200
O426 O 0.682700 0.294700 1.034300
O427 O 0.763800 0.453800 0.846100
C428 C 0.729700 0.304100 0.997500
O429 O 0.816300 0.385600 0.841100
H430 H 0.674000 0.465000 0.918000
H431 H 0.790000 0.340000 0.915000
H432 H 0.629000 0.373000 1.025000
C433 C 0.496600 0.327300 0.216900
C434 C 0.502000 0.305700 0.337600
C435 C 0.537300 0.379400 0.383900
C436 C 0.567800 0.251800 0.216900
C437 C 0.452800 0.292600 0.378100
C438 C 0.506600 0.274400 0.295000
C439 C 0.407700 0.397900 0.205800
C440 C 0.436500 0.323900 0.417400
C441 C 0.524800 0.285400 0.243900
C442 C 0.553700 0.349200 0.343100
C443 C 0.630000 0.362100 0.314700
C444 C 0.474900 0.365800 0.419400
C445 C 0.423800 0.247300 0.382200
C446 C 0.428100 0.357500 0.231700
C447 C 0.598700 0.304900 0.151400
C448 C 0.675400 0.402900 0.321000
C449 C 0.448000 0.216000 0.348800
C450 C 0.518400 0.378900 0.146800
C451 C 0.608600 0.263100 0.172400
C452 C 0.456500 0.408000 0.163000
C453 C 0.569400 0.207500 0.232700
C454 C 0.524000 0.195500 0.274500
C455 C 0.652500 0.433700 0.355900
C456 C 0.541000 0.337600 0.172100
C457 C 0.586200 0.422000 0.387800
C458 C 0.493400 0.228700 0.306500
H459 H 0.363000 0.418000 0.216000
H460 H 0.399000 0.315000 0.442000
H461 H 0.649000 0.342000 0.291000
H462 H 0.460000 0.386000 0.444000
H463 H 0.388000 0.239000 0.408000
H464 H 0.396000 0.350000 0.259000
H465 H 0.630000 0.312000 0.123000
H466 H 0.723000 0.410000 0.301000
H467 H 0.435000 0.186000 0.354000
H468 H 0.547000 0.386000 0.118000
H469 H 0.643000 0.241000 0.157000
H470 H 0.445000 0.435000 0.146000
H471 H 0.601000 0.186000 0.215000
H472 H 0.514000 0.166000 0.281000
H473 H 0.681000 0.462000 0.358000
H474 H 0.573000 0.442000 0.413000
C475 C 0.496600 0.672700 0.716900
C476 C 0.502000 0.694300 0.837600
C477 C 0.537300 0.620600 0.883900
C478 C 0.567800 0.748200 0.716900
C479 C 0.452800 0.707400 0.878100
C480 C 0.506600 0.725600 0.795000
C481 C 0.407700 0.602100 0.705800
C482 C 0.436500 0.676100 0.917400
C483 C 0.524800 0.714600 0.743900
C484 C 0.553700 0.650800 0.843100
C485 C 0.630000 0.637900 0.814700
C486 C 0.474900 0.634200 0.919400
C487 C 0.423800 0.752700 0.882200
C488 C 0.428100 0.642500 0.731700
C489 C 0.598700 0.695100 0.651400
C490 C 0.675400 0.597100 0.821000
C491 C 0.448000 0.784000 0.848800
C492 C 0.518400 0.621100 0.646800
C493 C 0.608600 0.736900 0.672400
C494 C 0.456500 0.592000 0.663000
C495 C 0.569400 0.792500 0.732700
C496 C 0.524000 0.804500 0.774500
C497 C 0.652500 0.566300 0.855900
C498 C 0.541000 0.662400 0.672100
C499 C 0.586200 0.578000 0.887800
C500 C 0.493400 0.771300 0.806500
H501 H 0.363000 0.582000 0.716000
H502 H 0.399000 0.685000 0.942000
H503 H 0.649000 0.658000 0.791000
H504 H 0.460000 0.614000 0.944000
H505 H 0.388000 0.761000 0.908000
H506 H 0.396000 0.650000 0.759000
H507 H 0.630000 0.688000 0.623000
H508 H 0.723000 0.590000 0.801000
H509 H 0.435000 0.814000 0.854000
H510 H 0.547000 0.614000 0.618000
H511 H 0.643000 0.759000 0.657000
H512 H 0.445000 0.565000 0.646000
H513 H 0.601000 0.814000 0.715000
H514 H 0.514000 0.834000 0.781000
H515 H 0.681000 0.538000 0.858000
H516 H 0.573000 0.558000 0.913000
C517 C -0.003400 0.827300 0.216900
C518 C 0.002000 0.805700 0.337600
C519 C 0.037300 0.879400 0.383900
C520 C 0.067800 0.751800 0.216900
C521 C -0.047200 0.792600 0.378100
C522 C 0.006600 0.774400 0.295000
C523 C -0.092300 0.897900 0.205800
C524 C -0.063500 0.823900 0.417400
C525 C 0.024800 0.785400 0.243900
C526 C 0.053700 0.849200 0.343100
C527 C 0.130000 0.862100 0.314700
C528 C -0.025100 0.865800 0.419400
C529 C -0.076200 0.747300 0.382200
C530 C -0.071900 0.857500 0.231700
C531 C 0.098700 0.804900 0.151400
C532 C 0.175400 0.902900 0.321000
C533 C -0.052000 0.716000 0.348800
C534 C 0.018400 0.878900 0.146800
C535 C 0.108600 0.763100 0.172400
C536 C -0.043500 0.908000 0.163000
C537 C 0.069400 0.707500 0.232700
C538 C 0.024000 0.695500 0.274500
C539 C 0.152500 0.933700 0.355900
C540 C 0.041000 0.837600 0.172100
C541 C 0.086200 0.922000 0.387800
C542 C -0.006600 0.728700 0.306500
H543 H -0.137000 0.918000 0.216000
H544 H -0.101000 0.815000 0.442000
H545 H 0.149000 0.842000 0.291000
H546 H -0.040000 0.886000 0.444000
H547 H -0.112000 0.739000 0.408000
H548 H -0.104000 0.850000 0.259000
H549 H 0.130000 0.812000 0.123000
H550 H 0.223000 0.910000 0.301000
H551 H -0.065000 0.686000 0.354000
H552 H 0.047000 0.886000 0.118000
H553 H 0.143000 0.741000 0.157000
H554 H -0.055000 0.935000 0.146000
H555 H 0.101000 0.686000 0.215000
H556 H 0.014000 0.666000 0.281000
H557 H 0.181000 0.962000 0.358000
H558 H 0.073000 0.942000 0.413000
C559 C -0.003400 0.172700 0.716900
C560 C 0.002000 0.194300 0.837600
C561 C 0.037300 0.120600 0.883900
C562 C 0.067800 0.248200 0.716900
C563 C -0.047200 0.207400 0.878100
C564 C 0.006600 0.225600 0.795000
C565 C -0.092300 0.102100 0.705800
C566 C -0.063500 0.176100 0.917400
C567 C 0.024800 0.214600 0.743900
C568 C 0.053700 0.150800 0.843100
C569 C 0.130000 0.137900 0.814700
C570 C -0.025100 0.134200 0.919400
C571 C -0.076200 0.252700 0.882200
C572 C -0.071900 0.142500 0.731700
C573 C 0.098700 0.195100 0.651400
C574 C 0.175400 0.097100 0.821000
C575 C -0.052000 0.284000 0.848800
C576 C 0.018400 0.121100 0.646800
C577 C 0.108600 0.236900 0.672400
C578 C -0.043500 0.092000 0.663000
C579 C 0.069400 0.292500 0.732700
C580 C 0.024000 0.304500 0.774500
C581 C 0.152500 0.066300 0.855900
C582 C 0.041000 0.162400 0.672100
C583 C 0.086200 0.078000 0.887800
C584 C -0.006600 0.271300 0.806500
H585 H -0.137000 0.082000 0.716000
H586 H -0.101000 0.185000 0.942000
H587 H 0.149000 0.158000 0.791000
H588 H -0.040000 0.114000 0.944000
H589 H -0.112000 0.261000 0.908000
H590 H -0.104000 0.150000 0.759000
H591 H 0.130000 0.188000 0.623000
H592 H 0.223000 0.090000 0.801000
H593 H -0.065000 0.314000 0.854000
H594 H 0.047000 0.114000 0.618000
H595 H 0.143000 0.259000 0.657000
H596 H -0.055000 0.065000 0.646000
H597 H 0.101000 0.314000 0.715000
H598 H 0.014000 0.334000 0.781000
H599 H 0.181000 0.038000 0.858000
H600 H 0.073000 0.058000 0.913000
C601 C 0.114200 0.525000 0.308600
C602 C 0.009400 0.548000 0.159100
C603 C 0.142100 0.563800 0.336700
C604 C 0.031900 0.543500 0.396100
C605 C 0.036400 0.442100 0.243100
C606 C -0.131000 0.572600 0.221600
C607 C 0.040800 0.474400 0.201600
C608 C 0.016700 0.452400 0.293900
C609 C -0.012000 0.517500 0.196300
C610 C -0.087500 0.529900 0.225500
C611 C 0.042100 0.494400 0.322500
C612 C 0.099400 0.574600 0.380300
C613 C 0.054900 0.396900 0.231600
C614 C 0.094100 0.462000 0.162000
C615 C -0.034500 0.590700 0.155200
C616 C 0.022600 0.362300 0.263100
C617 C -0.022800 0.372500 0.302300
C618 C -0.064300 0.429100 0.367500
C619 C -0.054500 0.470400 0.388600
C620 C 0.126600 0.416700 0.157200
C621 C 0.099000 0.385300 0.189200
C622 C 0.072200 0.535100 0.122800
C623 C -0.101500 0.603300 0.185600
C624 C 0.005600 0.503500 0.368500
C625 C -0.027100 0.418800 0.321000
C626 C 0.108700 0.492900 0.123000
H627 H 0.143000 0.519000 0.280000
H628 H 0.189000 0.583000 0.327000
H629 H 0.004000 0.550000 0.426000
H630 H -0.178000 0.581000 0.242000
H631 H -0.108000 0.509000 0.248000
H632 H 0.115000 0.601000 0.398000
H633 H -0.017000 0.611000 0.131000
H634 H 0.034000 0.333000 0.256000
H635 H -0.053000 0.350000 0.319000
H636 H -0.087000 0.477000 0.416000
H637 H 0.166000 0.409000 0.133000
H638 H 0.110000 0.355000 0.183000
H639 H 0.088000 0.556000 0.099000
H640 H -0.128000 0.632000 0.183000
H641 H 0.144000 0.484000 0.097000
C642 C 0.114200 0.475000 0.808600
C643 C 0.009400 0.452000 0.659100
C644 C 0.142100 0.436200 0.836700
C645 C 0.031900 0.456500 0.896100
C646 C 0.036400 0.557900 0.743100
C647 C -0.131000 0.427400 0.721600
C648 C 0.040800 0.525600 0.701600
C649 C 0.016700 0.547600 0.793900
C650 C -0.012000 0.482500 0.696300
C651 C -0.087500 0.470100 0.725500
C652 C 0.042100 0.505600 0.822500
C653 C 0.099400 0.425400 0.880300
C654 C 0.054900 0.603100 0.731600
C655 C 0.094100 0.538000 0.662000
C656 C -0.034500 0.409300 0.655200
C657 C 0.022600 0.637700 0.763100
C658 C -0.022800 0.627500 0.802300
C659 C -0.064300 0.570900 0.867500
C660 C -0.054500 0.529600 0.888600
C661 C 0.126600 0.583300 0.657200
C662 C 0.099000 0.614700 0.689200
C663 C 0.072200 0.464900 0.622800
C664 C -0.101500 0.396700 0.685600
C665 C 0.005600 0.496500 0.868500
C666 C -0.027100 0.581200 0.821000
C667 C 0.108700 0.507100 0.623000
H668 H 0.143000 0.481000 0.780000
H669 H 0.189000 0.417000 0.827000
H670 H 0.004000 0.450000 0.926000
H671 H -0.178000 0.419000 0.742000
H672 H -0.108000 0.491000 0.748000
H673 H 0.115000 0.399000 0.898000
H674 H -0.017000 0.389000 0.631000
H675 H 0.034000 0.667000 0.756000
H676 H -0.053000 0.650000 0.819000
H677 H -0.087000 0.523000 0.916000
H678 H 0.166000 0.591000 0.633000
H679 H 0.110000 0.645000 0.683000
H680 H 0.088000 0.444000 0.599000
H681 H -0.128000 0.368000 0.683000
H682 H 0.144000 0.516000 0.597000
C683 C 0.614200 1.025000 0.308600
C684 C 0.509400 1.048000 0.159100
C685 C 0.642100 1.063800 0.336700
C686 C 0.531900 1.043500 0.396100
C687 C 0.536400 0.942100 0.243100
C688 C 0.369000 1.072600 0.221600
C689 C 0.540800 0.974400 0.201600
C690 C 0.516700 0.952400 0.293900
C691 C 0.488000 1.017500 0.196300
C692 C 0.412500 1.029900 0.225500
C693 C 0.542100 0.994400 0.322500
C694 C 0.599400 1.074600 0.380300
C695 C 0.554900 0.896900 0.231600
C696 C 0.594100 0.962000 0.162000
C697 C 0.465500 1.090700 0.155200
C698 C 0.522600 0.862300 0.263100
C699 C 0.477200 0.872500 0.302300
C700 C 0.435700 0.929100 0.367500
C701 C 0.445500 0.970400 0.388600
C702 C 0.626600 0.916700 0.157200
C703 C 0.599000 0.885300 0.189200
C704 C 0.572200 1.035100 0.122800
C705 C 0.398500 1.103300 0.185600
C706 C 0.505600 1.003500 0.368500
C707 C 0.472900 0.918800 0.321000
C708 C 0.608700 0.992900 0.123000
H709 H 0.643000 1.019000 0.280000
H710 H 0.689000 1.083000 0.327000
H711 H 0.504000 1.050000 0.426000
H712 H 0.322000 1.081000 0.242000
H713 H 0.392000 1.009000 0.248000
H714 H 0.615000 1.101000 0.398000
H715 H 0.483000 1.111000 0.131000
H716 H 0.534000 0.833000 0.256000
H717 H 0.447000 0.850000 0.319000
H718 H 0.413000 0.977000 0.416000
H719 H 0.666000 0.909000 0.133000
H720 H 0.610000 0.855000 0.183000
H721 H 0.588000 1.056000 0.099000
H722 H 0.372000 1.132000 0.183000
H723 H 0.644000 0.984000 0.097000
C724 C 0.614200 -0.025000 0.808600
C725 C 0.509400 -0.048000 0.659100
C726 C 0.642100 -0.063800 0.836700
C727 C 0.531900 -0.043500 0.896100
C728 C 0.536400 0.057900 0.743100
C729 C 0.369000 -0.072600 0.721600
C730 C 0.540800 0.025600 0.701600
C731 C 0.516700 0.047600 0.793900
C732 C 0.488000 -0.017500 0.696300
C733 C 0.412500 -0.029900 0.725500
C734 C 0.542100 0.005600 0.822500
C735 C 0.599400 -0.074600 0.880300
C736 C 0.554900 0.103100 0.731600
C737 C 0.594100 0.038000 0.662000
C738 C 0.465500 -0.090700 0.655200
C739 C 0.522600 0.137700 0.763100
C740 C 0.477200 0.127500 0.802300
C741 C 0.435700 0.070900 0.867500
C742 C 0.445500 0.029600 0.888600
C743 C 0.626600 0.083300 0.657200
C744 C 0.599000 0.114700 0.689200
C745 C 0.572200 -0.035100 0.622800
C746 C 0.398500 -0.103300 0.685600
C747 C 0.505600 -0.003500 0.868500
C748 C 0.472900 0.081200 0.821000
C749 C 0.608700 0.007100 0.623000
H750 H 0.643000 -0.019000 0.780000
H751 H 0.689000 -0.083000 0.827000
H752 H 0.504000 -0.050000 0.926000
H753 H 0.322000 -0.081000 0.742000
H754 H 0.392000 -0.009000 0.748000
H755 H 0.615000 -0.101000 0.898000
H756 H 0.483000 -0.111000 0.631000
H757 H 0.534000 0.167000 0.756000
H758 H 0.447000 0.150000 0.819000
H759 H 0.413000 0.023000 0.916000
H760 H 0.666000 0.091000 0.633000
H761 H 0.610000 0.145000 0.683000
H762 H 0.588000 -0.056000 0.599000
H763 H 0.372000 -0.132000 0.683000
H764 H 0.644000 0.016000 0.597000
C765 C 0.125900 0.195100 0.296800
C766 C 0.156000 0.235000 0.320400
C767 C 0.115900 0.249700 0.362800
C768 C 0.049700 0.223200 0.382400
C769 C 0.020500 0.181000 0.360700
C770 C 0.055500 0.167200 0.315000
C771 C 0.025800 0.123500 0.292700
C772 C -0.011600 0.092700 0.325100
C773 C -0.046200 0.107900 0.370400
C774 C -0.036000 0.150800 0.385900
C775 C -0.011000 0.046600 0.313200
C776 C 0.028200 0.032300 0.272300
C777 C 0.056400 0.062400 0.235400
C778 C 0.041900 0.108700 0.241600
C779 C 0.100200 0.046900 0.193500
C780 C 0.124800 0.075400 0.158100
C781 C 0.094500 0.121000 0.157200
C782 C 0.044300 0.137000 0.196900
C783 C 0.111700 0.149800 0.116400
C784 C 0.081100 0.192400 0.114100
C785 C 0.018900 0.208900 0.148600
C786 C -0.006100 0.180000 0.187700
C787 C -0.023500 0.251900 0.142500
C788 C -0.093300 0.265600 0.170900
C789 C -0.126800 0.235800 0.204800
C790 C -0.084300 0.194200 0.213300
C791 C 0.125900 0.804900 0.796800
C792 C 0.156000 0.765000 0.820400
C793 C 0.115900 0.750300 0.862800
C794 C 0.049700 0.776800 0.882400
C795 C 0.020500 0.819000 0.860700
C796 C 0.055500 0.832800 0.815000
C797 C 0.025800 0.876500 0.792700
C798 C -0.011600 0.907300 0.825100
C799 C -0.046200 0.892100 0.870400
C800 C -0.036000 0.849200 0.885900
C801 C -0.011000 0.953400 0.813200
C802 C 0.028200 0.967700 0.772300
C803 C 0.056400 0.937600 0.735400
C804 C 0.041900 0.891300 0.741600
C805 C 0.100200 0.953100 0.693500
C806 C 0.124800 0.924600 0.658100
C807 C 0.094500 0.879000 0.657200
C808 C 0.044300 0.863000 0.696900
C809 C 0.111700 0.850200 0.616400
C810 C 0.081100 0.807600 0.614100
C811 C 0.018900 0.791100 0.648600
C812 C -0.006100 0.820000 0.687700
C813 C -0.023500 0.748100 0.642500
C814 C -0.093300 0.734400 0.670900
C815 C -0.126800 0.764200 0.704800
C816 C -0.084300 0.805800 0.713300
C817 C 0.625900 0.695100 0.296800
C818 C 0.656000 0.735000 0.320400
C819 C 0.615900 0.749700 0.362800
C820 C 0.549700 0.723200 0.382400
C821 C 0.520500 0.681000 0.360700
C822 C 0.555500 0.667200 0.315000
C823 C 0.525800 0.623500 0.292700
C824 C 0.488400 0.592700 0.325100
C825 C 0.453800 0.607900 0.370400
C826 C 0.464000 0.650800 0.385900
C827 C 0.489000 0.546600 0.313200
C828 C 0.528200 0.532300 0.272300
C829 C 0.556400 0.562400 0.235400
C830 C 0.541900 0.608700 0.241600
C831 C 0.600200 0.546900 0.193500
C832 C 0.624800 0.575400 0.158100
C833 C 0.594500 0.621000 0.157200
C834 C 0.544300 0.637000 0.196900
C835 C 0.611700 0.649800 0.116400
C836 C 0.581100 0.692400 0.114100
C837 C 0.518900 0.708900 0.148600
C838 C 0.493900 0.680000 0.187700
C839 C 0.476500 0.751900 0.142500
C840 C 0.406700 0.765600 0.170900
C841 C 0.373200 0.735800 0.204800
C842 C 0.415700 0.694200 0.213300
C843 C 0.625900 0.304900 0.796800
C844 C 0.656000 0.265000 0.820400
C845 C 0.615900 0.250300 0.862800
C846 C 0.549700 0.276800 0.882400
C847 C 0.520500 0.319000 0.860700
C848 C 0.555500 0.332800 0.815000
C849 C 0.525800 0.376500 0.792700
C850 C 0.488400 0.407300 0.825100
C851 C 0.453800 0.392100 0.870400
C852 C 0.464000 0.349200 0.885900
C853 C 0.489000 0.453400 0.813200
C854 C 0.528200 0.467700 0.772300
C855 C 0.556400 0.437600 0.735400
C856 C 0.541900 0.391300 0.741600
C857 C 0.600200 0.453100 0.693500
C858 C 0.624800 0.424600 0.658100
C859 C 0.594500 0.379000 0.657200
C860 C 0.544300 0.363000 0.696900
C861 C 0.611700 0.350200 0.616400
C862 C 0.581100 0.307600 0.614100
C863 C 0.518900 0.291100 0.648600
C864 C 0.493900 0.320000 0.687700
C865 C 0.476500 0.248100 0.642500
C866 C 0.406700 0.234400 0.670900
C867 C 0.373200 0.264200 0.704800
C868 C 0.415700 0.305800 0.713300
C869 C 0.151500 0.196900 0.304300
C870 C 0.199300 0.237300 0.313200
C871 C 0.167400 0.268200 0.346400
C872 C 0.091400 0.257300 0.371900
C873 C 0.043600 0.215200 0.365700
C874 C 0.070600 0.184700 0.329000
C875 C 0.021700 0.141200 0.322700
C876 C -0.027900 0.127000 0.362800
C877 C -0.054000 0.158600 0.398700
C878 C -0.024600 0.201500 0.398300
C879 C -0.048000 0.081100 0.368200
C880 C -0.017000 0.051100 0.336300
C881 C 0.023200 0.064300 0.291800
C882 C 0.029700 0.110300 0.280600
C883 C 0.058300 0.032400 0.259600
C884 C 0.094200 0.045000 0.217000
C885 C 0.084800 0.089900 0.198900
C886 C 0.043600 0.122300 0.228600
C887 C 0.113400 0.102100 0.150900
C888 C 0.102300 0.143900 0.132400
C889 C 0.049500 0.176500 0.156900
C890 C 0.013200 0.164700 0.203000
C891 C 0.026900 0.218800 0.134300
C892 C -0.034600 0.247800 0.153700
C893 C -0.079900 0.234600 0.195000
C894 C -0.056500 0.194300 0.219300
C895 C 0.151500 0.803100 0.804300
C896 C 0.199300 0.762700 0.813200
C897 C 0.167400 0.731800 0.846400
C898 C 0.091400 0.742700 0.871900
C899 C 0.043600 0.784800 0.865700
C900 C 0.070600 0.815300 0.829000
C901 C 0.021700 0.858800 0.822700
C902 C -0.027900 0.873000 0.862800
C903 C -0.054000 0.841400 0.898700
C904 C -0.024600 0.798500 0.898300
C905 C -0.048000 0.918900 0.868200
C906 C -0.017000 0.948900 0.836300
C907 C 0.023200 0.935700 0.791800
C908 C 0.029700 0.889700 0.780600
C909 C 0.058300 0.967600 0.759600
C910 C 0.094200 0.955000 0.717000
C911 C 0.084800 0.910100 0.698900
C912 C 0.043600 0.877700 0.728600
C913 C 0.113400 0.897900 0.650900
C914 C 0.102300 0.856100 0.632400
C915 C 0.049500 0.823500 0.656900
C916 C 0.013200 0.835300 0.703000
C917 C 0.026900 0.781200 0.634300
C918 C -0.034600 0.752200 0.653700
C919 C -0.079900 0.765400 0.695000
C920 C -0.056500 0.805700 0.719300
C921 C 0.651500 0.696900 0.304300
C922 C 0.699300 0.737300 0.313200
C923 C 0.667400 0.768200 0.346400
C924 C 0.591400 0.757300 0.371900
C925 C 0.543600 0.715200 0.365700
C926 C 0.570600 0.684700 0.329000
C927 C 0.521700 0.641200 0.322700
C928 C 0.472100 0.627000 0.362800
C929 C 0.446000 0.658600 0.398700
C930 C 0.475400 0.701500 0.398300
C931 C 0.452000 0.581100 0.368200
C932 C 0.483000 0.551100 0.336300
C933 C 0.523200 0.564300 0.291800
C934 C 0.529700 0.610300 0.280600
C935 C 0.558300 0.532400 0.259600
C936 C 0.594200 0.545000 0.217000
C937 C 0.584800 0.589900 0.198900
C938 C 0.543600 0.622300 0.228600
C939 C 0.613400 0.602100 0.150900
C940 C 0.602300 0.643900 0.132400
C941 C 0.549500 0.676500 0.156900
C942 C 0.513200 0.664700 0.203000
C943 C 0.526900 0.718800 0.134300
C944 C 0.465400 0.747800 0.153700
C945 C 0.420100 0.734600 0.195000
C946 C 0.443500 0.694300 0.219300
C947 C 0.651500 0.303100 0.804300
C948 C 0.699300 0.262700 0.813200
C949 C 0.667400 0.231800 0.846400
C950 C 0.591400 0.242700 0.871900
C951 C 0.543600 0.284800 0.865700
C952 C 0.570600 0.315300 0.829000
C953 C 0.521700 0.358800 0.822700
C954 C 0.472100 0.373000 0.862800
C955 C 0.446000 0.341400 0.898700
C956 C 0.475400 0.298500 0.898300
C957 C 0.452000 0.418900 0.868200
C958 C 0.483000 0.448900 0.836300
C959 C 0.523200 0.435700 0.791800
C960 C 0.529700 0.389700 0.780600
C961 C 0.558300 0.467600 0.759600
C962 C 0.594200 0.455000 0.717000
C963 C 0.584800 0.410100 0.698900
C964 C 0.543600 0.377700 0.728600
C965 C 0.613400 0.397900 0.650900
C966 C 0.602300 0.356100 0.632400
C967 C 0.549500 0.323500 0.656900
C968 C 0.513200 0.335300 0.703000
C969 C 0.526900 0.281200 0.634300
C970 C 0.465400 0.252200 0.653700
C971 C 0.420100 0.265400 0.695000
C972 C 0.443500 0.305700 0.719300

#END
