
#######################################################################
#
#                 Cambridge Crystallographic Data Centre
#                                CCDC 
#
#######################################################################
#
# If this CIF has been generated from an entry in the Cambridge 
# Structural Database, then it will include bibliographic, chemical, 
# crystal, experimental, refinement or atomic coordinate data resulting 
# from the CCDC's data processing and validation procedures.
#
#######################################################################

data_ABUREW
_symmetry_cell_setting           triclinic
_symmetry_space_group_name_H-M   'P -1'
_symmetry_Int_Tables_number      2
_space_group_name_Hall           '-P 1'
loop_
_symmetry_equiv_pos_site_id
_symmetry_equiv_pos_as_xyz
1 x,y,z
2 -x,-y,-z
_cell_length_a                   5.0041(2)
_cell_length_b                   9.4388(5)
_cell_length_c                   14.0451(8)
_cell_angle_alpha                101.515(3)
_cell_angle_beta                 96.482(3)
_cell_angle_gamma                97.466(3)
_cell_volume                     637.911
loop_
_atom_site_label
_atom_site_type_symbol
_atom_site_fract_x
_atom_site_fract_y
_atom_site_fract_z
S1 S 0.40230(9) -0.49569(5) -0.18811(3)
S2 S 0.72293(9) 0.07616(5) 0.35121(3)
F1 F -0.0012(3) -0.48018(14) -0.31935(10)
F2 F 0.0618(3) -0.69904(13) -0.30828(10)
F3 F 0.3348(3) -0.57043(15) -0.37887(9)
F4 F 0.4163(3) 0.27674(14) 0.39843(10)
F5 F 0.5415(3) 0.16699(15) 0.51326(9)
F6 F 0.8283(3) 0.32964(15) 0.47395(10)
O1 O 0.5372(3) -0.34124(13) -0.20592(9)
O2 O 0.6063(3) -0.58580(16) -0.18679(12)
O3 O 0.2333(3) -0.47320(15) -0.11402(11)
O4 O 0.8141(3) 0.17001(14) 0.27339(9)
O5 O 0.4892(3) -0.02796(15) 0.30850(10)
O6 O 0.9602(3) 0.03959(18) 0.39870(11)
C1 C 0.5947(3) -0.04321(18) 0.01685(12)
C2 C 0.6428(3) -0.17255(18) -0.04551(12)
C3 C 0.8368(4) -0.25338(19) -0.01273(13)
C4 C 0.9812(4) -0.2068(2) 0.08153(13)
C5 C 0.9303(4) -0.08353(19) 0.14521(13)
C6 C 0.7362(3) -0.00146(18) 0.11423(12)
C7 C 0.4928(3) -0.21282(18) -0.14303(12)
C8 C 0.6787(3) 0.12749(18) 0.17651(12)
C9 C 0.1843(4) -0.5653(2) -0.30714(14)
C10 C 0.6189(4) 0.2231(2) 0.44004(14)
H1 H 0.8689 -0.3398 -0.0548
H2 H 1.1169 -0.2600 0.1025
H3 H 1.0272 -0.0548 0.2099
S1A S 0.59770(9) 0.49569(5) 0.18811(3)
S2A S 0.27707(9) -0.07616(5) -0.35121(3)
F1A F 1.0012(3) 0.48018(14) 0.31935(10)
F2A F 0.9382(3) 0.69904(13) 0.30828(10)
F3A F 0.6652(3) 0.57043(15) 0.37887(9)
F4A F 0.5837(3) -0.27674(14) -0.39843(10)
F5A F 0.4585(3) -0.16699(15) -0.51326(9)
F6A F 0.1717(3) -0.32964(15) -0.47395(10)
O1A O 0.4628(3) 0.34124(13) 0.20592(9)
O2A O 0.3937(3) 0.58580(16) 0.18679(12)
O3A O 0.7667(3) 0.47320(15) 0.11402(11)
O4A O 0.1859(3) -0.17001(14) -0.27339(9)
O5A O 0.5108(3) 0.02796(15) -0.30850(10)
O6A O 0.0398(3) -0.03959(18) -0.39870(11)
C1A C 0.4053(3) 0.04321(18) -0.01685(12)
C2A C 0.3572(3) 0.17255(18) 0.04551(12)
C3A C 0.1632(4) 0.25338(19) 0.01273(13)
C4A C 0.0188(4) 0.2068(2) -0.08153(13)
C5A C 0.0697(4) 0.08353(19) -0.14521(13)
C6A C 0.2638(3) 0.00146(18) -0.11423(12)
C7A C 0.5072(3) 0.21282(18) 0.14303(12)
C8A C 0.3213(3) -0.12749(18) -0.17651(12)
C9A C 0.8157(4) 0.5653(2) 0.30714(14)
C10A C 0.3811(4) -0.2231(2) -0.44004(14)
H1A H 0.1311 0.3398 0.0548
H2A H -0.1169 0.2600 -0.1025
H3A H -0.0272 0.0548 -0.2099
S1 S 0.40230(9) -0.49569(5) 0.81189(3)
S2 S 0.72293(9) 0.07616(5) 1.35121(3)
F1 F -0.0012(3) -0.48018(14) 0.68065(10)
F2 F 0.0618(3) -0.69904(13) 0.69172(10)
F3 F 0.3348(3) -0.57043(15) 0.62113(9)
F4 F 0.4163(3) 0.27674(14) 1.39843(10)
F5 F 0.5415(3) 0.16699(15) 1.51326(9)
F6 F 0.8283(3) 0.32964(15) 1.47395(10)
O1 O 0.5372(3) -0.34124(13) 0.79408(9)
O2 O 0.6063(3) -0.58580(16) 0.81321(12)
O3 O 0.2333(3) -0.47320(15) 0.88598(11)
O4 O 0.8141(3) 0.17001(14) 1.27339(9)
O5 O 0.4892(3) -0.02796(15) 1.30850(10)
O6 O 0.9602(3) 0.03959(18) 1.39870(11)
C1 C 0.5947(3) -0.04321(18) 1.01685(12)
C2 C 0.6428(3) -0.17255(18) 0.95449(12)
C3 C 0.8368(4) -0.25338(19) 0.98727(13)
C4 C 0.9812(4) -0.2068(2) 1.08153(13)
C5 C 0.9303(4) -0.08353(19) 1.14521(13)
C6 C 0.7362(3) -0.00146(18) 1.11423(12)
C7 C 0.4928(3) -0.21282(18) 0.85697(12)
C8 C 0.6787(3) 0.12749(18) 1.17651(12)
C9 C 0.1843(4) -0.5653(2) 0.69286(14)
C10 C 0.6189(4) 0.2231(2) 1.44004(14)
H1 H 0.8689 -0.3398 0.9452
H2 H 1.1169 -0.2600 1.1025
H3 H 1.0272 -0.0548 1.2099
S1A S 0.59770(9) 0.49569(5) 1.18811(3)
S2A S 0.27707(9) -0.07616(5) 0.64879(3)
F1A F 1.0012(3) 0.48018(14) 1.31935(10)
F2A F 0.9382(3) 0.69904(13) 1.30828(10)
F3A F 0.6652(3) 0.57043(15) 1.37887(9)
F4A F 0.5837(3) -0.27674(14) 0.60157(10)
F5A F 0.4585(3) -0.16699(15) 0.48674(9)
F6A F 0.1717(3) -0.32964(15) 0.52605(10)
O1A O 0.4628(3) 0.34124(13) 1.20592(9)
O2A O 0.3937(3) 0.58580(16) 1.18679(12)
O3A O 0.7667(3) 0.47320(15) 1.11402(11)
O4A O 0.1859(3) -0.17001(14) 0.72661(9)
O5A O 0.5108(3) 0.02796(15) 0.69150(10)
O6A O 0.0398(3) -0.03959(18) 0.60130(11)
C1A C 0.4053(3) 0.04321(18) 0.98315(12)
C2A C 0.3572(3) 0.17255(18) 1.04551(12)
C3A C 0.1632(4) 0.25338(19) 1.01273(13)
C4A C 0.0188(4) 0.2068(2) 0.91847(13)
C5A C 0.0697(4) 0.08353(19) 0.85479(13)
C6A C 0.2638(3) 0.00146(18) 0.88577(12)
C7A C 0.5072(3) 0.21282(18) 1.14303(12)
C8A C 0.3213(3) -0.12749(18) 0.82349(12)
C9A C 0.8157(4) 0.5653(2) 1.30714(14)
C10A C 0.3811(4) -0.2231(2) 0.55996(14)
H1A H 0.1311 0.3398 1.0548
H2A H -0.1169 0.2600 0.8975
H3A H -0.0272 0.0548 0.7901
S1 S 0.40230(9) 0.50431(5) -0.18811(3)
S2 S 0.72293(9) 1.07616(5) 0.35121(3)
F1 F -0.0012(3) 0.51982(14) -0.31935(10)
F2 F 0.0618(3) 0.30096(13) -0.30828(10)
F3 F 0.3348(3) 0.42957(15) -0.37887(9)
F4 F 0.4163(3) 1.27674(14) 0.39843(10)
F5 F 0.5415(3) 1.16699(15) 0.51326(9)
F6 F 0.8283(3) 1.32964(15) 0.47395(10)
O1 O 0.5372(3) 0.65876(13) -0.20592(9)
O2 O 0.6063(3) 0.41420(16) -0.18679(12)
O3 O 0.2333(3) 0.52680(15) -0.11402(11)
O4 O 0.8141(3) 1.17001(14) 0.27339(9)
O5 O 0.4892(3) 0.97204(15) 0.30850(10)
O6 O 0.9602(3) 1.03959(18) 0.39870(11)
C1 C 0.5947(3) 0.95679(18) 0.01685(12)
C2 C 0.6428(3) 0.82745(18) -0.04551(12)
C3 C 0.8368(4) 0.74662(19) -0.01273(13)
C4 C 0.9812(4) 0.7932(2) 0.08153(13)
C5 C 0.9303(4) 0.91647(19) 0.14521(13)
C6 C 0.7362(3) 0.99854(18) 0.11423(12)
C7 C 0.4928(3) 0.78718(18) -0.14303(12)
C8 C 0.6787(3) 1.12749(18) 0.17651(12)
C9 C 0.1843(4) 0.4347(2) -0.30714(14)
C10 C 0.6189(4) 1.2231(2) 0.44004(14)
H1 H 0.8689 0.6602 -0.0548
H2 H 1.1169 0.7400 0.1025
H3 H 1.0272 0.9452 0.2099
S1A S 0.59770(9) 1.49569(5) 0.18811(3)
S2A S 0.27707(9) 0.92384(5) -0.35121(3)
F1A F 1.0012(3) 1.48018(14) 0.31935(10)
F2A F 0.9382(3) 1.69904(13) 0.30828(10)
F3A F 0.6652(3) 1.57043(15) 0.37887(9)
F4A F 0.5837(3) 0.72326(14) -0.39843(10)
F5A F 0.4585(3) 0.83301(15) -0.51326(9)
F6A F 0.1717(3) 0.67036(15) -0.47395(10)
O1A O 0.4628(3) 1.34124(13) 0.20592(9)
O2A O 0.3937(3) 1.58580(16) 0.18679(12)
O3A O 0.7667(3) 1.47320(15) 0.11402(11)
O4A O 0.1859(3) 0.82999(14) -0.27339(9)
O5A O 0.5108(3) 1.02796(15) -0.30850(10)
O6A O 0.0398(3) 0.96041(18) -0.39870(11)
C1A C 0.4053(3) 1.04321(18) -0.01685(12)
C2A C 0.3572(3) 1.17255(18) 0.04551(12)
C3A C 0.1632(4) 1.25338(19) 0.01273(13)
C4A C 0.0188(4) 1.2068(2) -0.08153(13)
C5A C 0.0697(4) 1.08353(19) -0.14521(13)
C6A C 0.2638(3) 1.00146(18) -0.11423(12)
C7A C 0.5072(3) 1.21282(18) 0.14303(12)
C8A C 0.3213(3) 0.87251(18) -0.17651(12)
C9A C 0.8157(4) 1.5653(2) 0.30714(14)
C10A C 0.3811(4) 0.7769(2) -0.44004(14)
H1A H 0.1311 1.3398 0.0548
H2A H -0.1169 1.2600 -0.1025
H3A H -0.0272 1.0548 -0.2099
S1 S 0.40230(9) 0.50431(5) 0.81189(3)
S2 S 0.72293(9) 1.07616(5) 1.35121(3)
F1 F -0.0012(3) 0.51982(14) 0.68065(10)
F2 F 0.0618(3) 0.30096(13) 0.69172(10)
F3 F 0.3348(3) 0.42957(15) 0.62113(9)
F4 F 0.4163(3) 1.27674(14) 1.39843(10)
F5 F 0.5415(3) 1.16699(15) 1.51326(9)
F6 F 0.8283(3) 1.32964(15) 1.47395(10)
O1 O 0.5372(3) 0.65876(13) 0.79408(9)
O2 O 0.6063(3) 0.41420(16) 0.81321(12)
O3 O 0.2333(3) 0.52680(15) 0.88598(11)
O4 O 0.8141(3) 1.17001(14) 1.27339(9)
O5 O 0.4892(3) 0.97204(15) 1.30850(10)
O6 O 0.9602(3) 1.03959(18) 1.39870(11)
C1 C 0.5947(3) 0.95679(18) 1.01685(12)
C2 C 0.6428(3) 0.82745(18) 0.95449(12)
C3 C 0.8368(4) 0.74662(19) 0.98727(13)
C4 C 0.9812(4) 0.7932(2) 1.08153(13)
C5 C 0.9303(4) 0.91647(19) 1.14521(13)
C6 C 0.7362(3) 0.99854(18) 1.11423(12)
C7 C 0.4928(3) 0.78718(18) 0.85697(12)
C8 C 0.6787(3) 1.12749(18) 1.17651(12)
C9 C 0.1843(4) 0.4347(2) 0.69286(14)
C10 C 0.6189(4) 1.2231(2) 1.44004(14)
H1 H 0.8689 0.6602 0.9452
H2 H 1.1169 0.7400 1.1025
H3 H 1.0272 0.9452 1.2099
S1A S 0.59770(9) 1.49569(5) 1.18811(3)
S2A S 0.27707(9) 0.92384(5) 0.64879(3)
F1A F 1.0012(3) 1.48018(14) 1.31935(10)
F2A F 0.9382(3) 1.69904(13) 1.30828(10)
F3A F 0.6652(3) 1.57043(15) 1.37887(9)
F4A F 0.5837(3) 0.72326(14) 0.60157(10)
F5A F 0.4585(3) 0.83301(15) 0.48674(9)
F6A F 0.1717(3) 0.67036(15) 0.52605(10)
O1A O 0.4628(3) 1.34124(13) 1.20592(9)
O2A O 0.3937(3) 1.58580(16) 1.18679(12)
O3A O 0.7667(3) 1.47320(15) 1.11402(11)
O4A O 0.1859(3) 0.82999(14) 0.72661(9)
O5A O 0.5108(3) 1.02796(15) 0.69150(10)
O6A O 0.0398(3) 0.96041(18) 0.60130(11)
C1A C 0.4053(3) 1.04321(18) 0.98315(12)
C2A C 0.3572(3) 1.17255(18) 1.04551(12)
C3A C 0.1632(4) 1.25338(19) 1.01273(13)
C4A C 0.0188(4) 1.2068(2) 0.91847(13)
C5A C 0.0697(4) 1.08353(19) 0.85479(13)
C6A C 0.2638(3) 1.00146(18) 0.88577(12)
C7A C 0.5072(3) 1.21282(18) 1.14303(12)
C8A C 0.3213(3) 0.87251(18) 0.82349(12)
C9A C 0.8157(4) 1.5653(2) 1.30714(14)
C10A C 0.3811(4) 0.7769(2) 0.55996(14)
H1A H 0.1311 1.3398 1.0548
H2A H -0.1169 1.2600 0.8975
H3A H -0.0272 1.0548 0.7901

#END
