./ABURUK_from_xyz.cif_generated_by_CrystalShift
_symmetry_cell_setting triclinic
_symmetry_space_group_name_H-M 'P 1'
loop_
_symmetry_equiv_pos_site_id
_symmetry_equiv_pos_as_xyz
1 x,y,z
_cell_length_a 9.272700
_cell_length_b 10.065500
_cell_length_c 39.518000
_cell_angle_alpha 90.000000
_cell_angle_beta 96.140000
_cell_angle_gamma 90.000000
_cell_volume 3667.228972
loop_
_atom_site_label
_atom_site_type_symbol
_atom_site_fract_x
_atom_site_fract_y
_atom_site_fract_z
N1 N 0.985570 0.250000 0.563960
C2 C 0.996900 0.351000 0.588490
H3 H 1.041100 0.341500 0.610600
C4 C 0.935110 0.463500 0.575570
C5 C 0.882730 0.435900 0.540220
C6 C 0.813100 0.513600 0.514130
H7 H 0.787000 0.600900 0.518100
C8 C 0.784200 0.457900 0.482340
H9 H 0.738100 0.508600 0.464700
C10 C 0.822500 0.327600 0.476100
H11 H 0.801900 0.293200 0.454300
C12 C 0.889900 0.247900 0.501250
H13 H 0.915100 0.160500 0.497000
C14 C 0.918460 0.304800 0.533370
C15 C 0.927600 0.590800 0.593970
C16 C 1.040200 0.631100 0.614980
H17 H 1.123600 0.579300 0.618100
H18 H 1.035700 0.711100 0.626600
C19 C 0.793100 0.670600 0.588460
C20 C 0.658100 0.610400 0.584840
H21 H 0.651400 0.518200 0.585300
C22 C 0.532600 0.686400 0.580600
H23 H 0.442300 0.645100 0.578300
C24 C 0.541500 0.822500 0.579740
H25 H 0.457400 0.873400 0.576800
C26 C 0.673100 0.882800 0.583220
H27 H 0.678600 0.975000 0.582700
C28 C 0.798900 0.808600 0.587500
H29 H 0.888300 0.851400 0.589800
S30 S 1.079550 0.110200 0.568494
O31 O 1.094080 0.082330 0.604040
O32 O 1.009050 0.018280 0.544790
C33 C 1.250300 0.149600 0.556010
C34 C 1.356300 0.199000 0.580220
H35 H 1.337700 0.208500 0.602800
C36 C 1.489300 0.233600 0.570450
H37 H 1.561500 0.266500 0.586400
C38 C 1.515200 0.219600 0.537060
H39 H 1.604900 0.243800 0.530500
C40 C 1.410100 0.170300 0.513380
H41 H 1.429300 0.161300 0.490900
C42 C 1.276000 0.133800 0.522480
H43 H 1.205000 0.099400 0.506500
N44 N 0.485570 0.250000 0.063960
C45 C 0.496900 0.149000 0.088490
H46 H 0.541100 0.158500 0.110600
C47 C 0.435110 0.036500 0.075570
C48 C 0.382730 0.064100 0.040220
C49 C 0.313100 -0.013600 0.014130
H50 H 0.287000 -0.100900 0.018100
C51 C 0.284200 0.042100 -0.017660
H52 H 0.238100 -0.008600 -0.035300
C53 C 0.322500 0.172400 -0.023900
H54 H 0.301900 0.206800 -0.045700
C55 C 0.389900 0.252100 0.001250
H56 H 0.415100 0.339500 -0.003000
C57 C 0.418460 0.195200 0.033370
C58 C 0.427600 -0.090800 0.093970
C59 C 0.540200 -0.131100 0.114980
H60 H 0.623600 -0.079300 0.118100
H61 H 0.535700 -0.211100 0.126600
C62 C 0.293100 -0.170600 0.088460
C63 C 0.158100 -0.110400 0.084840
H64 H 0.151400 -0.018200 0.085300
C65 C 0.032600 -0.186400 0.080600
H66 H -0.057700 -0.145100 0.078300
C67 C 0.041500 -0.322500 0.079740
H68 H -0.042600 -0.373400 0.076800
C69 C 0.173100 -0.382800 0.083220
H70 H 0.178600 -0.475000 0.082700
C71 C 0.298900 -0.308600 0.087500
H72 H 0.388300 -0.351400 0.089800
S73 S 0.579550 0.389800 0.068494
O74 O 0.594080 0.417670 0.104040
O75 O 0.509050 0.481720 0.044790
C76 C 0.750300 0.350400 0.056010
C77 C 0.856300 0.301000 0.080220
H78 H 0.837700 0.291500 0.102800
C79 C 0.989300 0.266400 0.070450
H80 H 1.061500 0.233500 0.086400
C81 C 1.015200 0.280400 0.037060
H82 H 1.104900 0.256200 0.030500
C83 C 0.910100 0.329700 0.013380
H84 H 0.929300 0.338700 -0.009100
C85 C 0.776000 0.366200 0.022480
H86 H 0.705000 0.400600 0.006500
N87 N 0.014430 0.750000 0.436040
C88 C 0.003100 0.649000 0.411510
H89 H -0.041100 0.658500 0.389400
C90 C 0.064890 0.536500 0.424430
C91 C 0.117270 0.564100 0.459780
C92 C 0.186900 0.486400 0.485870
H93 H 0.213000 0.399100 0.481900
C94 C 0.215800 0.542100 0.517660
H95 H 0.261900 0.491400 0.535300
C96 C 0.177500 0.672400 0.523900
H97 H 0.198100 0.706800 0.545700
C98 C 0.110100 0.752100 0.498750
H99 H 0.084900 0.839500 0.503000
C100 C 0.081540 0.695200 0.466630
C101 C 0.072400 0.409200 0.406030
C102 C -0.040200 0.368900 0.385020
H103 H -0.123600 0.420700 0.381900
H104 H -0.035700 0.288900 0.373400
C105 C 0.206900 0.329400 0.411540
C106 C 0.341900 0.389600 0.415160
H107 H 0.348600 0.481800 0.414700
C108 C 0.467400 0.313600 0.419400
H109 H 0.557700 0.354900 0.421700
C110 C 0.458500 0.177500 0.420260
H111 H 0.542600 0.126600 0.423200
C112 C 0.326900 0.117200 0.416780
H113 H 0.321400 0.025000 0.417300
C114 C 0.201100 0.191400 0.412500
H115 H 0.111700 0.148600 0.410200
S116 S -0.079550 0.889800 0.431506
O117 O -0.094080 0.917670 0.395960
O118 O -0.009050 0.981720 0.455210
C119 C -0.250300 0.850400 0.443990
C120 C -0.356300 0.801000 0.419780
H121 H -0.337700 0.791500 0.397200
C122 C -0.489300 0.766400 0.429550
H123 H -0.561500 0.733500 0.413600
C124 C -0.515200 0.780400 0.462940
H125 H -0.604900 0.756200 0.469500
C126 C -0.410100 0.829700 0.486620
H127 H -0.429300 0.838700 0.509100
C128 C -0.276000 0.866200 0.477520
H129 H -0.205000 0.900600 0.493500
N130 N 0.514430 0.750000 0.936040
C131 C 0.503100 0.851000 0.911510
H132 H 0.458900 0.841500 0.889400
C133 C 0.564890 0.963500 0.924430
C134 C 0.617270 0.935900 0.959780
C135 C 0.686900 1.013600 0.985870
H136 H 0.713000 1.100900 0.981900
C137 C 0.715800 0.957900 1.017660
H138 H 0.761900 1.008600 1.035300
C139 C 0.677500 0.827600 1.023900
H140 H 0.698100 0.793200 1.045700
C141 C 0.610100 0.747900 0.998750
H142 H 0.584900 0.660500 1.003000
C143 C 0.581540 0.804800 0.966630
C144 C 0.572400 1.090800 0.906030
C145 C 0.459800 1.131100 0.885020
H146 H 0.376400 1.079300 0.881900
H147 H 0.464300 1.211100 0.873400
C148 C 0.706900 1.170600 0.911540
C149 C 0.841900 1.110400 0.915160
H150 H 0.848600 1.018200 0.914700
C151 C 0.967400 1.186400 0.919400
H152 H 1.057700 1.145100 0.921700
C153 C 0.958500 1.322500 0.920260
H154 H 1.042600 1.373400 0.923200
C155 C 0.826900 1.382800 0.916780
H156 H 0.821400 1.475000 0.917300
C157 C 0.701100 1.308600 0.912500
H158 H 0.611700 1.351400 0.910200
S159 S 0.420450 0.610200 0.931506
O160 O 0.405920 0.582330 0.895960
O161 O 0.490950 0.518280 0.955210
C162 C 0.249700 0.649600 0.943990
C163 C 0.143700 0.699000 0.919780
H164 H 0.162300 0.708500 0.897200
C165 C 0.010700 0.733600 0.929550
H166 H -0.061500 0.766500 0.913600
C167 C -0.015200 0.719600 0.962940
H168 H -0.104900 0.743800 0.969500
C169 C 0.089900 0.670300 0.986620
H170 H 0.070700 0.661300 1.009100
C171 C 0.224000 0.633800 0.977520
H172 H 0.295000 0.599400 0.993500
N173 N 0.366230 0.266120 0.670280
C174 C 0.327400 0.131840 0.673650
H175 H 0.236000 0.102100 0.677800
C176 C 0.441300 0.052970 0.669960
C177 C 0.515700 0.270080 0.665750
C178 C 0.606300 0.376200 0.660600
H179 H 0.573600 0.463500 0.661000
C180 C 0.746700 0.346800 0.654810
H181 H 0.810200 0.416000 0.651500
C182 C 0.796100 0.216600 0.653810
H183 H 0.891500 0.200200 0.649700
C184 C 0.705500 0.111200 0.658790
H185 H 0.738700 0.024200 0.657900
C186 C 0.563200 0.137640 0.665140
C187 C 0.443400 -0.093770 0.669180
C188 C 0.350000 -0.161800 0.648170
H189 H 0.281300 -0.117200 0.633500
H190 H 0.353200 -0.254200 0.648100
C191 C 0.556600 -0.160300 0.693140
C192 C 0.574200 -0.123700 0.727270
H193 H 0.516700 -0.056900 0.735000
C194 C 0.677000 -0.186500 0.749800
H195 H 0.687300 -0.162200 0.772600
C196 C 0.762900 -0.283500 0.738800
H197 H 0.831400 -0.325400 0.754100
C198 C 0.748300 -0.319500 0.705000
H199 H 0.807800 -0.385100 0.697500
C200 C 0.645400 -0.258500 0.682200
H201 H 0.635800 -0.283700 0.659400
S202 S 0.275520 0.388390 0.686553
O203 O 0.128290 0.344940 0.683440
O204 O 0.315230 0.507690 0.670460
C205 C 0.343600 0.393400 0.729630
C206 C 0.302300 0.296100 0.751450
H207 H 0.237600 0.229800 0.743500
C208 C 0.358300 0.299200 0.784940
H209 H 0.331800 0.234200 0.799800
C210 C 0.453400 0.397400 0.796760
H211 H 0.490700 0.398400 0.819600
C212 C 0.493600 0.493600 0.775270
H213 H 0.557500 0.560100 0.783600
C214 C 0.439700 0.492700 0.741220
H215 H 0.467400 0.557500 0.726400
N216 N -0.133770 0.233880 0.170280
C217 C -0.172600 0.368160 0.173650
H218 H -0.264000 0.397900 0.177800
C219 C -0.058700 0.447030 0.169960
C220 C 0.015700 0.229920 0.165750
C221 C 0.106300 0.123800 0.160600
H222 H 0.073600 0.036500 0.161000
C223 C 0.246700 0.153200 0.154810
H224 H 0.310200 0.084000 0.151500
C225 C 0.296100 0.283400 0.153810
H226 H 0.391500 0.299800 0.149700
C227 C 0.205500 0.388800 0.158790
H228 H 0.238700 0.475800 0.157900
C229 C 0.063200 0.362360 0.165140
C230 C -0.056600 0.593770 0.169180
C231 C -0.150000 0.661800 0.148170
H232 H -0.218700 0.617200 0.133500
H233 H -0.146800 0.754200 0.148100
C234 C 0.056600 0.660300 0.193140
C235 C 0.074200 0.623700 0.227270
H236 H 0.016700 0.556900 0.235000
C237 C 0.177000 0.686500 0.249800
H238 H 0.187300 0.662200 0.272600
C239 C 0.262900 0.783500 0.238800
H240 H 0.331400 0.825400 0.254100
C241 C 0.248300 0.819500 0.205000
H242 H 0.307800 0.885100 0.197500
C243 C 0.145400 0.758500 0.182200
H244 H 0.135800 0.783700 0.159400
S245 S -0.224480 0.111610 0.186553
O246 O -0.371710 0.155060 0.183440
O247 O -0.184770 -0.007690 0.170460
C248 C -0.156400 0.106600 0.229630
C249 C -0.197700 0.203900 0.251450
H250 H -0.262400 0.270200 0.243500
C251 C -0.141700 0.200800 0.284940
H252 H -0.168200 0.265800 0.299800
C253 C -0.046600 0.102600 0.296760
H254 H -0.009300 0.101600 0.319600
C255 C -0.006400 0.006400 0.275270
H256 H 0.057500 -0.060100 0.283600
C257 C -0.060300 0.007300 0.241220
H258 H -0.032600 -0.057500 0.226400
N259 N 0.633770 0.733880 0.329720
C260 C 0.672600 0.868160 0.326350
H261 H 0.764000 0.897900 0.322200
C262 C 0.558700 0.947030 0.330040
C263 C 0.484300 0.729920 0.334250
C264 C 0.393700 0.623800 0.339400
H265 H 0.426400 0.536500 0.339000
C266 C 0.253300 0.653200 0.345190
H267 H 0.189800 0.584000 0.348500
C268 C 0.203900 0.783400 0.346190
H269 H 0.108500 0.799800 0.350300
C270 C 0.294500 0.888800 0.341210
H271 H 0.261300 0.975800 0.342100
C272 C 0.436800 0.862360 0.334860
C273 C 0.556600 1.093770 0.330820
C274 C 0.650000 1.161800 0.351830
H275 H 0.718700 1.117200 0.366500
H276 H 0.646800 1.254200 0.351900
C277 C 0.443400 1.160300 0.306860
C278 C 0.425800 1.123700 0.272730
H279 H 0.483300 1.056900 0.265000
C280 C 0.323000 1.186500 0.250200
H281 H 0.312700 1.162200 0.227400
C282 C 0.237100 1.283500 0.261200
H283 H 0.168600 1.325400 0.245900
C284 C 0.251700 1.319500 0.295000
H285 H 0.192200 1.385100 0.302500
C286 C 0.354600 1.258500 0.317800
H287 H 0.364200 1.283700 0.340600
S288 S 0.724480 0.611610 0.313447
O289 O 0.871710 0.655060 0.316560
O290 O 0.684770 0.492310 0.329540
C291 C 0.656400 0.606600 0.270370
C292 C 0.697700 0.703900 0.248550
H293 H 0.762400 0.770200 0.256500
C294 C 0.641700 0.700800 0.215060
H295 H 0.668200 0.765800 0.200200
C296 C 0.546600 0.602600 0.203240
H297 H 0.509300 0.601600 0.180400
C298 C 0.506400 0.506400 0.224730
H299 H 0.442500 0.439900 0.216400
C300 C 0.560300 0.507300 0.258780
H301 H 0.532600 0.442500 0.273600
N302 N 1.133770 0.766120 0.829720
C303 C 1.172600 0.631840 0.826350
H304 H 1.264000 0.602100 0.822200
C305 C 1.058700 0.552970 0.830040
C306 C 0.984300 0.770080 0.834250
C307 C 0.893700 0.876200 0.839400
H308 H 0.926400 0.963500 0.839000
C309 C 0.753300 0.846800 0.845190
H310 H 0.689800 0.916000 0.848500
C311 C 0.703900 0.716600 0.846190
H312 H 0.608500 0.700200 0.850300
C313 C 0.794500 0.611200 0.841210
H314 H 0.761300 0.524200 0.842100
C315 C 0.936800 0.637640 0.834860
C316 C 1.056600 0.406230 0.830820
C317 C 1.150000 0.338200 0.851830
H318 H 1.218700 0.382800 0.866500
H319 H 1.146800 0.245800 0.851900
C320 C 0.943400 0.339700 0.806860
C321 C 0.925800 0.376300 0.772730
H322 H 0.983300 0.443100 0.765000
C323 C 0.823000 0.313500 0.750200
H324 H 0.812700 0.337800 0.727400
C325 C 0.737100 0.216500 0.761200
H326 H 0.668600 0.174600 0.745900
C327 C 0.751700 0.180500 0.795000
H328 H 0.692200 0.114900 0.802500
C329 C 0.854600 0.241500 0.817800
H330 H 0.864200 0.216300 0.840600
S331 S 1.224480 0.888390 0.813447
O332 O 1.371710 0.844940 0.816560
O333 O 1.184770 1.007690 0.829540
C334 C 1.156400 0.893400 0.770370
C335 C 1.197700 0.796100 0.748550
H336 H 1.262400 0.729800 0.756500
C337 C 1.141700 0.799200 0.715060
H338 H 1.168200 0.734200 0.700200
C339 C 1.046600 0.897400 0.703240
H340 H 1.009300 0.898400 0.680400
C341 C 1.006400 0.993600 0.724730
H342 H 0.942500 1.060100 0.716400
C343 C 1.060300 0.992700 0.758780
H344 H 1.032600 1.057500 0.773600

#END
