./ABUREW_from_xyz.cif_generated_by_CrystalShift
_symmetry_cell_setting triclinic
_symmetry_space_group_name_H-M 'P 1'
loop_
_symmetry_equiv_pos_site_id
_symmetry_equiv_pos_as_xyz
1 x,y,z
_cell_length_a 5.004100
_cell_length_b 9.438800
_cell_length_c 14.045100
_cell_angle_alpha 101.515000
_cell_angle_beta 96.482000
_cell_angle_gamma 97.466000
_cell_volume 637.910678
loop_
_atom_site_label
_atom_site_type_symbol
_atom_site_fract_x
_atom_site_fract_y
_atom_site_fract_z
S1 S 0.402300 -0.495690 -0.188110
S2 S 0.722930 0.076160 0.351210
F3 F -0.001200 -0.480180 -0.319350
F4 F 0.061800 -0.699040 -0.308280
F5 F 0.334800 -0.570430 -0.378870
F6 F 0.416300 0.276740 0.398430
F7 F 0.541500 0.166990 0.513260
F8 F 0.828300 0.329640 0.473950
O9 O 0.537200 -0.341240 -0.205920
O10 O 0.606300 -0.585800 -0.186790
O11 O 0.233300 -0.473200 -0.114020
O12 O 0.814100 0.170010 0.273390
O13 O 0.489200 -0.027960 0.308500
O14 O 0.960200 0.039590 0.398700
C15 C 0.594700 -0.043210 0.016850
C16 C 0.642800 -0.172550 -0.045510
C17 C 0.836800 -0.253380 -0.012730
C18 C 0.981200 -0.206800 0.081530
C19 C 0.930300 -0.083530 0.145210
C20 C 0.736200 -0.001460 0.114230
C21 C 0.492800 -0.212820 -0.143030
C22 C 0.678700 0.127490 0.176510
C23 C 0.184300 -0.565300 -0.307140
C24 C 0.618900 0.223100 0.440040
H25 H 0.868900 -0.339800 -0.054800
H26 H 1.116900 -0.260000 0.102500
H27 H 1.027200 -0.054800 0.209900
S28 S 0.597700 0.495690 0.188110
S29 S 0.277070 -0.076160 -0.351210
F30 F 1.001200 0.480180 0.319350
F31 F 0.938200 0.699040 0.308280
F32 F 0.665200 0.570430 0.378870
F33 F 0.583700 -0.276740 -0.398430
F34 F 0.458500 -0.166990 -0.513260
F35 F 0.171700 -0.329640 -0.473950
O36 O 0.462800 0.341240 0.205920
O37 O 0.393700 0.585800 0.186790
O38 O 0.766700 0.473200 0.114020
O39 O 0.185900 -0.170010 -0.273390
O40 O 0.510800 0.027960 -0.308500
O41 O 0.039800 -0.039590 -0.398700
C42 C 0.405300 0.043210 -0.016850
C43 C 0.357200 0.172550 0.045510
C44 C 0.163200 0.253380 0.012730
C45 C 0.018800 0.206800 -0.081530
C46 C 0.069700 0.083530 -0.145210
C47 C 0.263800 0.001460 -0.114230
C48 C 0.507200 0.212820 0.143030
C49 C 0.321300 -0.127490 -0.176510
C50 C 0.815700 0.565300 0.307140
C51 C 0.381100 -0.223100 -0.440040
H52 H 0.131100 0.339800 0.054800
H53 H -0.116900 0.260000 -0.102500
H54 H -0.027200 0.054800 -0.209900
S55 S 0.402300 -0.495690 0.811890
S56 S 0.722930 0.076160 1.351210
F57 F -0.001200 -0.480180 0.680650
F58 F 0.061800 -0.699040 0.691720
F59 F 0.334800 -0.570430 0.621130
F60 F 0.416300 0.276740 1.398430
F61 F 0.541500 0.166990 1.513260
F62 F 0.828300 0.329640 1.473950
O63 O 0.537200 -0.341240 0.794080
O64 O 0.606300 -0.585800 0.813210
O65 O 0.233300 -0.473200 0.885980
O66 O 0.814100 0.170010 1.273390
O67 O 0.489200 -0.027960 1.308500
O68 O 0.960200 0.039590 1.398700
C69 C 0.594700 -0.043210 1.016850
C70 C 0.642800 -0.172550 0.954490
C71 C 0.836800 -0.253380 0.987270
C72 C 0.981200 -0.206800 1.081530
C73 C 0.930300 -0.083530 1.145210
C74 C 0.736200 -0.001460 1.114230
C75 C 0.492800 -0.212820 0.856970
C76 C 0.678700 0.127490 1.176510
C77 C 0.184300 -0.565300 0.692860
C78 C 0.618900 0.223100 1.440040
H79 H 0.868900 -0.339800 0.945200
H80 H 1.116900 -0.260000 1.102500
H81 H 1.027200 -0.054800 1.209900
S82 S 0.597700 0.495690 1.188110
S83 S 0.277070 -0.076160 0.648790
F84 F 1.001200 0.480180 1.319350
F85 F 0.938200 0.699040 1.308280
F86 F 0.665200 0.570430 1.378870
F87 F 0.583700 -0.276740 0.601570
F88 F 0.458500 -0.166990 0.486740
F89 F 0.171700 -0.329640 0.526050
O90 O 0.462800 0.341240 1.205920
O91 O 0.393700 0.585800 1.186790
O92 O 0.766700 0.473200 1.114020
O93 O 0.185900 -0.170010 0.726610
O94 O 0.510800 0.027960 0.691500
O95 O 0.039800 -0.039590 0.601300
C96 C 0.405300 0.043210 0.983150
C97 C 0.357200 0.172550 1.045510
C98 C 0.163200 0.253380 1.012730
C99 C 0.018800 0.206800 0.918470
C100 C 0.069700 0.083530 0.854790
C101 C 0.263800 0.001460 0.885770
C102 C 0.507200 0.212820 1.143030
C103 C 0.321300 -0.127490 0.823490
C104 C 0.815700 0.565300 1.307140
C105 C 0.381100 -0.223100 0.559960
H106 H 0.131100 0.339800 1.054800
H107 H -0.116900 0.260000 0.897500
H108 H -0.027200 0.054800 0.790100
S109 S 0.402300 0.504310 -0.188110
S110 S 0.722930 1.076160 0.351210
F111 F -0.001200 0.519820 -0.319350
F112 F 0.061800 0.300960 -0.308280
F113 F 0.334800 0.429570 -0.378870
F114 F 0.416300 1.276740 0.398430
F115 F 0.541500 1.166990 0.513260
F116 F 0.828300 1.329640 0.473950
O117 O 0.537200 0.658760 -0.205920
O118 O 0.606300 0.414200 -0.186790
O119 O 0.233300 0.526800 -0.114020
O120 O 0.814100 1.170010 0.273390
O121 O 0.489200 0.972040 0.308500
O122 O 0.960200 1.039590 0.398700
C123 C 0.594700 0.956790 0.016850
C124 C 0.642800 0.827450 -0.045510
C125 C 0.836800 0.746620 -0.012730
C126 C 0.981200 0.793200 0.081530
C127 C 0.930300 0.916470 0.145210
C128 C 0.736200 0.998540 0.114230
C129 C 0.492800 0.787180 -0.143030
C130 C 0.678700 1.127490 0.176510
C131 C 0.184300 0.434700 -0.307140
C132 C 0.618900 1.223100 0.440040
H133 H 0.868900 0.660200 -0.054800
H134 H 1.116900 0.740000 0.102500
H135 H 1.027200 0.945200 0.209900
S136 S 0.597700 1.495690 0.188110
S137 S 0.277070 0.923840 -0.351210
F138 F 1.001200 1.480180 0.319350
F139 F 0.938200 1.699040 0.308280
F140 F 0.665200 1.570430 0.378870
F141 F 0.583700 0.723260 -0.398430
F142 F 0.458500 0.833010 -0.513260
F143 F 0.171700 0.670360 -0.473950
O144 O 0.462800 1.341240 0.205920
O145 O 0.393700 1.585800 0.186790
O146 O 0.766700 1.473200 0.114020
O147 O 0.185900 0.829990 -0.273390
O148 O 0.510800 1.027960 -0.308500
O149 O 0.039800 0.960410 -0.398700
C150 C 0.405300 1.043210 -0.016850
C151 C 0.357200 1.172550 0.045510
C152 C 0.163200 1.253380 0.012730
C153 C 0.018800 1.206800 -0.081530
C154 C 0.069700 1.083530 -0.145210
C155 C 0.263800 1.001460 -0.114230
C156 C 0.507200 1.212820 0.143030
C157 C 0.321300 0.872510 -0.176510
C158 C 0.815700 1.565300 0.307140
C159 C 0.381100 0.776900 -0.440040
H160 H 0.131100 1.339800 0.054800
H161 H -0.116900 1.260000 -0.102500
H162 H -0.027200 1.054800 -0.209900
S163 S 0.402300 0.504310 0.811890
S164 S 0.722930 1.076160 1.351210
F165 F -0.001200 0.519820 0.680650
F166 F 0.061800 0.300960 0.691720
F167 F 0.334800 0.429570 0.621130
F168 F 0.416300 1.276740 1.398430
F169 F 0.541500 1.166990 1.513260
F170 F 0.828300 1.329640 1.473950
O171 O 0.537200 0.658760 0.794080
O172 O 0.606300 0.414200 0.813210
O173 O 0.233300 0.526800 0.885980
O174 O 0.814100 1.170010 1.273390
O175 O 0.489200 0.972040 1.308500
O176 O 0.960200 1.039590 1.398700
C177 C 0.594700 0.956790 1.016850
C178 C 0.642800 0.827450 0.954490
C179 C 0.836800 0.746620 0.987270
C180 C 0.981200 0.793200 1.081530
C181 C 0.930300 0.916470 1.145210
C182 C 0.736200 0.998540 1.114230
C183 C 0.492800 0.787180 0.856970
C184 C 0.678700 1.127490 1.176510
C185 C 0.184300 0.434700 0.692860
C186 C 0.618900 1.223100 1.440040
H187 H 0.868900 0.660200 0.945200
H188 H 1.116900 0.740000 1.102500
H189 H 1.027200 0.945200 1.209900
S190 S 0.597700 1.495690 1.188110
S191 S 0.277070 0.923840 0.648790
F192 F 1.001200 1.480180 1.319350
F193 F 0.938200 1.699040 1.308280
F194 F 0.665200 1.570430 1.378870
F195 F 0.583700 0.723260 0.601570
F196 F 0.458500 0.833010 0.486740
F197 F 0.171700 0.670360 0.526050
O198 O 0.462800 1.341240 1.205920
O199 O 0.393700 1.585800 1.186790
O200 O 0.766700 1.473200 1.114020
O201 O 0.185900 0.829990 0.726610
O202 O 0.510800 1.027960 0.691500
O203 O 0.039800 0.960410 0.601300
C204 C 0.405300 1.043210 0.983150
C205 C 0.357200 1.172550 1.045510
C206 C 0.163200 1.253380 1.012730
C207 C 0.018800 1.206800 0.918470
C208 C 0.069700 1.083530 0.854790
C209 C 0.263800 1.001460 0.885770
C210 C 0.507200 1.212820 1.143030
C211 C 0.321300 0.872510 0.823490
C212 C 0.815700 1.565300 1.307140
C213 C 0.381100 0.776900 0.559960
H214 H 0.131100 1.339800 1.054800
H215 H -0.116900 1.260000 0.897500
H216 H -0.027200 1.054800 0.790100

#END
