
#######################################################################
#
#                 Cambridge Crystallographic Data Centre
#                                CCDC 
#
#######################################################################
#
# If this CIF has been generated from an entry in the Cambridge 
# Structural Database, then it will include bibliographic, chemical, 
# crystal, experimental, refinement or atomic coordinate data resulting 
# from the CCDC's data processing and validation procedures.
#
#######################################################################

data_ABUSUN
_symmetry_cell_setting           orthorhombic
_symmetry_space_group_name_H-M   'P b c a'
_symmetry_Int_Tables_number      61
_space_group_name_Hall           '-P 2ac 2ab'
loop_
_symmetry_equiv_pos_site_id
_symmetry_equiv_pos_as_xyz
1 x,y,z
2 1/2-x,-y,1/2+z
3 -x,1/2+y,1/2-z
4 1/2+x,1/2-y,-z
5 -x,-y,-z
6 1/2+x,y,1/2-z
7 x,1/2-y,1/2+z
8 1/2-x,1/2+y,z
_cell_length_a                   12.771(2)
_cell_length_b                   9.9140(17)
_cell_length_c                   18.545(3)
_cell_angle_alpha                90
_cell_angle_beta                 90
_cell_angle_gamma                90
_cell_volume                     2348.01
loop_
_atom_site_label
_atom_site_type_symbol
_atom_site_fract_x
_atom_site_fract_y
_atom_site_fract_z
N1 N 0.77891(15) 0.83202(17) 0.35569(11)
N2 N 0.76143(18) 1.05511(18) 0.34414(12)
H1 H 0.7419 1.1362 0.3537
N3 N 0.6700(2) 0.9489(2) 0.43891(13)
H2 H 0.6369 1.0230 0.4469
C1 C 0.83575(19) 0.8756(2) 0.29581(12)
C2 C 0.8249(2) 1.0147(2) 0.28751(13)
C3 C 0.8733(2) 1.0849(3) 0.23273(15)
H3 H 0.8647 1.1775 0.2274
C4 C 0.9352(3) 1.0113(3) 0.18604(15)
H4 H 0.9689 1.0552 0.1483
C5 C 0.9482(2) 0.8736(3) 0.19423(15)
H5 H 0.9915 0.8274 0.1624
C6 C 0.8985(2) 0.8035(3) 0.24827(14)
H6 H 0.9066 0.7107 0.2529
C7 C 0.7362(2) 0.9429(2) 0.38127(14)
C8 C 0.6529(2) 0.8382(2) 0.48663(13)
C9 C 0.5529(2) 0.7951(3) 0.50058(15)
H7 H 0.4964 0.8362 0.4778
C10 C 0.5361(2) 0.6904(3) 0.54858(16)
H8 H 0.4678 0.6629 0.5578
C11 C 0.6168(2) 0.6259(3) 0.58288(14)
C12 C 0.7163(2) 0.6719(3) 0.56870(17)
H9 H 0.7728 0.6315 0.5917
C13 C 0.7344(2) 0.7764(3) 0.52120(18)
H10 H 0.8026 0.8051 0.5126
C14 C 0.5974(3) 0.5121(4) 0.63497(18)
H11 H 0.5237 0.4938 0.6374
H12 H 0.6225 0.5371 0.6819
H13 H 0.6337 0.4329 0.6188
N1 N 0.72109(15) 0.16798(17) 0.85569(11)
N2 N 0.73857(18) -0.05511(18) 0.84414(12)
H1 H 0.7581 -0.1362 0.8537
N3 N 0.8300(2) 0.0511(2) 0.93891(13)
H2 H 0.8631 -0.0230 0.9469
C1 C 0.66425(19) 0.1244(2) 0.79581(12)
C2 C 0.6751(2) -0.0147(2) 0.78751(13)
C3 C 0.6267(2) -0.0849(3) 0.73273(15)
H3 H 0.6353 -0.1775 0.7274
C4 C 0.5648(3) -0.0113(3) 0.68604(15)
H4 H 0.5311 -0.0552 0.6483
C5 C 0.5518(2) 0.1264(3) 0.69423(15)
H5 H 0.5085 0.1726 0.6624
C6 C 0.6015(2) 0.1965(3) 0.74827(14)
H6 H 0.5934 0.2893 0.7529
C7 C 0.7638(2) 0.0571(2) 0.88127(14)
C8 C 0.8471(2) 0.1618(2) 0.98663(13)
C9 C 0.9471(2) 0.2049(3) 1.00058(15)
H7 H 1.0036 0.1638 0.9778
C10 C 0.9639(2) 0.3096(3) 1.04858(16)
H8 H 1.0322 0.3371 1.0578
C11 C 0.8832(2) 0.3741(3) 1.08288(14)
C12 C 0.7837(2) 0.3281(3) 1.06870(17)
H9 H 0.7272 0.3685 1.0917
C13 C 0.7656(2) 0.2236(3) 1.02120(18)
H10 H 0.6974 0.1949 1.0126
C14 C 0.9026(3) 0.4879(4) 1.13497(18)
H11 H 0.9763 0.5062 1.1374
H12 H 0.8775 0.4629 1.1819
H13 H 0.8663 0.5671 1.1188
N1 N 0.22109(15) 0.33202(17) 0.14431(11)
N2 N 0.23857(18) 0.55511(18) 0.15586(12)
H1 H 0.2581 0.6362 0.1463
N3 N 0.3300(2) 0.4489(2) 0.06109(13)
H2 H 0.3631 0.5230 0.0531
C1 C 0.16425(19) 0.3756(2) 0.20419(12)
C2 C 0.1751(2) 0.5147(2) 0.21249(13)
C3 C 0.1267(2) 0.5849(3) 0.26727(15)
H3 H 0.1353 0.6775 0.2726
C4 C 0.0648(3) 0.5113(3) 0.31396(15)
H4 H 0.0311 0.5552 0.3517
C5 C 0.0518(2) 0.3736(3) 0.30577(15)
H5 H 0.0085 0.3274 0.3376
C6 C 0.1015(2) 0.3035(3) 0.25173(14)
H6 H 0.0934 0.2107 0.2471
C7 C 0.2638(2) 0.4429(2) 0.11873(14)
C8 C 0.3471(2) 0.3382(2) 0.01337(13)
C9 C 0.4471(2) 0.2951(3) -0.00058(15)
H7 H 0.5036 0.3362 0.0222
C10 C 0.4639(2) 0.1904(3) -0.04858(16)
H8 H 0.5322 0.1629 -0.0578
C11 C 0.3832(2) 0.1259(3) -0.08288(14)
C12 C 0.2837(2) 0.1719(3) -0.06870(17)
H9 H 0.2272 0.1315 -0.0917
C13 C 0.2656(2) 0.2764(3) -0.02120(18)
H10 H 0.1974 0.3051 -0.0126
C14 C 0.4026(3) 0.0121(4) -0.13497(18)
H11 H 0.4763 -0.0062 -0.1374
H12 H 0.3775 0.0371 -0.1819
H13 H 0.3663 -0.0671 -0.1188
N1 N 0.27891(15) 0.66798(17) 0.64431(11)
N2 N 0.26143(18) 0.44489(18) 0.65586(12)
H1 H 0.2419 0.3638 0.6463
N3 N 0.1700(2) 0.5511(2) 0.56109(13)
H2 H 0.1369 0.4770 0.5531
C1 C 0.33575(19) 0.6244(2) 0.70419(12)
C2 C 0.3249(2) 0.4853(2) 0.71249(13)
C3 C 0.3733(2) 0.4151(3) 0.76727(15)
H3 H 0.3647 0.3225 0.7726
C4 C 0.4352(3) 0.4887(3) 0.81396(15)
H4 H 0.4689 0.4448 0.8517
C5 C 0.4482(2) 0.6264(3) 0.80577(15)
H5 H 0.4915 0.6726 0.8376
C6 C 0.3985(2) 0.6965(3) 0.75173(14)
H6 H 0.4066 0.7893 0.7471
C7 C 0.2362(2) 0.5571(2) 0.61873(14)
C8 C 0.1529(2) 0.6618(2) 0.51337(13)
C9 C 0.0529(2) 0.7049(3) 0.49942(15)
H7 H -0.0036 0.6638 0.5222
C10 C 0.0361(2) 0.8096(3) 0.45142(16)
H8 H -0.0322 0.8371 0.4422
C11 C 0.1168(2) 0.8741(3) 0.41712(14)
C12 C 0.2163(2) 0.8281(3) 0.43130(17)
H9 H 0.2728 0.8685 0.4083
C13 C 0.2344(2) 0.7236(3) 0.47880(18)
H10 H 0.3026 0.6949 0.4874
C14 C 0.0974(3) 0.9879(4) 0.36503(18)
H11 H 0.0237 1.0062 0.3626
H12 H 0.1225 0.9629 0.3181
H13 H 0.1337 1.0671 0.3812
N1 N 0.22109(15) 0.16798(17) 0.64431(11)
N2 N 0.23857(18) -0.05511(18) 0.65586(12)
H1 H 0.2581 -0.1362 0.6463
N3 N 0.3300(2) 0.0511(2) 0.56109(13)
H2 H 0.3631 -0.0230 0.5531
C1 C 0.16425(19) 0.1244(2) 0.70419(12)
C2 C 0.1751(2) -0.0147(2) 0.71249(13)
C3 C 0.1267(2) -0.0849(3) 0.76727(15)
H3 H 0.1353 -0.1775 0.7726
C4 C 0.0648(3) -0.0113(3) 0.81396(15)
H4 H 0.0311 -0.0552 0.8517
C5 C 0.0518(2) 0.1264(3) 0.80577(15)
H5 H 0.0085 0.1726 0.8376
C6 C 0.1015(2) 0.1965(3) 0.75173(14)
H6 H 0.0934 0.2893 0.7471
C7 C 0.2638(2) 0.0571(2) 0.61873(14)
C8 C 0.3471(2) 0.1618(2) 0.51337(13)
C9 C 0.4471(2) 0.2049(3) 0.49942(15)
H7 H 0.5036 0.1638 0.5222
C10 C 0.4639(2) 0.3096(3) 0.45142(16)
H8 H 0.5322 0.3371 0.4422
C11 C 0.3832(2) 0.3741(3) 0.41712(14)
C12 C 0.2837(2) 0.3281(3) 0.43130(17)
H9 H 0.2272 0.3685 0.4083
C13 C 0.2656(2) 0.2236(3) 0.47880(18)
H10 H 0.1974 0.1949 0.4874
C14 C 0.4026(3) 0.4879(4) 0.36503(18)
H11 H 0.4763 0.5062 0.3626
H12 H 0.3775 0.4629 0.3181
H13 H 0.3663 0.5671 0.3812
N1 N 0.27891(15) 0.83202(17) 0.14431(11)
N2 N 0.26143(18) 1.05511(18) 0.15586(12)
H1 H 0.2419 1.1362 0.1463
N3 N 0.1700(2) 0.9489(2) 0.06109(13)
H2 H 0.1369 1.0230 0.0531
C1 C 0.33575(19) 0.8756(2) 0.20419(12)
C2 C 0.3249(2) 1.0147(2) 0.21249(13)
C3 C 0.3733(2) 1.0849(3) 0.26727(15)
H3 H 0.3647 1.1775 0.2726
C4 C 0.4352(3) 1.0113(3) 0.31396(15)
H4 H 0.4689 1.0552 0.3517
C5 C 0.4482(2) 0.8736(3) 0.30577(15)
H5 H 0.4915 0.8274 0.3376
C6 C 0.3985(2) 0.8035(3) 0.25173(14)
H6 H 0.4066 0.7107 0.2471
C7 C 0.2362(2) 0.9429(2) 0.11873(14)
C8 C 0.1529(2) 0.8382(2) 0.01337(13)
C9 C 0.0529(2) 0.7951(3) -0.00058(15)
H7 H -0.0036 0.8362 0.0222
C10 C 0.0361(2) 0.6904(3) -0.04858(16)
H8 H -0.0322 0.6629 -0.0578
C11 C 0.1168(2) 0.6259(3) -0.08288(14)
C12 C 0.2163(2) 0.6719(3) -0.06870(17)
H9 H 0.2728 0.6315 -0.0917
C13 C 0.2344(2) 0.7764(3) -0.02120(18)
H10 H 0.3026 0.8051 -0.0126
C14 C 0.0974(3) 0.5121(4) -0.13497(18)
H11 H 0.0237 0.4938 -0.1374
H12 H 0.1225 0.5371 -0.1819
H13 H 0.1337 0.4329 -0.1188
N1 N 0.77891(15) 0.66798(17) 0.85569(11)
N2 N 0.76143(18) 0.44489(18) 0.84414(12)
H1 H 0.7419 0.3638 0.8537
N3 N 0.6700(2) 0.5511(2) 0.93891(13)
H2 H 0.6369 0.4770 0.9469
C1 C 0.83575(19) 0.6244(2) 0.79581(12)
C2 C 0.8249(2) 0.4853(2) 0.78751(13)
C3 C 0.8733(2) 0.4151(3) 0.73273(15)
H3 H 0.8647 0.3225 0.7274
C4 C 0.9352(3) 0.4887(3) 0.68604(15)
H4 H 0.9689 0.4448 0.6483
C5 C 0.9482(2) 0.6264(3) 0.69423(15)
H5 H 0.9915 0.6726 0.6624
C6 C 0.8985(2) 0.6965(3) 0.74827(14)
H6 H 0.9066 0.7893 0.7529
C7 C 0.7362(2) 0.5571(2) 0.88127(14)
C8 C 0.6529(2) 0.6618(2) 0.98663(13)
C9 C 0.5529(2) 0.7049(3) 1.00058(15)
H7 H 0.4964 0.6638 0.9778
C10 C 0.5361(2) 0.8096(3) 1.04858(16)
H8 H 0.4678 0.8371 1.0578
C11 C 0.6168(2) 0.8741(3) 1.08288(14)
C12 C 0.7163(2) 0.8281(3) 1.06870(17)
H9 H 0.7728 0.8685 1.0917
C13 C 0.7344(2) 0.7236(3) 1.02120(18)
H10 H 0.8026 0.6949 1.0126
C14 C 0.5974(3) 0.9879(4) 1.13497(18)
H11 H 0.5237 1.0062 1.1374
H12 H 0.6225 0.9629 1.1819
H13 H 0.6337 1.0671 1.1188
N1 N 0.72109(15) 0.33202(17) 0.35569(11)
N2 N 0.73857(18) 0.55511(18) 0.34414(12)
H1 H 0.7581 0.6362 0.3537
N3 N 0.8300(2) 0.4489(2) 0.43891(13)
H2 H 0.8631 0.5230 0.4469
C1 C 0.66425(19) 0.3756(2) 0.29581(12)
C2 C 0.6751(2) 0.5147(2) 0.28751(13)
C3 C 0.6267(2) 0.5849(3) 0.23273(15)
H3 H 0.6353 0.6775 0.2274
C4 C 0.5648(3) 0.5113(3) 0.18604(15)
H4 H 0.5311 0.5552 0.1483
C5 C 0.5518(2) 0.3736(3) 0.19423(15)
H5 H 0.5085 0.3274 0.1624
C6 C 0.6015(2) 0.3035(3) 0.24827(14)
H6 H 0.5934 0.2107 0.2529
C7 C 0.7638(2) 0.4429(2) 0.38127(14)
C8 C 0.8471(2) 0.3382(2) 0.48663(13)
C9 C 0.9471(2) 0.2951(3) 0.50058(15)
H7 H 1.0036 0.3362 0.4778
C10 C 0.9639(2) 0.1904(3) 0.54858(16)
H8 H 1.0322 0.1629 0.5578
C11 C 0.8832(2) 0.1259(3) 0.58288(14)
C12 C 0.7837(2) 0.1719(3) 0.56870(17)
H9 H 0.7272 0.1315 0.5917
C13 C 0.7656(2) 0.2764(3) 0.52120(18)
H10 H 0.6974 0.3051 0.5126
C14 C 0.9026(3) 0.0121(4) 0.63497(18)
H11 H 0.9763 -0.0062 0.6374
H12 H 0.8775 0.0371 0.6819
H13 H 0.8663 -0.0671 0.6188

#END
