./ABUSUN_from_xyz.cif_generated_by_CrystalShift
_symmetry_cell_setting triclinic
_symmetry_space_group_name_H-M 'P 1'
loop_
_symmetry_equiv_pos_site_id
_symmetry_equiv_pos_as_xyz
1 x,y,z
_cell_length_a 12.771000
_cell_length_b 9.914000
_cell_length_c 18.545000
_cell_angle_alpha 90.000000
_cell_angle_beta 90.000000
_cell_angle_gamma 90.000000
_cell_volume 2348.013865
loop_
_atom_site_label
_atom_site_type_symbol
_atom_site_fract_x
_atom_site_fract_y
_atom_site_fract_z
N1 N 0.778910 0.832020 0.355690
N2 N 0.761430 1.055110 0.344140
H3 H 0.741900 1.136200 0.353700
N4 N 0.670000 0.948900 0.438910
H5 H 0.636900 1.023000 0.446900
C6 C 0.835750 0.875600 0.295810
C7 C 0.824900 1.014700 0.287510
C8 C 0.873300 1.084900 0.232730
H9 H 0.864700 1.177500 0.227400
C10 C 0.935200 1.011300 0.186040
H11 H 0.968900 1.055200 0.148300
C12 C 0.948200 0.873600 0.194230
H13 H 0.991500 0.827400 0.162400
C14 C 0.898500 0.803500 0.248270
H15 H 0.906600 0.710700 0.252900
C16 C 0.736200 0.942900 0.381270
C17 C 0.652900 0.838200 0.486630
C18 C 0.552900 0.795100 0.500580
H19 H 0.496400 0.836200 0.477800
C20 C 0.536100 0.690400 0.548580
H21 H 0.467800 0.662900 0.557800
C22 C 0.616800 0.625900 0.582880
C23 C 0.716300 0.671900 0.568700
H24 H 0.772800 0.631500 0.591700
C25 C 0.734400 0.776400 0.521200
H26 H 0.802600 0.805100 0.512600
C27 C 0.597400 0.512100 0.634970
H28 H 0.523700 0.493800 0.637400
H29 H 0.622500 0.537100 0.681900
H30 H 0.633700 0.432900 0.618800
N31 N 0.721090 0.167980 0.855690
N32 N 0.738570 -0.055110 0.844140
H33 H 0.758100 -0.136200 0.853700
N34 N 0.830000 0.051100 0.938910
H35 H 0.863100 -0.023000 0.946900
C36 C 0.664250 0.124400 0.795810
C37 C 0.675100 -0.014700 0.787510
C38 C 0.626700 -0.084900 0.732730
H39 H 0.635300 -0.177500 0.727400
C40 C 0.564800 -0.011300 0.686040
H41 H 0.531100 -0.055200 0.648300
C42 C 0.551800 0.126400 0.694230
H43 H 0.508500 0.172600 0.662400
C44 C 0.601500 0.196500 0.748270
H45 H 0.593400 0.289300 0.752900
C46 C 0.763800 0.057100 0.881270
C47 C 0.847100 0.161800 0.986630
C48 C 0.947100 0.204900 1.000580
H49 H 1.003600 0.163800 0.977800
C50 C 0.963900 0.309600 1.048580
H51 H 1.032200 0.337100 1.057800
C52 C 0.883200 0.374100 1.082880
C53 C 0.783700 0.328100 1.068700
H54 H 0.727200 0.368500 1.091700
C55 C 0.765600 0.223600 1.021200
H56 H 0.697400 0.194900 1.012600
C57 C 0.902600 0.487900 1.134970
H58 H 0.976300 0.506200 1.137400
H59 H 0.877500 0.462900 1.181900
H60 H 0.866300 0.567100 1.118800
N61 N 0.221090 0.332020 0.144310
N62 N 0.238570 0.555110 0.155860
H63 H 0.258100 0.636200 0.146300
N64 N 0.330000 0.448900 0.061090
H65 H 0.363100 0.523000 0.053100
C66 C 0.164250 0.375600 0.204190
C67 C 0.175100 0.514700 0.212490
C68 C 0.126700 0.584900 0.267270
H69 H 0.135300 0.677500 0.272600
C70 C 0.064800 0.511300 0.313960
H71 H 0.031100 0.555200 0.351700
C72 C 0.051800 0.373600 0.305770
H73 H 0.008500 0.327400 0.337600
C74 C 0.101500 0.303500 0.251730
H75 H 0.093400 0.210700 0.247100
C76 C 0.263800 0.442900 0.118730
C77 C 0.347100 0.338200 0.013370
C78 C 0.447100 0.295100 -0.000580
H79 H 0.503600 0.336200 0.022200
C80 C 0.463900 0.190400 -0.048580
H81 H 0.532200 0.162900 -0.057800
C82 C 0.383200 0.125900 -0.082880
C83 C 0.283700 0.171900 -0.068700
H84 H 0.227200 0.131500 -0.091700
C85 C 0.265600 0.276400 -0.021200
H86 H 0.197400 0.305100 -0.012600
C87 C 0.402600 0.012100 -0.134970
H88 H 0.476300 -0.006200 -0.137400
H89 H 0.377500 0.037100 -0.181900
H90 H 0.366300 -0.067100 -0.118800
N91 N 0.278910 0.667980 0.644310
N92 N 0.261430 0.444890 0.655860
H93 H 0.241900 0.363800 0.646300
N94 N 0.170000 0.551100 0.561090
H95 H 0.136900 0.477000 0.553100
C96 C 0.335750 0.624400 0.704190
C97 C 0.324900 0.485300 0.712490
C98 C 0.373300 0.415100 0.767270
H99 H 0.364700 0.322500 0.772600
C100 C 0.435200 0.488700 0.813960
H101 H 0.468900 0.444800 0.851700
C102 C 0.448200 0.626400 0.805770
H103 H 0.491500 0.672600 0.837600
C104 C 0.398500 0.696500 0.751730
H105 H 0.406600 0.789300 0.747100
C106 C 0.236200 0.557100 0.618730
C107 C 0.152900 0.661800 0.513370
C108 C 0.052900 0.704900 0.499420
H109 H -0.003600 0.663800 0.522200
C110 C 0.036100 0.809600 0.451420
H111 H -0.032200 0.837100 0.442200
C112 C 0.116800 0.874100 0.417120
C113 C 0.216300 0.828100 0.431300
H114 H 0.272800 0.868500 0.408300
C115 C 0.234400 0.723600 0.478800
H116 H 0.302600 0.694900 0.487400
C117 C 0.097400 0.987900 0.365030
H118 H 0.023700 1.006200 0.362600
H119 H 0.122500 0.962900 0.318100
H120 H 0.133700 1.067100 0.381200
N121 N 0.221090 0.167980 0.644310
N122 N 0.238570 -0.055110 0.655860
H123 H 0.258100 -0.136200 0.646300
N124 N 0.330000 0.051100 0.561090
H125 H 0.363100 -0.023000 0.553100
C126 C 0.164250 0.124400 0.704190
C127 C 0.175100 -0.014700 0.712490
C128 C 0.126700 -0.084900 0.767270
H129 H 0.135300 -0.177500 0.772600
C130 C 0.064800 -0.011300 0.813960
H131 H 0.031100 -0.055200 0.851700
C132 C 0.051800 0.126400 0.805770
H133 H 0.008500 0.172600 0.837600
C134 C 0.101500 0.196500 0.751730
H135 H 0.093400 0.289300 0.747100
C136 C 0.263800 0.057100 0.618730
C137 C 0.347100 0.161800 0.513370
C138 C 0.447100 0.204900 0.499420
H139 H 0.503600 0.163800 0.522200
C140 C 0.463900 0.309600 0.451420
H141 H 0.532200 0.337100 0.442200
C142 C 0.383200 0.374100 0.417120
C143 C 0.283700 0.328100 0.431300
H144 H 0.227200 0.368500 0.408300
C145 C 0.265600 0.223600 0.478800
H146 H 0.197400 0.194900 0.487400
C147 C 0.402600 0.487900 0.365030
H148 H 0.476300 0.506200 0.362600
H149 H 0.377500 0.462900 0.318100
H150 H 0.366300 0.567100 0.381200
N151 N 0.278910 0.832020 0.144310
N152 N 0.261430 1.055110 0.155860
H153 H 0.241900 1.136200 0.146300
N154 N 0.170000 0.948900 0.061090
H155 H 0.136900 1.023000 0.053100
C156 C 0.335750 0.875600 0.204190
C157 C 0.324900 1.014700 0.212490
C158 C 0.373300 1.084900 0.267270
H159 H 0.364700 1.177500 0.272600
C160 C 0.435200 1.011300 0.313960
H161 H 0.468900 1.055200 0.351700
C162 C 0.448200 0.873600 0.305770
H163 H 0.491500 0.827400 0.337600
C164 C 0.398500 0.803500 0.251730
H165 H 0.406600 0.710700 0.247100
C166 C 0.236200 0.942900 0.118730
C167 C 0.152900 0.838200 0.013370
C168 C 0.052900 0.795100 -0.000580
H169 H -0.003600 0.836200 0.022200
C170 C 0.036100 0.690400 -0.048580
H171 H -0.032200 0.662900 -0.057800
C172 C 0.116800 0.625900 -0.082880
C173 C 0.216300 0.671900 -0.068700
H174 H 0.272800 0.631500 -0.091700
C175 C 0.234400 0.776400 -0.021200
H176 H 0.302600 0.805100 -0.012600
C177 C 0.097400 0.512100 -0.134970
H178 H 0.023700 0.493800 -0.137400
H179 H 0.122500 0.537100 -0.181900
H180 H 0.133700 0.432900 -0.118800
N181 N 0.778910 0.667980 0.855690
N182 N 0.761430 0.444890 0.844140
H183 H 0.741900 0.363800 0.853700
N184 N 0.670000 0.551100 0.938910
H185 H 0.636900 0.477000 0.946900
C186 C 0.835750 0.624400 0.795810
C187 C 0.824900 0.485300 0.787510
C188 C 0.873300 0.415100 0.732730
H189 H 0.864700 0.322500 0.727400
C190 C 0.935200 0.488700 0.686040
H191 H 0.968900 0.444800 0.648300
C192 C 0.948200 0.626400 0.694230
H193 H 0.991500 0.672600 0.662400
C194 C 0.898500 0.696500 0.748270
H195 H 0.906600 0.789300 0.752900
C196 C 0.736200 0.557100 0.881270
C197 C 0.652900 0.661800 0.986630
C198 C 0.552900 0.704900 1.000580
H199 H 0.496400 0.663800 0.977800
C200 C 0.536100 0.809600 1.048580
H201 H 0.467800 0.837100 1.057800
C202 C 0.616800 0.874100 1.082880
C203 C 0.716300 0.828100 1.068700
H204 H 0.772800 0.868500 1.091700
C205 C 0.734400 0.723600 1.021200
H206 H 0.802600 0.694900 1.012600
C207 C 0.597400 0.987900 1.134970
H208 H 0.523700 1.006200 1.137400
H209 H 0.622500 0.962900 1.181900
H210 H 0.633700 1.067100 1.118800
N211 N 0.721090 0.332020 0.355690
N212 N 0.738570 0.555110 0.344140
H213 H 0.758100 0.636200 0.353700
N214 N 0.830000 0.448900 0.438910
H215 H 0.863100 0.523000 0.446900
C216 C 0.664250 0.375600 0.295810
C217 C 0.675100 0.514700 0.287510
C218 C 0.626700 0.584900 0.232730
H219 H 0.635300 0.677500 0.227400
C220 C 0.564800 0.511300 0.186040
H221 H 0.531100 0.555200 0.148300
C222 C 0.551800 0.373600 0.194230
H223 H 0.508500 0.327400 0.162400
C224 C 0.601500 0.303500 0.248270
H225 H 0.593400 0.210700 0.252900
C226 C 0.763800 0.442900 0.381270
C227 C 0.847100 0.338200 0.486630
C228 C 0.947100 0.295100 0.500580
H229 H 1.003600 0.336200 0.477800
C230 C 0.963900 0.190400 0.548580
H231 H 1.032200 0.162900 0.557800
C232 C 0.883200 0.125900 0.582880
C233 C 0.783700 0.171900 0.568700
H234 H 0.727200 0.131500 0.591700
C235 C 0.765600 0.276400 0.521200
H236 H 0.697400 0.305100 0.512600
C237 C 0.902600 0.012100 0.634970
H238 H 0.976300 -0.006200 0.637400
H239 H 0.877500 0.037100 0.681900
H240 H 0.866300 -0.067100 0.618800

#END
