./ACACTA01_from_xyz.cif_generated_by_CrystalShift
_symmetry_cell_setting triclinic
_symmetry_space_group_name_H-M 'P 1'
loop_
_symmetry_equiv_pos_site_id
_symmetry_equiv_pos_as_xyz
1 x,y,z
_cell_length_a 9.117200
_cell_length_b 7.495000
_cell_length_c 24.662800
_cell_angle_alpha 90.000000
_cell_angle_beta 90.000000
_cell_angle_gamma 90.000000
_cell_volume 1685.293323
loop_
_atom_site_label
_atom_site_type_symbol
_atom_site_fract_x
_atom_site_fract_y
_atom_site_fract_z
C1 C 0.936990 0.148020 0.582120
C2 C 0.823970 0.031090 0.596220
H3 H 0.762100 -0.017400 0.568900
C4 C 0.802400 -0.013890 0.650190
H5 H 0.725500 -0.093600 0.659700
C6 C 0.891890 0.056170 0.690690
C7 C 1.008740 0.165740 0.676680
H8 H 1.073400 0.209500 0.703800
C9 C 1.030220 0.210800 0.622540
H10 H 1.110100 0.285900 0.613000
C11 C 0.870170 0.204470 0.486010
C12 C 0.924550 0.291380 0.434800
H13 H 0.917400 0.206500 0.404700
H14 H 1.027100 0.327500 0.439600
H15 H 0.864600 0.396700 0.426800
C16 C 0.919840 0.116190 0.785150
H17 H 1.025900 0.095400 0.786100
H18 H 0.876800 0.082900 0.820100
H19 H 0.900700 0.242700 0.778000
N20 N 0.964160 0.206390 0.528330
O21 O 0.746310 0.137990 0.488440
O22 O 0.855640 0.010390 0.743080
H23 H 1.047100 0.255000 0.522400
C24 C 0.563010 0.851980 0.082120
C25 C 0.676030 0.968910 0.096220
H26 H 0.737900 1.017400 0.068900
C27 C 0.697600 1.013890 0.150190
H28 H 0.774500 1.093600 0.159700
C29 C 0.608110 0.943830 0.190690
C30 C 0.491260 0.834260 0.176680
H31 H 0.426600 0.790500 0.203800
C32 C 0.469780 0.789200 0.122540
H33 H 0.389900 0.714100 0.113000
C34 C 0.629830 0.795530 -0.013990
C35 C 0.575450 0.708620 -0.065200
H36 H 0.582600 0.793500 -0.095300
H37 H 0.472900 0.672500 -0.060400
H38 H 0.635400 0.603300 -0.073200
C39 C 0.580160 0.883810 0.285150
H40 H 0.474100 0.904600 0.286100
H41 H 0.623200 0.917100 0.320100
H42 H 0.599300 0.757300 0.278000
N43 N 0.535840 0.793610 0.028330
O44 O 0.753690 0.862010 -0.011560
O45 O 0.644360 0.989610 0.243080
H46 H 0.452900 0.745000 0.022400
C47 C 0.063010 0.648020 0.917880
C48 C 0.176030 0.531090 0.903780
H49 H 0.237900 0.482600 0.931100
C50 C 0.197600 0.486110 0.849810
H51 H 0.274500 0.406400 0.840300
C52 C 0.108110 0.556170 0.809310
C53 C -0.008740 0.665740 0.823320
H54 H -0.073400 0.709500 0.796200
C55 C -0.030220 0.710800 0.877460
H56 H -0.110100 0.785900 0.887000
C57 C 0.129830 0.704470 1.013990
C58 C 0.075450 0.791380 1.065200
H59 H 0.082600 0.706500 1.095300
H60 H -0.027100 0.827500 1.060400
H61 H 0.135400 0.896700 1.073200
C62 C 0.080160 0.616190 0.714850
H63 H -0.025900 0.595400 0.713900
H64 H 0.123200 0.582900 0.679900
H65 H 0.099300 0.742700 0.722000
N66 N 0.035840 0.706390 0.971670
O67 O 0.253690 0.637990 1.011560
O68 O 0.144360 0.510390 0.756920
H69 H -0.047100 0.755000 0.977600
C70 C 0.436990 0.351980 0.417880
C71 C 0.323970 0.468910 0.403780
H72 H 0.262100 0.517400 0.431100
C73 C 0.302400 0.513890 0.349810
H74 H 0.225500 0.593600 0.340300
C75 C 0.391890 0.443830 0.309310
C76 C 0.508740 0.334260 0.323320
H77 H 0.573400 0.290500 0.296200
C78 C 0.530220 0.289200 0.377460
H79 H 0.610100 0.214100 0.387000
C80 C 0.370170 0.295530 0.513990
C81 C 0.424550 0.208620 0.565200
H82 H 0.417400 0.293500 0.595300
H83 H 0.527100 0.172500 0.560400
H84 H 0.364600 0.103300 0.573200
C85 C 0.419840 0.383810 0.214850
H86 H 0.525900 0.404600 0.213900
H87 H 0.376800 0.417100 0.179900
H88 H 0.400700 0.257300 0.222000
N89 N 0.464160 0.293610 0.471670
O90 O 0.246310 0.362010 0.511560
O91 O 0.355640 0.489610 0.256920
H92 H 0.547100 0.245000 0.477600
C93 C 0.063010 0.851980 0.417880
C94 C 0.176030 0.968910 0.403780
H95 H 0.237900 1.017400 0.431100
C96 C 0.197600 1.013890 0.349810
H97 H 0.274500 1.093600 0.340300
C98 C 0.108110 0.943830 0.309310
C99 C -0.008740 0.834260 0.323320
H100 H -0.073400 0.790500 0.296200
C101 C -0.030220 0.789200 0.377460
H102 H -0.110100 0.714100 0.387000
C103 C 0.129830 0.795530 0.513990
C104 C 0.075450 0.708620 0.565200
H105 H 0.082600 0.793500 0.595300
H106 H -0.027100 0.672500 0.560400
H107 H 0.135400 0.603300 0.573200
C108 C 0.080160 0.883810 0.214850
H109 H -0.025900 0.904600 0.213900
H110 H 0.123200 0.917100 0.179900
H111 H 0.099300 0.757300 0.222000
N112 N 0.035840 0.793610 0.471670
O113 O 0.253690 0.862010 0.511560
O114 O 0.144360 0.989610 0.256920
H115 H -0.047100 0.745000 0.477600
C116 C 0.436990 0.148020 0.917880
C117 C 0.323970 0.031090 0.903780
H118 H 0.262100 -0.017400 0.931100
C119 C 0.302400 -0.013890 0.849810
H120 H 0.225500 -0.093600 0.840300
C121 C 0.391890 0.056170 0.809310
C122 C 0.508740 0.165740 0.823320
H123 H 0.573400 0.209500 0.796200
C124 C 0.530220 0.210800 0.877460
H125 H 0.610100 0.285900 0.887000
C126 C 0.370170 0.204470 1.013990
C127 C 0.424550 0.291380 1.065200
H128 H 0.417400 0.206500 1.095300
H129 H 0.527100 0.327500 1.060400
H130 H 0.364600 0.396700 1.073200
C131 C 0.419840 0.116190 0.714850
H132 H 0.525900 0.095400 0.713900
H133 H 0.376800 0.082900 0.679900
H134 H 0.400700 0.242700 0.722000
N135 N 0.464160 0.206390 0.971670
O136 O 0.246310 0.137990 1.011560
O137 O 0.355640 0.010390 0.756920
H138 H 0.547100 0.255000 0.977600
C139 C 0.936990 0.351980 0.082120
C140 C 0.823970 0.468910 0.096220
H141 H 0.762100 0.517400 0.068900
C142 C 0.802400 0.513890 0.150190
H143 H 0.725500 0.593600 0.159700
C144 C 0.891890 0.443830 0.190690
C145 C 1.008740 0.334260 0.176680
H146 H 1.073400 0.290500 0.203800
C147 C 1.030220 0.289200 0.122540
H148 H 1.110100 0.214100 0.113000
C149 C 0.870170 0.295530 -0.013990
C150 C 0.924550 0.208620 -0.065200
H151 H 0.917400 0.293500 -0.095300
H152 H 1.027100 0.172500 -0.060400
H153 H 0.864600 0.103300 -0.073200
C154 C 0.919840 0.383810 0.285150
H155 H 1.025900 0.404600 0.286100
H156 H 0.876800 0.417100 0.320100
H157 H 0.900700 0.257300 0.278000
N158 N 0.964160 0.293610 0.028330
O159 O 0.746310 0.362010 -0.011560
O160 O 0.855640 0.489610 0.243080
H161 H 1.047100 0.245000 0.022400
C162 C 0.563010 0.648020 0.582120
C163 C 0.676030 0.531090 0.596220
H164 H 0.737900 0.482600 0.568900
C165 C 0.697600 0.486110 0.650190
H166 H 0.774500 0.406400 0.659700
C167 C 0.608110 0.556170 0.690690
C168 C 0.491260 0.665740 0.676680
H169 H 0.426600 0.709500 0.703800
C170 C 0.469780 0.710800 0.622540
H171 H 0.389900 0.785900 0.613000
C172 C 0.629830 0.704470 0.486010
C173 C 0.575450 0.791380 0.434800
H174 H 0.582600 0.706500 0.404700
H175 H 0.472900 0.827500 0.439600
H176 H 0.635400 0.896700 0.426800
C177 C 0.580160 0.616190 0.785150
H178 H 0.474100 0.595400 0.786100
H179 H 0.623200 0.582900 0.820100
H180 H 0.599300 0.742700 0.778000
N181 N 0.535840 0.706390 0.528330
O182 O 0.753690 0.637990 0.488440
O183 O 0.644360 0.510390 0.743080
H184 H 0.452900 0.755000 0.522400

#END
