./ACAFEQ_from_xyz.cif_generated_by_CrystalShift
_symmetry_cell_setting triclinic
_symmetry_space_group_name_H-M 'P 1'
loop_
_symmetry_equiv_pos_site_id
_symmetry_equiv_pos_as_xyz
1 x,y,z
_cell_length_a 7.419000
_cell_length_b 18.437000
_cell_length_c 9.656000
_cell_angle_alpha 90.000000
_cell_angle_beta 106.277000
_cell_angle_gamma 90.000000
_cell_volume 1267.847337
loop_
_atom_site_label
_atom_site_type_symbol
_atom_site_fract_x
_atom_site_fract_y
_atom_site_fract_z
S1 S 0.058740 0.414820 0.666450
N2 N 0.542200 0.250660 0.923100
N3 N 0.185300 0.434960 0.441050
H4 H 0.109000 0.471300 0.427000
N5 N 0.296100 0.332560 0.574190
H6 H 0.346000 0.320800 0.513000
C7 C 0.505500 0.298810 0.815610
C8 C 0.625700 0.355130 0.811150
H9 H 0.592300 0.390000 0.738800
C10 C 0.797000 0.359380 0.915600
H11 H 0.881000 0.396500 0.913400
C12 C 0.840400 0.307690 1.022500
H13 H 0.956200 0.307700 1.091900
C14 C 0.707000 0.255960 1.023500
H15 H 0.733300 0.222600 1.098800
C16 C 0.325100 0.284840 0.698800
H17 H 0.325100 0.235000 0.666700
H18 H 0.220400 0.290500 0.739600
C19 C 0.191100 0.392000 0.555120
C20 C 0.294700 0.430130 0.341080
C21 C 0.200500 0.437200 0.195630
H22 H 0.070700 0.442400 0.165900
C23 C 0.302900 0.436400 0.094900
H24 H 0.240900 0.441200 -0.002700
C25 C 0.493700 0.428690 0.138400
H26 H 0.560900 0.427500 0.070300
C27 C 0.586300 0.422730 0.282300
H28 H 0.716300 0.417800 0.311500
C29 C 0.486800 0.423970 0.384600
H30 H 0.550100 0.420600 0.482200
S31 S 0.941260 0.914820 0.833550
N32 N 0.457800 0.750660 0.576900
N33 N 0.814700 0.934960 1.058950
H34 H 0.891000 0.971300 1.073000
N35 N 0.703900 0.832560 0.925810
H36 H 0.654000 0.820800 0.987000
C37 C 0.494500 0.798810 0.684390
C38 C 0.374300 0.855130 0.688850
H39 H 0.407700 0.890000 0.761200
C40 C 0.203000 0.859380 0.584400
H41 H 0.119000 0.896500 0.586600
C42 C 0.159600 0.807690 0.477500
H43 H 0.043800 0.807700 0.408100
C44 C 0.293000 0.755960 0.476500
H45 H 0.266700 0.722600 0.401200
C46 C 0.674900 0.784840 0.801200
H47 H 0.674900 0.735000 0.833300
H48 H 0.779600 0.790500 0.760400
C49 C 0.808900 0.892000 0.944880
C50 C 0.705300 0.930130 1.158920
C51 C 0.799500 0.937200 1.304370
H52 H 0.929300 0.942400 1.334100
C53 C 0.697100 0.936400 1.405100
H54 H 0.759100 0.941200 1.502700
C55 C 0.506300 0.928690 1.361600
H56 H 0.439100 0.927500 1.429700
C57 C 0.413700 0.922730 1.217700
H58 H 0.283700 0.917800 1.188500
C59 C 0.513200 0.923970 1.115400
H60 H 0.449900 0.920600 1.017800
S61 S 0.941260 0.585180 0.333550
N62 N 0.457800 0.749340 0.076900
N63 N 0.814700 0.565040 0.558950
H64 H 0.891000 0.528700 0.573000
N65 N 0.703900 0.667440 0.425810
H66 H 0.654000 0.679200 0.487000
C67 C 0.494500 0.701190 0.184390
C68 C 0.374300 0.644870 0.188850
H69 H 0.407700 0.610000 0.261200
C70 C 0.203000 0.640620 0.084400
H71 H 0.119000 0.603500 0.086600
C72 C 0.159600 0.692310 -0.022500
H73 H 0.043800 0.692300 -0.091900
C74 C 0.293000 0.744040 -0.023500
H75 H 0.266700 0.777400 -0.098800
C76 C 0.674900 0.715160 0.301200
H77 H 0.674900 0.765000 0.333300
H78 H 0.779600 0.709500 0.260400
C79 C 0.808900 0.608000 0.444880
C80 C 0.705300 0.569870 0.658920
C81 C 0.799500 0.562800 0.804370
H82 H 0.929300 0.557600 0.834100
C83 C 0.697100 0.563600 0.905100
H84 H 0.759100 0.558800 1.002700
C85 C 0.506300 0.571310 0.861600
H86 H 0.439100 0.572500 0.929700
C87 C 0.413700 0.577270 0.717700
H88 H 0.283700 0.582200 0.688500
C89 C 0.513200 0.576030 0.615400
H90 H 0.449900 0.579400 0.517800
S91 S 0.058740 0.085180 0.166450
N92 N 0.542200 0.249340 0.423100
N93 N 0.185300 0.065040 -0.058950
H94 H 0.109000 0.028700 -0.073000
N95 N 0.296100 0.167440 0.074190
H96 H 0.346000 0.179200 0.013000
C97 C 0.505500 0.201190 0.315610
C98 C 0.625700 0.144870 0.311150
H99 H 0.592300 0.110000 0.238800
C100 C 0.797000 0.140620 0.415600
H101 H 0.881000 0.103500 0.413400
C102 C 0.840400 0.192310 0.522500
H103 H 0.956200 0.192300 0.591900
C104 C 0.707000 0.244040 0.523500
H105 H 0.733300 0.277400 0.598800
C106 C 0.325100 0.215160 0.198800
H107 H 0.325100 0.265000 0.166700
H108 H 0.220400 0.209500 0.239600
C109 C 0.191100 0.108000 0.055120
C110 C 0.294700 0.069870 -0.158920
C111 C 0.200500 0.062800 -0.304370
H112 H 0.070700 0.057600 -0.334100
C113 C 0.302900 0.063600 -0.405100
H114 H 0.240900 0.058800 -0.502700
C115 C 0.493700 0.071310 -0.361600
H116 H 0.560900 0.072500 -0.429700
C117 C 0.586300 0.077270 -0.217700
H118 H 0.716300 0.082200 -0.188500
C119 C 0.486800 0.076030 -0.115400
H120 H 0.550100 0.079400 -0.017800

#END
