./ACAFEQ01_from_xyz.cif_generated_by_CrystalShift
_symmetry_cell_setting triclinic
_symmetry_space_group_name_H-M 'P 1'
loop_
_symmetry_equiv_pos_site_id
_symmetry_equiv_pos_as_xyz
1 x,y,z
_cell_length_a 17.488000
_cell_length_b 8.751000
_cell_length_c 16.970000
_cell_angle_alpha 90.000000
_cell_angle_beta 108.781000
_cell_angle_gamma 90.000000
_cell_volume 2458.769302
loop_
_atom_site_label
_atom_site_type_symbol
_atom_site_fract_x
_atom_site_fract_y
_atom_site_fract_z
S1 S 0.260770 0.504770 0.027600
N2 N 0.373430 0.715100 0.056490
N3 N 0.415650 0.484400 0.118230
N4 N 0.395350 0.412900 0.277150
C5 C 0.355510 0.570600 0.070730
C6 C 0.451670 0.783100 0.079600
C7 C 0.465400 0.906900 0.128400
C8 C 0.540400 0.981300 0.147400
C9 C 0.598700 0.928100 0.119400
C10 C 0.583600 0.806300 0.069000
C11 C 0.509300 0.733400 0.048600
C12 C 0.402300 0.330500 0.143400
C13 C 0.362840 0.325900 0.210000
C14 C 0.297500 0.234100 0.201600
C15 C 0.263300 0.231700 0.264300
C16 C 0.294400 0.320900 0.332300
C17 C 0.360000 0.408400 0.336200
H18 H 0.339000 0.779000 0.028000
H19 H 0.418000 0.935000 0.159000
H20 H 0.653000 0.991000 0.140000
H21 H 0.545000 1.072000 0.195000
H22 H 0.628000 0.761000 0.047000
H23 H 0.500000 0.654000 0.015000
H24 H 0.465000 0.525000 0.144000
H25 H 0.456000 0.285000 0.166000
H26 H 0.371000 0.275000 0.093000
H27 H 0.275000 0.170000 0.155000
H28 H 0.223000 0.165000 0.261000
H29 H 0.267000 0.329000 0.374000
H30 H 0.380000 0.488000 0.379000
S31 S 0.760770 0.004770 0.027600
N32 N 0.873430 0.215100 0.056490
N33 N 0.915650 -0.015600 0.118230
N34 N 0.895350 -0.087100 0.277150
C35 C 0.855510 0.070600 0.070730
C36 C 0.951670 0.283100 0.079600
C37 C 0.965400 0.406900 0.128400
C38 C 1.040400 0.481300 0.147400
C39 C 1.098700 0.428100 0.119400
C40 C 1.083600 0.306300 0.069000
C41 C 1.009300 0.233400 0.048600
C42 C 0.902300 -0.169500 0.143400
C43 C 0.862840 -0.174100 0.210000
C44 C 0.797500 -0.265900 0.201600
C45 C 0.763300 -0.268300 0.264300
C46 C 0.794400 -0.179100 0.332300
C47 C 0.860000 -0.091600 0.336200
H48 H 0.839000 0.279000 0.028000
H49 H 0.918000 0.435000 0.159000
H50 H 1.153000 0.491000 0.140000
H51 H 1.045000 0.572000 0.195000
H52 H 1.128000 0.261000 0.047000
H53 H 1.000000 0.154000 0.015000
H54 H 0.965000 0.025000 0.144000
H55 H 0.956000 -0.215000 0.166000
H56 H 0.871000 -0.225000 0.093000
H57 H 0.775000 -0.330000 0.155000
H58 H 0.723000 -0.335000 0.261000
H59 H 0.767000 -0.171000 0.374000
H60 H 0.880000 -0.012000 0.379000
S61 S 0.739230 0.504770 0.472400
N62 N 0.626570 0.715100 0.443510
N63 N 0.584350 0.484400 0.381770
N64 N 0.604650 0.412900 0.222850
C65 C 0.644490 0.570600 0.429270
C66 C 0.548330 0.783100 0.420400
C67 C 0.534600 0.906900 0.371600
C68 C 0.459600 0.981300 0.352600
C69 C 0.401300 0.928100 0.380600
C70 C 0.416400 0.806300 0.431000
C71 C 0.490700 0.733400 0.451400
C72 C 0.597700 0.330500 0.356600
C73 C 0.637160 0.325900 0.290000
C74 C 0.702500 0.234100 0.298400
C75 C 0.736700 0.231700 0.235700
C76 C 0.705600 0.320900 0.167700
C77 C 0.640000 0.408400 0.163800
H78 H 0.661000 0.779000 0.472000
H79 H 0.582000 0.935000 0.341000
H80 H 0.347000 0.991000 0.360000
H81 H 0.455000 1.072000 0.305000
H82 H 0.372000 0.761000 0.453000
H83 H 0.500000 0.654000 0.485000
H84 H 0.535000 0.525000 0.356000
H85 H 0.544000 0.285000 0.334000
H86 H 0.629000 0.275000 0.407000
H87 H 0.725000 0.170000 0.345000
H88 H 0.777000 0.165000 0.239000
H89 H 0.733000 0.329000 0.126000
H90 H 0.620000 0.488000 0.121000
S91 S 0.239230 0.004770 0.472400
N92 N 0.126570 0.215100 0.443510
N93 N 0.084350 -0.015600 0.381770
N94 N 0.104650 -0.087100 0.222850
C95 C 0.144490 0.070600 0.429270
C96 C 0.048330 0.283100 0.420400
C97 C 0.034600 0.406900 0.371600
C98 C -0.040400 0.481300 0.352600
C99 C -0.098700 0.428100 0.380600
C100 C -0.083600 0.306300 0.431000
C101 C -0.009300 0.233400 0.451400
C102 C 0.097700 -0.169500 0.356600
C103 C 0.137160 -0.174100 0.290000
C104 C 0.202500 -0.265900 0.298400
C105 C 0.236700 -0.268300 0.235700
C106 C 0.205600 -0.179100 0.167700
C107 C 0.140000 -0.091600 0.163800
H108 H 0.161000 0.279000 0.472000
H109 H 0.082000 0.435000 0.341000
H110 H -0.153000 0.491000 0.360000
H111 H -0.045000 0.572000 0.305000
H112 H -0.128000 0.261000 0.453000
H113 H -0.000000 0.154000 0.485000
H114 H 0.035000 0.025000 0.356000
H115 H 0.044000 -0.215000 0.334000
H116 H 0.129000 -0.225000 0.407000
H117 H 0.225000 -0.330000 0.345000
H118 H 0.277000 -0.335000 0.239000
H119 H 0.233000 -0.171000 0.126000
H120 H 0.120000 -0.012000 0.121000
S121 S 0.739230 0.495230 0.972400
N122 N 0.626570 0.284900 0.943510
N123 N 0.584350 0.515600 0.881770
N124 N 0.604650 0.587100 0.722850
C125 C 0.644490 0.429400 0.929270
C126 C 0.548330 0.216900 0.920400
C127 C 0.534600 0.093100 0.871600
C128 C 0.459600 0.018700 0.852600
C129 C 0.401300 0.071900 0.880600
C130 C 0.416400 0.193700 0.931000
C131 C 0.490700 0.266600 0.951400
C132 C 0.597700 0.669500 0.856600
C133 C 0.637160 0.674100 0.790000
C134 C 0.702500 0.765900 0.798400
C135 C 0.736700 0.768300 0.735700
C136 C 0.705600 0.679100 0.667700
C137 C 0.640000 0.591600 0.663800
H138 H 0.661000 0.221000 0.972000
H139 H 0.582000 0.065000 0.841000
H140 H 0.347000 0.009000 0.860000
H141 H 0.455000 -0.072000 0.805000
H142 H 0.372000 0.239000 0.953000
H143 H 0.500000 0.346000 0.985000
H144 H 0.535000 0.475000 0.856000
H145 H 0.544000 0.715000 0.834000
H146 H 0.629000 0.725000 0.907000
H147 H 0.725000 0.830000 0.845000
H148 H 0.777000 0.835000 0.739000
H149 H 0.733000 0.671000 0.626000
H150 H 0.620000 0.512000 0.621000
S151 S 0.239230 0.995230 0.972400
N152 N 0.126570 0.784900 0.943510
N153 N 0.084350 1.015600 0.881770
N154 N 0.104650 1.087100 0.722850
C155 C 0.144490 0.929400 0.929270
C156 C 0.048330 0.716900 0.920400
C157 C 0.034600 0.593100 0.871600
C158 C -0.040400 0.518700 0.852600
C159 C -0.098700 0.571900 0.880600
C160 C -0.083600 0.693700 0.931000
C161 C -0.009300 0.766600 0.951400
C162 C 0.097700 1.169500 0.856600
C163 C 0.137160 1.174100 0.790000
C164 C 0.202500 1.265900 0.798400
C165 C 0.236700 1.268300 0.735700
C166 C 0.205600 1.179100 0.667700
C167 C 0.140000 1.091600 0.663800
H168 H 0.161000 0.721000 0.972000
H169 H 0.082000 0.565000 0.841000
H170 H -0.153000 0.509000 0.860000
H171 H -0.045000 0.428000 0.805000
H172 H -0.128000 0.739000 0.953000
H173 H 0.000000 0.846000 0.985000
H174 H 0.035000 0.975000 0.856000
H175 H 0.044000 1.215000 0.834000
H176 H 0.129000 1.225000 0.907000
H177 H 0.225000 1.330000 0.845000
H178 H 0.277000 1.335000 0.739000
H179 H 0.233000 1.171000 0.626000
H180 H 0.120000 1.012000 0.621000
S181 S 0.260770 0.495230 0.527600
N182 N 0.373430 0.284900 0.556490
N183 N 0.415650 0.515600 0.618230
N184 N 0.395350 0.587100 0.777150
C185 C 0.355510 0.429400 0.570730
C186 C 0.451670 0.216900 0.579600
C187 C 0.465400 0.093100 0.628400
C188 C 0.540400 0.018700 0.647400
C189 C 0.598700 0.071900 0.619400
C190 C 0.583600 0.193700 0.569000
C191 C 0.509300 0.266600 0.548600
C192 C 0.402300 0.669500 0.643400
C193 C 0.362840 0.674100 0.710000
C194 C 0.297500 0.765900 0.701600
C195 C 0.263300 0.768300 0.764300
C196 C 0.294400 0.679100 0.832300
C197 C 0.360000 0.591600 0.836200
H198 H 0.339000 0.221000 0.528000
H199 H 0.418000 0.065000 0.659000
H200 H 0.653000 0.009000 0.640000
H201 H 0.545000 -0.072000 0.695000
H202 H 0.628000 0.239000 0.547000
H203 H 0.500000 0.346000 0.515000
H204 H 0.465000 0.475000 0.644000
H205 H 0.456000 0.715000 0.666000
H206 H 0.371000 0.725000 0.593000
H207 H 0.275000 0.830000 0.655000
H208 H 0.223000 0.835000 0.761000
H209 H 0.267000 0.671000 0.874000
H210 H 0.380000 0.512000 0.879000
S211 S 0.760770 0.995230 0.527600
N212 N 0.873430 0.784900 0.556490
N213 N 0.915650 1.015600 0.618230
N214 N 0.895350 1.087100 0.777150
C215 C 0.855510 0.929400 0.570730
C216 C 0.951670 0.716900 0.579600
C217 C 0.965400 0.593100 0.628400
C218 C 1.040400 0.518700 0.647400
C219 C 1.098700 0.571900 0.619400
C220 C 1.083600 0.693700 0.569000
C221 C 1.009300 0.766600 0.548600
C222 C 0.902300 1.169500 0.643400
C223 C 0.862840 1.174100 0.710000
C224 C 0.797500 1.265900 0.701600
C225 C 0.763300 1.268300 0.764300
C226 C 0.794400 1.179100 0.832300
C227 C 0.860000 1.091600 0.836200
H228 H 0.839000 0.721000 0.528000
H229 H 0.918000 0.565000 0.659000
H230 H 1.153000 0.509000 0.640000
H231 H 1.045000 0.428000 0.695000
H232 H 1.128000 0.739000 0.547000
H233 H 1.000000 0.846000 0.515000
H234 H 0.965000 0.975000 0.644000
H235 H 0.956000 1.215000 0.666000
H236 H 0.871000 1.225000 0.593000
H237 H 0.775000 1.330000 0.655000
H238 H 0.723000 1.335000 0.761000
H239 H 0.767000 1.171000 0.874000
H240 H 0.880000 1.012000 0.879000

#END
