./ACAGIU01_from_xyz.cif_generated_by_CrystalShift
_symmetry_cell_setting triclinic
_symmetry_space_group_name_H-M 'P 1'
loop_
_symmetry_equiv_pos_site_id
_symmetry_equiv_pos_as_xyz
1 x,y,z
_cell_length_a 7.371000
_cell_length_b 8.701000
_cell_length_c 9.303000
_cell_angle_alpha 90.000000
_cell_angle_beta 109.050000
_cell_angle_gamma 90.000000
_cell_volume 563.972581
loop_
_atom_site_label
_atom_site_type_symbol
_atom_site_fract_x
_atom_site_fract_y
_atom_site_fract_z
C1 C 0.166300 0.550120 0.366100
H2 H 0.108800 0.600700 0.274400
C3 C 0.250000 0.797900 0.500000
N4 N 0.250000 0.311200 0.500000
C5 C 0.250000 0.632600 0.500000
C6 C 0.170900 0.391000 0.373000
H7 H 0.115200 0.336700 0.283300
C8 C 0.250000 0.934700 0.500000
H9 H 0.250000 1.055300 0.500000
C10 C 0.333700 0.550120 0.633900
H11 H 0.391200 0.600700 0.725600
C12 C 0.329100 0.391000 0.627000
H13 H 0.384800 0.336700 0.716700
C14 C 0.666300 0.050120 -0.133900
H15 H 0.608800 0.100700 -0.225600
C16 C 0.750000 0.297900 0.000000
N17 N 0.750000 -0.188800 0.000000
C18 C 0.750000 0.132600 0.000000
C19 C 0.670900 -0.109000 -0.127000
H20 H 0.615200 -0.163300 -0.216700
C21 C 0.750000 0.434700 0.000000
H22 H 0.750000 0.555300 0.000000
C23 C 0.833700 0.050120 0.133900
H24 H 0.891200 0.100700 0.225600
C25 C 0.829100 -0.109000 0.127000
H26 H 0.884800 -0.163300 0.216700
C27 C 0.666300 0.050120 0.866100
H28 H 0.608800 0.100700 0.774400
C29 C 0.750000 0.297900 1.000000
N30 N 0.750000 -0.188800 1.000000
C31 C 0.750000 0.132600 1.000000
C32 C 0.670900 -0.109000 0.873000
H33 H 0.615200 -0.163300 0.783300
C34 C 0.750000 0.434700 1.000000
H35 H 0.750000 0.555300 1.000000
C36 C 0.833700 0.050120 1.133900
H37 H 0.891200 0.100700 1.225600
C38 C 0.829100 -0.109000 1.127000
H39 H 0.884800 -0.163300 1.216700
C40 C 0.833700 0.449880 0.633900
H41 H 0.891200 0.399300 0.725600
C42 C 0.750000 0.202100 0.500000
N43 N 0.750000 0.688800 0.500000
C44 C 0.750000 0.367400 0.500000
C45 C 0.829100 0.609000 0.627000
H46 H 0.884800 0.663300 0.716700
C47 C 0.750000 0.065300 0.500000
H48 H 0.750000 -0.055300 0.500000
C49 C 0.666300 0.449880 0.366100
H50 H 0.608800 0.399300 0.274400
C51 C 0.670900 0.609000 0.373000
H52 H 0.615200 0.663300 0.283300
C53 C 0.333700 0.949880 0.133900
H54 H 0.391200 0.899300 0.225600
C55 C 0.250000 0.702100 0.000000
N56 N 0.250000 1.188800 0.000000
C57 C 0.250000 0.867400 0.000000
C58 C 0.329100 1.109000 0.127000
H59 H 0.384800 1.163300 0.216700
C60 C 0.250000 0.565300 0.000000
H61 H 0.250000 0.444700 0.000000
C62 C 0.166300 0.949880 -0.133900
H63 H 0.108800 0.899300 -0.225600
C64 C 0.170900 1.109000 -0.127000
H65 H 0.115200 1.163300 -0.216700
C66 C 0.333700 0.949880 1.133900
H67 H 0.391200 0.899300 1.225600
C68 C 0.250000 0.702100 1.000000
N69 N 0.250000 1.188800 1.000000
C70 C 0.250000 0.867400 1.000000
C71 C 0.329100 1.109000 1.127000
H72 H 0.384800 1.163300 1.216700
C73 C 0.250000 0.565300 1.000000
H74 H 0.250000 0.444700 1.000000
C75 C 0.166300 0.949880 0.866100
H76 H 0.108800 0.899300 0.774400
C77 C 0.170900 1.109000 0.873000
H78 H 0.115200 1.163300 0.783300

#END
