./ACAQGD_from_xyz.cif_generated_by_CrystalShift
_symmetry_cell_setting triclinic
_symmetry_space_group_name_H-M 'P 1'
loop_
_symmetry_equiv_pos_site_id
_symmetry_equiv_pos_as_xyz
1 x,y,z
_cell_length_a 10.790000
_cell_length_b 9.395000
_cell_length_c 8.941000
_cell_angle_alpha 60.980000
_cell_angle_beta 88.500000
_cell_angle_gamma 62.310000
_cell_volume 678.169919
loop_
_atom_site_label
_atom_site_type_symbol
_atom_site_fract_x
_atom_site_fract_y
_atom_site_fract_z
O1 O 0.099600 0.549200 -0.027400
Gd2 Gd 0.089790 0.314160 0.275090
O3 O 0.267900 0.418100 0.202800
C4 C 0.214100 0.528300 0.038600
C5 C 0.282100 0.632800 -0.076700
H6 H 0.340000 0.560000 -0.120000
H7 H 0.186000 0.788000 -0.146000
H8 H 0.364000 0.605000 -0.007000
O9 O 0.095200 0.027800 0.325100
O10 O 0.208700 0.134000 0.134500
C11 C 0.167400 0.018500 0.213000
C12 C 0.204800 -0.133500 0.172700
H13 H 0.148000 -0.037000 0.048000
H14 H 0.324000 -0.254000 0.221000
H15 H 0.182000 -0.221000 0.229000
O16 O 0.186300 0.274900 0.550300
O17 O 0.306700 0.042300 0.508900
C18 C 0.294700 0.112900 0.601100
C19 C 0.408500 0.004800 0.770500
H20 H 0.417000 -0.141000 0.843000
H21 H 0.482000 -0.016000 0.766000
H22 H 0.372000 0.072000 0.848000
O23 O -0.082500 0.284900 0.438400
H24 H -0.084000 0.199000 0.499000
H25 H -0.170000 0.375000 0.402000
O26 O -0.067400 0.624600 0.221700
H27 H -0.127000 0.713000 0.120000
H28 H -0.122000 0.738000 0.268000
Gd29 Gd -0.089790 0.685840 -0.275090
O30 O -0.099600 0.450800 0.027400
O31 O -0.267900 0.581900 -0.202800
O32 O -0.095200 0.972200 -0.325100
O33 O -0.208700 0.866000 -0.134500
O34 O -0.186300 0.725100 -0.550300
O35 O -0.306700 0.957700 -0.508900
O36 O 0.082500 0.715100 -0.438400
O37 O 0.067400 0.375400 -0.221700
C38 C -0.214100 0.471700 -0.038600
C39 C -0.167400 0.981500 -0.213000
C40 C -0.294700 0.887100 -0.601100
H41 H 0.084000 0.801000 -0.499000
H42 H 0.170000 0.625000 -0.402000
H43 H 0.127000 0.287000 -0.120000
H44 H 0.122000 0.262000 -0.268000
C45 C -0.282100 0.367200 0.076700
C46 C -0.204800 1.133500 -0.172700
C47 C -0.408500 0.995200 -0.770500
H48 H -0.340000 0.440000 0.120000
H49 H -0.186000 0.212000 0.146000
H50 H -0.364000 0.395000 0.007000
H51 H -0.148000 1.037000 -0.048000
H52 H -0.324000 1.254000 -0.221000
H53 H -0.182000 1.221000 -0.229000
H54 H -0.417000 1.141000 -0.843000
H55 H -0.482000 1.016000 -0.766000
H56 H -0.372000 0.928000 -0.848000
O57 O 0.099600 0.549200 0.972600
Gd58 Gd 0.089790 0.314160 1.275090
O59 O 0.267900 0.418100 1.202800
C60 C 0.214100 0.528300 1.038600
C61 C 0.282100 0.632800 0.923300
H62 H 0.340000 0.560000 0.880000
H63 H 0.186000 0.788000 0.854000
H64 H 0.364000 0.605000 0.993000
O65 O 0.095200 0.027800 1.325100
O66 O 0.208700 0.134000 1.134500
C67 C 0.167400 0.018500 1.213000
C68 C 0.204800 -0.133500 1.172700
H69 H 0.148000 -0.037000 1.048000
H70 H 0.324000 -0.254000 1.221000
H71 H 0.182000 -0.221000 1.229000
O72 O 0.186300 0.274900 1.550300
O73 O 0.306700 0.042300 1.508900
C74 C 0.294700 0.112900 1.601100
C75 C 0.408500 0.004800 1.770500
H76 H 0.417000 -0.141000 1.843000
H77 H 0.482000 -0.016000 1.766000
H78 H 0.372000 0.072000 1.848000
O79 O -0.082500 0.284900 1.438400
H80 H -0.084000 0.199000 1.499000
H81 H -0.170000 0.375000 1.402000
O82 O -0.067400 0.624600 1.221700
H83 H -0.127000 0.713000 1.120000
H84 H -0.122000 0.738000 1.268000
Gd85 Gd -0.089790 0.685840 0.724910
O86 O -0.099600 0.450800 1.027400
O87 O -0.267900 0.581900 0.797200
O88 O -0.095200 0.972200 0.674900
O89 O -0.208700 0.866000 0.865500
O90 O -0.186300 0.725100 0.449700
O91 O -0.306700 0.957700 0.491100
O92 O 0.082500 0.715100 0.561600
O93 O 0.067400 0.375400 0.778300
C94 C -0.214100 0.471700 0.961400
C95 C -0.167400 0.981500 0.787000
C96 C -0.294700 0.887100 0.398900
H97 H 0.084000 0.801000 0.501000
H98 H 0.170000 0.625000 0.598000
H99 H 0.127000 0.287000 0.880000
H100 H 0.122000 0.262000 0.732000
C101 C -0.282100 0.367200 1.076700
C102 C -0.204800 1.133500 0.827300
C103 C -0.408500 0.995200 0.229500
H104 H -0.340000 0.440000 1.120000
H105 H -0.186000 0.212000 1.146000
H106 H -0.364000 0.395000 1.007000
H107 H -0.148000 1.037000 0.952000
H108 H -0.324000 1.254000 0.779000
H109 H -0.182000 1.221000 0.771000
H110 H -0.417000 1.141000 0.157000
H111 H -0.482000 1.016000 0.234000
H112 H -0.372000 0.928000 0.152000
O113 O 1.099600 0.549200 -0.027400
Gd114 Gd 1.089790 0.314160 0.275090
O115 O 1.267900 0.418100 0.202800
C116 C 1.214100 0.528300 0.038600
C117 C 1.282100 0.632800 -0.076700
H118 H 1.340000 0.560000 -0.120000
H119 H 1.186000 0.788000 -0.146000
H120 H 1.364000 0.605000 -0.007000
O121 O 1.095200 0.027800 0.325100
O122 O 1.208700 0.134000 0.134500
C123 C 1.167400 0.018500 0.213000
C124 C 1.204800 -0.133500 0.172700
H125 H 1.148000 -0.037000 0.048000
H126 H 1.324000 -0.254000 0.221000
H127 H 1.182000 -0.221000 0.229000
O128 O 1.186300 0.274900 0.550300
O129 O 1.306700 0.042300 0.508900
C130 C 1.294700 0.112900 0.601100
C131 C 1.408500 0.004800 0.770500
H132 H 1.417000 -0.141000 0.843000
H133 H 1.482000 -0.016000 0.766000
H134 H 1.372000 0.072000 0.848000
O135 O 0.917500 0.284900 0.438400
H136 H 0.916000 0.199000 0.499000
H137 H 0.830000 0.375000 0.402000
O138 O 0.932600 0.624600 0.221700
H139 H 0.873000 0.713000 0.120000
H140 H 0.878000 0.738000 0.268000
Gd141 Gd 0.910210 0.685840 -0.275090
O142 O 0.900400 0.450800 0.027400
O143 O 0.732100 0.581900 -0.202800
O144 O 0.904800 0.972200 -0.325100
O145 O 0.791300 0.866000 -0.134500
O146 O 0.813700 0.725100 -0.550300
O147 O 0.693300 0.957700 -0.508900
O148 O 1.082500 0.715100 -0.438400
O149 O 1.067400 0.375400 -0.221700
C150 C 0.785900 0.471700 -0.038600
C151 C 0.832600 0.981500 -0.213000
C152 C 0.705300 0.887100 -0.601100
H153 H 1.084000 0.801000 -0.499000
H154 H 1.170000 0.625000 -0.402000
H155 H 1.127000 0.287000 -0.120000
H156 H 1.122000 0.262000 -0.268000
C157 C 0.717900 0.367200 0.076700
C158 C 0.795200 1.133500 -0.172700
C159 C 0.591500 0.995200 -0.770500
H160 H 0.660000 0.440000 0.120000
H161 H 0.814000 0.212000 0.146000
H162 H 0.636000 0.395000 0.007000
H163 H 0.852000 1.037000 -0.048000
H164 H 0.676000 1.254000 -0.221000
H165 H 0.818000 1.221000 -0.229000
H166 H 0.583000 1.141000 -0.843000
H167 H 0.518000 1.016000 -0.766000
H168 H 0.628000 0.928000 -0.848000
O169 O 1.099600 0.549200 0.972600
Gd170 Gd 1.089790 0.314160 1.275090
O171 O 1.267900 0.418100 1.202800
C172 C 1.214100 0.528300 1.038600
C173 C 1.282100 0.632800 0.923300
H174 H 1.340000 0.560000 0.880000
H175 H 1.186000 0.788000 0.854000
H176 H 1.364000 0.605000 0.993000
O177 O 1.095200 0.027800 1.325100
O178 O 1.208700 0.134000 1.134500
C179 C 1.167400 0.018500 1.213000
C180 C 1.204800 -0.133500 1.172700
H181 H 1.148000 -0.037000 1.048000
H182 H 1.324000 -0.254000 1.221000
H183 H 1.182000 -0.221000 1.229000
O184 O 1.186300 0.274900 1.550300
O185 O 1.306700 0.042300 1.508900
C186 C 1.294700 0.112900 1.601100
C187 C 1.408500 0.004800 1.770500
H188 H 1.417000 -0.141000 1.843000
H189 H 1.482000 -0.016000 1.766000
H190 H 1.372000 0.072000 1.848000
O191 O 0.917500 0.284900 1.438400
H192 H 0.916000 0.199000 1.499000
H193 H 0.830000 0.375000 1.402000
O194 O 0.932600 0.624600 1.221700
H195 H 0.873000 0.713000 1.120000
H196 H 0.878000 0.738000 1.268000
Gd197 Gd 0.910210 0.685840 0.724910
O198 O 0.900400 0.450800 1.027400
O199 O 0.732100 0.581900 0.797200
O200 O 0.904800 0.972200 0.674900
O201 O 0.791300 0.866000 0.865500
O202 O 0.813700 0.725100 0.449700
O203 O 0.693300 0.957700 0.491100
O204 O 1.082500 0.715100 0.561600
O205 O 1.067400 0.375400 0.778300
C206 C 0.785900 0.471700 0.961400
C207 C 0.832600 0.981500 0.787000
C208 C 0.705300 0.887100 0.398900
H209 H 1.084000 0.801000 0.501000
H210 H 1.170000 0.625000 0.598000
H211 H 1.127000 0.287000 0.880000
H212 H 1.122000 0.262000 0.732000
C213 C 0.717900 0.367200 1.076700
C214 C 0.795200 1.133500 0.827300
C215 C 0.591500 0.995200 0.229500
H216 H 0.660000 0.440000 1.120000
H217 H 0.814000 0.212000 1.146000
H218 H 0.636000 0.395000 1.007000
H219 H 0.852000 1.037000 0.952000
H220 H 0.676000 1.254000 0.779000
H221 H 0.818000 1.221000 0.771000
H222 H 0.583000 1.141000 0.157000
H223 H 0.518000 1.016000 0.234000
H224 H 0.628000 0.928000 0.152000
O225 O 0.504000 0.319400 0.423800
H226 H 0.443000 0.368000 0.329000
H227 H 0.542000 0.236000 0.443000
O228 O 0.496000 0.680600 0.576200
H229 H 0.557000 0.632000 0.671000
H230 H 0.458000 0.764000 0.557000
O231 O 0.371600 0.459600 0.645500
H232 H 0.394000 0.411000 0.592000
H233 H 0.418000 0.558000 0.577000
O234 O 0.628400 0.540400 0.354500
H235 H 0.606000 0.589000 0.408000
H236 H 0.582000 0.442000 0.423000

#END
