./ACATUT_from_xyz.cif_generated_by_CrystalShift
_symmetry_cell_setting triclinic
_symmetry_space_group_name_H-M 'P 1'
loop_
_symmetry_equiv_pos_site_id
_symmetry_equiv_pos_as_xyz
1 x,y,z
_cell_length_a 26.506000
_cell_length_b 7.128000
_cell_length_c 14.092000
_cell_angle_alpha 90.000000
_cell_angle_beta 113.370000
_cell_angle_gamma 90.000000
_cell_volume 2444.046367
loop_
_atom_site_label
_atom_site_type_symbol
_atom_site_fract_x
_atom_site_fract_y
_atom_site_fract_z
Pt1 Pt 0.623499 0.599880 0.450790
Cl2 Cl 0.577730 0.430400 0.301860
Cl3 Cl 0.580140 0.422200 0.533930
Cl4 Cl 0.664000 0.776900 0.363800
Cl5 Cl 0.695300 0.391800 0.499200
N6 N 0.560600 0.788300 0.410500
N7 N 0.507600 0.736500 0.368300
H8 H 0.495700 0.617400 0.354400
N9 N 0.663700 0.749500 0.583200
N10 N 0.655100 0.719600 0.669700
H11 H 0.631200 0.635100 0.675400
C12 C 0.474700 0.888000 0.350200
H13 H 0.435200 0.887600 0.321400
C14 C 0.507300 1.038500 0.380200
H15 H 0.495600 1.166500 0.377800
C16 C 0.561100 0.973200 0.416000
H17 H 0.593600 1.049800 0.439800
C18 C 0.700900 0.877600 0.602300
H19 H 0.716600 0.922500 0.555700
C20 C 0.714200 0.935700 0.706800
H21 H 0.739300 1.034600 0.741500
C22 C 0.686500 0.834200 0.744900
H23 H 0.688400 0.840100 0.814200
Pt24 Pt 0.123499 0.099880 0.450790
Cl25 Cl 0.077730 -0.069600 0.301860
Cl26 Cl 0.080140 -0.077800 0.533930
Cl27 Cl 0.164000 0.276900 0.363800
Cl28 Cl 0.195300 -0.108200 0.499200
N29 N 0.060600 0.288300 0.410500
N30 N 0.007600 0.236500 0.368300
H31 H -0.004300 0.117400 0.354400
N32 N 0.163700 0.249500 0.583200
N33 N 0.155100 0.219600 0.669700
H34 H 0.131200 0.135100 0.675400
C35 C -0.025300 0.388000 0.350200
H36 H -0.064800 0.387600 0.321400
C37 C 0.007300 0.538500 0.380200
H38 H -0.004400 0.666500 0.377800
C39 C 0.061100 0.473200 0.416000
H40 H 0.093600 0.549800 0.439800
C41 C 0.200900 0.377600 0.602300
H42 H 0.216600 0.422500 0.555700
C43 C 0.214200 0.435700 0.706800
H44 H 0.239300 0.534600 0.741500
C45 C 0.186500 0.334200 0.744900
H46 H 0.188400 0.340100 0.814200
Pt47 Pt 0.623499 0.400120 -0.049210
Cl48 Cl 0.577730 0.569600 -0.198140
Cl49 Cl 0.580140 0.577800 0.033930
Cl50 Cl 0.664000 0.223100 -0.136200
Cl51 Cl 0.695300 0.608200 -0.000800
N52 N 0.560600 0.211700 -0.089500
N53 N 0.507600 0.263500 -0.131700
H54 H 0.495700 0.382600 -0.145600
N55 N 0.663700 0.250500 0.083200
N56 N 0.655100 0.280400 0.169700
H57 H 0.631200 0.364900 0.175400
C58 C 0.474700 0.112000 -0.149800
H59 H 0.435200 0.112400 -0.178600
C60 C 0.507300 -0.038500 -0.119800
H61 H 0.495600 -0.166500 -0.122200
C62 C 0.561100 0.026800 -0.084000
H63 H 0.593600 -0.049800 -0.060200
C64 C 0.700900 0.122400 0.102300
H65 H 0.716600 0.077500 0.055700
C66 C 0.714200 0.064300 0.206800
H67 H 0.739300 -0.034600 0.241500
C68 C 0.686500 0.165800 0.244900
H69 H 0.688400 0.159900 0.314200
Pt70 Pt 0.123499 0.900120 -0.049210
Cl71 Cl 0.077730 1.069600 -0.198140
Cl72 Cl 0.080140 1.077800 0.033930
Cl73 Cl 0.164000 0.723100 -0.136200
Cl74 Cl 0.195300 1.108200 -0.000800
N75 N 0.060600 0.711700 -0.089500
N76 N 0.007600 0.763500 -0.131700
H77 H -0.004300 0.882600 -0.145600
N78 N 0.163700 0.750500 0.083200
N79 N 0.155100 0.780400 0.169700
H80 H 0.131200 0.864900 0.175400
C81 C -0.025300 0.612000 -0.149800
H82 H -0.064800 0.612400 -0.178600
C83 C 0.007300 0.461500 -0.119800
H84 H -0.004400 0.333500 -0.122200
C85 C 0.061100 0.526800 -0.084000
H86 H 0.093600 0.450200 -0.060200
C87 C 0.200900 0.622400 0.102300
H88 H 0.216600 0.577500 0.055700
C89 C 0.214200 0.564300 0.206800
H90 H 0.239300 0.465400 0.241500
C91 C 0.186500 0.665800 0.244900
H92 H 0.188400 0.659900 0.314200
Pt93 Pt 0.376501 0.400120 0.549210
Cl94 Cl 0.422270 0.569600 0.698140
Cl95 Cl 0.419860 0.577800 0.466070
Cl96 Cl 0.336000 0.223100 0.636200
Cl97 Cl 0.304700 0.608200 0.500800
N98 N 0.439400 0.211700 0.589500
N99 N 0.492400 0.263500 0.631700
H100 H 0.504300 0.382600 0.645600
N101 N 0.336300 0.250500 0.416800
N102 N 0.344900 0.280400 0.330300
H103 H 0.368800 0.364900 0.324600
C104 C 0.525300 0.112000 0.649800
H105 H 0.564800 0.112400 0.678600
C106 C 0.492700 -0.038500 0.619800
H107 H 0.504400 -0.166500 0.622200
C108 C 0.438900 0.026800 0.584000
H109 H 0.406400 -0.049800 0.560200
C110 C 0.299100 0.122400 0.397700
H111 H 0.283400 0.077500 0.444300
C112 C 0.285800 0.064300 0.293200
H113 H 0.260700 -0.034600 0.258500
C114 C 0.313500 0.165800 0.255100
H115 H 0.311600 0.159900 0.185800
Pt116 Pt 0.876501 0.900120 0.549210
Cl117 Cl 0.922270 1.069600 0.698140
Cl118 Cl 0.919860 1.077800 0.466070
Cl119 Cl 0.836000 0.723100 0.636200
Cl120 Cl 0.804700 1.108200 0.500800
N121 N 0.939400 0.711700 0.589500
N122 N 0.992400 0.763500 0.631700
H123 H 1.004300 0.882600 0.645600
N124 N 0.836300 0.750500 0.416800
N125 N 0.844900 0.780400 0.330300
H126 H 0.868800 0.864900 0.324600
C127 C 1.025300 0.612000 0.649800
H128 H 1.064800 0.612400 0.678600
C129 C 0.992700 0.461500 0.619800
H130 H 1.004400 0.333500 0.622200
C131 C 0.938900 0.526800 0.584000
H132 H 0.906400 0.450200 0.560200
C133 C 0.799100 0.622400 0.397700
H134 H 0.783400 0.577500 0.444300
C135 C 0.785800 0.564300 0.293200
H136 H 0.760700 0.465400 0.258500
C137 C 0.813500 0.665800 0.255100
H138 H 0.811600 0.659900 0.185800
Pt139 Pt 0.376501 0.599880 1.049210
Cl140 Cl 0.422270 0.430400 1.198140
Cl141 Cl 0.419860 0.422200 0.966070
Cl142 Cl 0.336000 0.776900 1.136200
Cl143 Cl 0.304700 0.391800 1.000800
N144 N 0.439400 0.788300 1.089500
N145 N 0.492400 0.736500 1.131700
H146 H 0.504300 0.617400 1.145600
N147 N 0.336300 0.749500 0.916800
N148 N 0.344900 0.719600 0.830300
H149 H 0.368800 0.635100 0.824600
C150 C 0.525300 0.888000 1.149800
H151 H 0.564800 0.887600 1.178600
C152 C 0.492700 1.038500 1.119800
H153 H 0.504400 1.166500 1.122200
C154 C 0.438900 0.973200 1.084000
H155 H 0.406400 1.049800 1.060200
C156 C 0.299100 0.877600 0.897700
H157 H 0.283400 0.922500 0.944300
C158 C 0.285800 0.935700 0.793200
H159 H 0.260700 1.034600 0.758500
C160 C 0.313500 0.834200 0.755100
H161 H 0.311600 0.840100 0.685800
Pt162 Pt 0.876501 0.099880 1.049210
Cl163 Cl 0.922270 -0.069600 1.198140
Cl164 Cl 0.919860 -0.077800 0.966070
Cl165 Cl 0.836000 0.276900 1.136200
Cl166 Cl 0.804700 -0.108200 1.000800
N167 N 0.939400 0.288300 1.089500
N168 N 0.992400 0.236500 1.131700
H169 H 1.004300 0.117400 1.145600
N170 N 0.836300 0.249500 0.916800
N171 N 0.844900 0.219600 0.830300
H172 H 0.868800 0.135100 0.824600
C173 C 1.025300 0.388000 1.149800
H174 H 1.064800 0.387600 1.178600
C175 C 0.992700 0.538500 1.119800
H176 H 1.004400 0.666500 1.122200
C177 C 0.938900 0.473200 1.084000
H178 H 0.906400 0.549800 1.060200
C179 C 0.799100 0.377600 0.897700
H180 H 0.783400 0.422500 0.944300
C181 C 0.785800 0.435700 0.793200
H182 H 0.760700 0.534600 0.758500
C183 C 0.813500 0.334200 0.755100
H184 H 0.811600 0.340100 0.685800

#END
