./ACCRHG01_from_xyz.cif_generated_by_CrystalShift
_symmetry_cell_setting triclinic
_symmetry_space_group_name_H-M 'P 1'
loop_
_symmetry_equiv_pos_site_id
_symmetry_equiv_pos_as_xyz
1 x,y,z
_cell_length_a 8.564000
_cell_length_b 8.564000
_cell_length_c 13.955000
_cell_angle_alpha 90.000000
_cell_angle_beta 90.000000
_cell_angle_gamma 90.000000
_cell_volume 1023.488950
loop_
_atom_site_label
_atom_site_type_symbol
_atom_site_fract_x
_atom_site_fract_y
_atom_site_fract_z
Rh1 Rh 0.000000 0.000000 0.085840
Cl2 Cl 0.000000 0.000000 0.271110
O3 O 0.209300 0.113800 0.080530
C4 C 0.269500 0.144600 0.000000
C5 C 0.426200 0.224100 0.000000
H6 H 0.519900 0.151500 0.000000
H7 H 0.432500 0.290600 0.057400
Rh8 Rh -0.000000 -0.000000 -0.085840
O9 O -0.113800 0.209300 0.080530
O10 O -0.209300 -0.113800 0.080530
O11 O 0.113800 -0.209300 0.080530
O12 O 0.209300 0.113800 -0.080530
H13 H 0.432500 0.290600 -0.057400
Cl14 Cl -0.000000 -0.000000 -0.271110
O15 O -0.209300 -0.113800 -0.080530
O16 O 0.113800 -0.209300 -0.080530
O17 O -0.113800 0.209300 -0.080530
C18 C -0.144600 0.269500 0.000000
C19 C -0.269500 -0.144600 0.000000
C20 C 0.144600 -0.269500 0.000000
C21 C -0.224100 0.426200 0.000000
C22 C -0.426200 -0.224100 0.000000
C23 C 0.224100 -0.426200 0.000000
H24 H -0.151500 0.519900 0.000000
H25 H -0.290600 0.432500 0.057400
H26 H -0.290600 0.432500 -0.057400
H27 H -0.519900 -0.151500 0.000000
H28 H -0.432500 -0.290600 -0.057400
H29 H -0.432500 -0.290600 0.057400
H30 H 0.151500 -0.519900 0.000000
H31 H 0.290600 -0.432500 -0.057400
H32 H 0.290600 -0.432500 0.057400
Rh33 Rh 0.000000 0.000000 1.085840
Cl34 Cl 0.000000 0.000000 1.271110
O35 O 0.209300 0.113800 1.080530
C36 C 0.269500 0.144600 1.000000
C37 C 0.426200 0.224100 1.000000
H38 H 0.519900 0.151500 1.000000
H39 H 0.432500 0.290600 1.057400
Rh40 Rh 0.000000 0.000000 0.914160
O41 O -0.113800 0.209300 1.080530
O42 O -0.209300 -0.113800 1.080530
O43 O 0.113800 -0.209300 1.080530
O44 O 0.209300 0.113800 0.919470
H45 H 0.432500 0.290600 0.942600
Cl46 Cl 0.000000 0.000000 0.728890
O47 O -0.209300 -0.113800 0.919470
O48 O 0.113800 -0.209300 0.919470
O49 O -0.113800 0.209300 0.919470
C50 C -0.144600 0.269500 1.000000
C51 C -0.269500 -0.144600 1.000000
C52 C 0.144600 -0.269500 1.000000
C53 C -0.224100 0.426200 1.000000
C54 C -0.426200 -0.224100 1.000000
C55 C 0.224100 -0.426200 1.000000
H56 H -0.151500 0.519900 1.000000
H57 H -0.290600 0.432500 1.057400
H58 H -0.290600 0.432500 0.942600
H59 H -0.519900 -0.151500 1.000000
H60 H -0.432500 -0.290600 0.942600
H61 H -0.432500 -0.290600 1.057400
H62 H 0.151500 -0.519900 1.000000
H63 H 0.290600 -0.432500 0.942600
H64 H 0.290600 -0.432500 1.057400
Rh65 Rh 0.000000 1.000000 0.085840
Cl66 Cl 0.000000 1.000000 0.271110
O67 O 0.209300 1.113800 0.080530
C68 C 0.269500 1.144600 0.000000
C69 C 0.426200 1.224100 0.000000
H70 H 0.519900 1.151500 0.000000
H71 H 0.432500 1.290600 0.057400
Rh72 Rh 0.000000 1.000000 -0.085840
O73 O -0.113800 1.209300 0.080530
O74 O -0.209300 0.886200 0.080530
O75 O 0.113800 0.790700 0.080530
O76 O 0.209300 1.113800 -0.080530
H77 H 0.432500 1.290600 -0.057400
Cl78 Cl 0.000000 1.000000 -0.271110
O79 O -0.209300 0.886200 -0.080530
O80 O 0.113800 0.790700 -0.080530
O81 O -0.113800 1.209300 -0.080530
C82 C -0.144600 1.269500 0.000000
C83 C -0.269500 0.855400 0.000000
C84 C 0.144600 0.730500 0.000000
C85 C -0.224100 1.426200 0.000000
C86 C -0.426200 0.775900 0.000000
C87 C 0.224100 0.573800 0.000000
H88 H -0.151500 1.519900 0.000000
H89 H -0.290600 1.432500 0.057400
H90 H -0.290600 1.432500 -0.057400
H91 H -0.519900 0.848500 0.000000
H92 H -0.432500 0.709400 -0.057400
H93 H -0.432500 0.709400 0.057400
H94 H 0.151500 0.480100 0.000000
H95 H 0.290600 0.567500 -0.057400
H96 H 0.290600 0.567500 0.057400
Rh97 Rh 0.000000 1.000000 1.085840
Cl98 Cl 0.000000 1.000000 1.271110
O99 O 0.209300 1.113800 1.080530
C100 C 0.269500 1.144600 1.000000
C101 C 0.426200 1.224100 1.000000
H102 H 0.519900 1.151500 1.000000
H103 H 0.432500 1.290600 1.057400
Rh104 Rh 0.000000 1.000000 0.914160
O105 O -0.113800 1.209300 1.080530
O106 O -0.209300 0.886200 1.080530
O107 O 0.113800 0.790700 1.080530
O108 O 0.209300 1.113800 0.919470
H109 H 0.432500 1.290600 0.942600
Cl110 Cl 0.000000 1.000000 0.728890
O111 O -0.209300 0.886200 0.919470
O112 O 0.113800 0.790700 0.919470
O113 O -0.113800 1.209300 0.919470
C114 C -0.144600 1.269500 1.000000
C115 C -0.269500 0.855400 1.000000
C116 C 0.144600 0.730500 1.000000
C117 C -0.224100 1.426200 1.000000
C118 C -0.426200 0.775900 1.000000
C119 C 0.224100 0.573800 1.000000
H120 H -0.151500 1.519900 1.000000
H121 H -0.290600 1.432500 1.057400
H122 H -0.290600 1.432500 0.942600
H123 H -0.519900 0.848500 1.000000
H124 H -0.432500 0.709400 0.942600
H125 H -0.432500 0.709400 1.057400
H126 H 0.151500 0.480100 1.000000
H127 H 0.290600 0.567500 0.942600
H128 H 0.290600 0.567500 1.057400
Rh129 Rh 1.000000 0.000000 0.085840
Cl130 Cl 1.000000 0.000000 0.271110
O131 O 1.209300 0.113800 0.080530
C132 C 1.269500 0.144600 0.000000
C133 C 1.426200 0.224100 0.000000
H134 H 1.519900 0.151500 0.000000
H135 H 1.432500 0.290600 0.057400
Rh136 Rh 1.000000 0.000000 -0.085840
O137 O 0.886200 0.209300 0.080530
O138 O 0.790700 -0.113800 0.080530
O139 O 1.113800 -0.209300 0.080530
O140 O 1.209300 0.113800 -0.080530
H141 H 1.432500 0.290600 -0.057400
Cl142 Cl 1.000000 0.000000 -0.271110
O143 O 0.790700 -0.113800 -0.080530
O144 O 1.113800 -0.209300 -0.080530
O145 O 0.886200 0.209300 -0.080530
C146 C 0.855400 0.269500 0.000000
C147 C 0.730500 -0.144600 0.000000
C148 C 1.144600 -0.269500 0.000000
C149 C 0.775900 0.426200 0.000000
C150 C 0.573800 -0.224100 0.000000
C151 C 1.224100 -0.426200 0.000000
H152 H 0.848500 0.519900 0.000000
H153 H 0.709400 0.432500 0.057400
H154 H 0.709400 0.432500 -0.057400
H155 H 0.480100 -0.151500 0.000000
H156 H 0.567500 -0.290600 -0.057400
H157 H 0.567500 -0.290600 0.057400
H158 H 1.151500 -0.519900 0.000000
H159 H 1.290600 -0.432500 -0.057400
H160 H 1.290600 -0.432500 0.057400
Rh161 Rh 1.000000 0.000000 1.085840
Cl162 Cl 1.000000 0.000000 1.271110
O163 O 1.209300 0.113800 1.080530
C164 C 1.269500 0.144600 1.000000
C165 C 1.426200 0.224100 1.000000
H166 H 1.519900 0.151500 1.000000
H167 H 1.432500 0.290600 1.057400
Rh168 Rh 1.000000 0.000000 0.914160
O169 O 0.886200 0.209300 1.080530
O170 O 0.790700 -0.113800 1.080530
O171 O 1.113800 -0.209300 1.080530
O172 O 1.209300 0.113800 0.919470
H173 H 1.432500 0.290600 0.942600
Cl174 Cl 1.000000 0.000000 0.728890
O175 O 0.790700 -0.113800 0.919470
O176 O 1.113800 -0.209300 0.919470
O177 O 0.886200 0.209300 0.919470
C178 C 0.855400 0.269500 1.000000
C179 C 0.730500 -0.144600 1.000000
C180 C 1.144600 -0.269500 1.000000
C181 C 0.775900 0.426200 1.000000
C182 C 0.573800 -0.224100 1.000000
C183 C 1.224100 -0.426200 1.000000
H184 H 0.848500 0.519900 1.000000
H185 H 0.709400 0.432500 1.057400
H186 H 0.709400 0.432500 0.942600
H187 H 0.480100 -0.151500 1.000000
H188 H 0.567500 -0.290600 0.942600
H189 H 0.567500 -0.290600 1.057400
H190 H 1.151500 -0.519900 1.000000
H191 H 1.290600 -0.432500 0.942600
H192 H 1.290600 -0.432500 1.057400
Rh193 Rh 1.000000 1.000000 0.085840
Cl194 Cl 1.000000 1.000000 0.271110
O195 O 1.209300 1.113800 0.080530
C196 C 1.269500 1.144600 0.000000
C197 C 1.426200 1.224100 0.000000
H198 H 1.519900 1.151500 0.000000
H199 H 1.432500 1.290600 0.057400
Rh200 Rh 1.000000 1.000000 -0.085840
O201 O 0.886200 1.209300 0.080530
O202 O 0.790700 0.886200 0.080530
O203 O 1.113800 0.790700 0.080530
O204 O 1.209300 1.113800 -0.080530
H205 H 1.432500 1.290600 -0.057400
Cl206 Cl 1.000000 1.000000 -0.271110
O207 O 0.790700 0.886200 -0.080530
O208 O 1.113800 0.790700 -0.080530
O209 O 0.886200 1.209300 -0.080530
C210 C 0.855400 1.269500 0.000000
C211 C 0.730500 0.855400 0.000000
C212 C 1.144600 0.730500 0.000000
C213 C 0.775900 1.426200 0.000000
C214 C 0.573800 0.775900 0.000000
C215 C 1.224100 0.573800 0.000000
H216 H 0.848500 1.519900 0.000000
H217 H 0.709400 1.432500 0.057400
H218 H 0.709400 1.432500 -0.057400
H219 H 0.480100 0.848500 0.000000
H220 H 0.567500 0.709400 -0.057400
H221 H 0.567500 0.709400 0.057400
H222 H 1.151500 0.480100 0.000000
H223 H 1.290600 0.567500 -0.057400
H224 H 1.290600 0.567500 0.057400
Rh225 Rh 1.000000 1.000000 1.085840
Cl226 Cl 1.000000 1.000000 1.271110
O227 O 1.209300 1.113800 1.080530
C228 C 1.269500 1.144600 1.000000
C229 C 1.426200 1.224100 1.000000
H230 H 1.519900 1.151500 1.000000
H231 H 1.432500 1.290600 1.057400
Rh232 Rh 1.000000 1.000000 0.914160
O233 O 0.886200 1.209300 1.080530
O234 O 0.790700 0.886200 1.080530
O235 O 1.113800 0.790700 1.080530
O236 O 1.209300 1.113800 0.919470
H237 H 1.432500 1.290600 0.942600
Cl238 Cl 1.000000 1.000000 0.728890
O239 O 0.790700 0.886200 0.919470
O240 O 1.113800 0.790700 0.919470
O241 O 0.886200 1.209300 0.919470
C242 C 0.855400 1.269500 1.000000
C243 C 0.730500 0.855400 1.000000
C244 C 1.144600 0.730500 1.000000
C245 C 0.775900 1.426200 1.000000
C246 C 0.573800 0.775900 1.000000
C247 C 1.224100 0.573800 1.000000
H248 H 0.848500 1.519900 1.000000
H249 H 0.709400 1.432500 1.057400
H250 H 0.709400 1.432500 0.942600
H251 H 0.480100 0.848500 1.000000
H252 H 0.567500 0.709400 0.942600
H253 H 0.567500 0.709400 1.057400
H254 H 1.151500 0.480100 1.000000
H255 H 1.290600 0.567500 0.942600
H256 H 1.290600 0.567500 1.057400
Rh257 Rh 0.500000 0.500000 0.585840
Cl258 Cl 0.500000 0.500000 0.771110
O259 O 0.709300 0.613800 0.580530
C260 C 0.769500 0.644600 0.500000
C261 C 0.926200 0.724100 0.500000
H262 H 1.019900 0.651500 0.500000
H263 H 0.932500 0.790600 0.557400
Rh264 Rh 0.500000 0.500000 0.414160
O265 O 0.386200 0.709300 0.580530
O266 O 0.290700 0.386200 0.580530
O267 O 0.613800 0.290700 0.580530
O268 O 0.709300 0.613800 0.419470
H269 H 0.932500 0.790600 0.442600
Cl270 Cl 0.500000 0.500000 0.228890
O271 O 0.290700 0.386200 0.419470
O272 O 0.613800 0.290700 0.419470
O273 O 0.386200 0.709300 0.419470
C274 C 0.355400 0.769500 0.500000
C275 C 0.230500 0.355400 0.500000
C276 C 0.644600 0.230500 0.500000
C277 C 0.275900 0.926200 0.500000
C278 C 0.073800 0.275900 0.500000
C279 C 0.724100 0.073800 0.500000
H280 H 0.348500 1.019900 0.500000
H281 H 0.209400 0.932500 0.557400
H282 H 0.209400 0.932500 0.442600
H283 H -0.019900 0.348500 0.500000
H284 H 0.067500 0.209400 0.442600
H285 H 0.067500 0.209400 0.557400
H286 H 0.651500 -0.019900 0.500000
H287 H 0.790600 0.067500 0.442600
H288 H 0.790600 0.067500 0.557400

#END
