
#######################################################################
#
#                 Cambridge Crystallographic Data Centre
#                                CCDC 
#
#######################################################################
#
# If this CIF has been generated from an entry in the Cambridge 
# Structural Database, then it will include bibliographic, chemical, 
# crystal, experimental, refinement or atomic coordinate data resulting 
# from the CCDC's data processing and validation procedures.
#
#######################################################################

data_ACEJEX
_symmetry_cell_setting           monoclinic
_symmetry_space_group_name_H-M   'I 2/a'
_symmetry_Int_Tables_number      15
_space_group_name_Hall           '-I 2ya'
loop_
_symmetry_equiv_pos_site_id
_symmetry_equiv_pos_as_xyz
1 x,y,z
2 1/2-x,y,-z
3 1/2+x,1/2+y,1/2+z
4 -x,1/2+y,1/2-z
5 -x,-y,-z
6 1/2+x,-y,z
7 1/2-x,1/2-y,1/2-z
8 x,1/2-y,1/2+z
_cell_length_a                   22.686(7)
_cell_length_b                   9.309(5)
_cell_length_c                   23.114(5)
_cell_angle_alpha                90
_cell_angle_beta                 98.123(16)
_cell_angle_gamma                90
_cell_volume                     4832.33
loop_
_atom_site_label
_atom_site_type_symbol
_atom_site_fract_x
_atom_site_fract_y
_atom_site_fract_z
N1 N 0.2753(3) 0.5075(9) 0.2819(4)
O1 O 0.3507(3) 0.6723(7) 0.2478(3)
C1 C 0.3128(5) 0.6885(12) 0.1979(5)
C3 C 0.3292(4) 0.7770(12) 0.1536(5)
C5 C 0.2921(5) 0.7957(12) 0.1022(5)
C7 C 0.2390(5) 0.7281(12) 0.0915(5)
C9 C 0.2221(5) 0.6401(12) 0.1346(5)
C11 C 0.2581(4) 0.6155(11) 0.1880(5)
C13 C 0.2396(4) 0.5180(11) 0.2309(5)
C15 C 0.1879(4) 0.4286(10) 0.2223(4)
C17 C 0.1727(4) 0.3347(11) 0.2632(4)
C19 C 0.2108(4) 0.3282(12) 0.3178(4)
C21 C 0.2009(5) 0.2357(12) 0.3632(5)
C23 C 0.2403(6) 0.2344(12) 0.4144(5)
C25 C 0.2909(5) 0.3222(14) 0.4211(6)
C27 C 0.3010(5) 0.4121(12) 0.3782(5)
C29 C 0.2615(5) 0.4177(12) 0.3250(5)
C31 C 0.1184(4) 0.2429(10) 0.2486(4)
H2 H 0.3659 0.8234 0.1592
H4 H 0.3036 0.8566 0.0740
H6 H 0.2145 0.7403 0.0561
H8 H 0.1851 0.5954 0.1277
H10 H 0.1631 0.4346 0.1868
H12 H 0.1678 0.1754 0.3588
H14 H 0.2332 0.1744 0.4449
H16 H 0.3176 0.3183 0.4555
H18 H 0.3343 0.4715 0.3835
H20 H 0.1132 0.1843 0.2817
H21 H 0.1231 0.1823 0.2159
H22 H 0.0841 0.3031 0.2388
H26 H 0.3277 0.5809 0.2868
N1 N 0.2247(3) 0.5075(9) 0.7181(4)
O1 O 0.1493(3) 0.6723(7) 0.7522(3)
C1 C 0.1872(5) 0.6885(12) 0.8021(5)
C3 C 0.1708(4) 0.7770(12) 0.8464(5)
C5 C 0.2079(5) 0.7957(12) 0.8978(5)
C7 C 0.2610(5) 0.7281(12) 0.9085(5)
C9 C 0.2779(5) 0.6401(12) 0.8654(5)
C11 C 0.2419(4) 0.6155(11) 0.8120(5)
C13 C 0.2604(4) 0.5180(11) 0.7691(5)
C15 C 0.3121(4) 0.4286(10) 0.7777(4)
C17 C 0.3273(4) 0.3347(11) 0.7368(4)
C19 C 0.2892(4) 0.3282(12) 0.6822(4)
C21 C 0.2991(5) 0.2357(12) 0.6368(5)
C23 C 0.2597(6) 0.2344(12) 0.5856(5)
C25 C 0.2091(5) 0.3222(14) 0.5789(6)
C27 C 0.1990(5) 0.4121(12) 0.6218(5)
C29 C 0.2385(5) 0.4177(12) 0.6750(5)
C31 C 0.3816(4) 0.2429(10) 0.7514(4)
H2 H 0.1341 0.8234 0.8408
H4 H 0.1964 0.8566 0.9260
H6 H 0.2855 0.7403 0.9439
H8 H 0.3149 0.5954 0.8723
H10 H 0.3369 0.4346 0.8132
H12 H 0.3322 0.1754 0.6412
H14 H 0.2668 0.1744 0.5551
H16 H 0.1824 0.3183 0.5445
H18 H 0.1657 0.4715 0.6165
H20 H 0.3868 0.1843 0.7183
H21 H 0.3769 0.1823 0.7841
H22 H 0.4159 0.3031 0.7612
H26 H 0.1723 0.5809 0.7132
N1 N 0.7753(3) 1.0075(9) 0.7819(4)
O1 O 0.8507(3) 1.1723(7) 0.7478(3)
C1 C 0.8128(5) 1.1885(12) 0.6979(5)
C3 C 0.8292(4) 1.2770(12) 0.6536(5)
C5 C 0.7921(5) 1.2957(12) 0.6022(5)
C7 C 0.7390(5) 1.2281(12) 0.5915(5)
C9 C 0.7221(5) 1.1401(12) 0.6346(5)
C11 C 0.7581(4) 1.1155(11) 0.6880(5)
C13 C 0.7396(4) 1.0180(11) 0.7309(5)
C15 C 0.6879(4) 0.9286(10) 0.7223(4)
C17 C 0.6727(4) 0.8347(11) 0.7632(4)
C19 C 0.7108(4) 0.8282(12) 0.8178(4)
C21 C 0.7009(5) 0.7357(12) 0.8632(5)
C23 C 0.7403(6) 0.7344(12) 0.9144(5)
C25 C 0.7909(5) 0.8222(14) 0.9211(6)
C27 C 0.8010(5) 0.9121(12) 0.8782(5)
C29 C 0.7615(5) 0.9177(12) 0.8250(5)
C31 C 0.6184(4) 0.7429(10) 0.7486(4)
H2 H 0.8659 1.3234 0.6592
H4 H 0.8036 1.3566 0.5740
H6 H 0.7145 1.2403 0.5561
H8 H 0.6851 1.0954 0.6277
H10 H 0.6631 0.9346 0.6868
H12 H 0.6678 0.6754 0.8588
H14 H 0.7332 0.6744 0.9449
H16 H 0.8176 0.8183 0.9555
H18 H 0.8343 0.9715 0.8835
H20 H 0.6132 0.6843 0.7817
H21 H 0.6231 0.6823 0.7159
H22 H 0.5841 0.8031 0.7388
H26 H 0.8277 1.0809 0.7868
N1 N 0.7247(3) 1.0075(9) 0.2181(4)
O1 O 0.6493(3) 1.1723(7) 0.2522(3)
C1 C 0.6872(5) 1.1885(12) 0.3021(5)
C3 C 0.6708(4) 1.2770(12) 0.3464(5)
C5 C 0.7079(5) 1.2957(12) 0.3978(5)
C7 C 0.7610(5) 1.2281(12) 0.4085(5)
C9 C 0.7779(5) 1.1401(12) 0.3654(5)
C11 C 0.7419(4) 1.1155(11) 0.3120(5)
C13 C 0.7604(4) 1.0180(11) 0.2691(5)
C15 C 0.8121(4) 0.9286(10) 0.2777(4)
C17 C 0.8273(4) 0.8347(11) 0.2368(4)
C19 C 0.7892(4) 0.8282(12) 0.1822(4)
C21 C 0.7991(5) 0.7357(12) 0.1368(5)
C23 C 0.7597(6) 0.7344(12) 0.0856(5)
C25 C 0.7091(5) 0.8222(14) 0.0789(6)
C27 C 0.6990(5) 0.9121(12) 0.1218(5)
C29 C 0.7385(5) 0.9177(12) 0.1750(5)
C31 C 0.8816(4) 0.7429(10) 0.2514(4)
H2 H 0.6341 1.3234 0.3408
H4 H 0.6964 1.3566 0.4260
H6 H 0.7855 1.2403 0.4439
H8 H 0.8149 1.0954 0.3723
H10 H 0.8369 0.9346 0.3132
H12 H 0.8322 0.6754 0.1412
H14 H 0.7668 0.6744 0.0551
H16 H 0.6824 0.8183 0.0445
H18 H 0.6657 0.9715 0.1165
H20 H 0.8868 0.6843 0.2183
H21 H 0.8769 0.6823 0.2841
H22 H 0.9159 0.8031 0.2612
H26 H 0.6723 1.0809 0.2132
N1 N 0.7247(3) 0.4925(9) 0.7181(4)
O1 O 0.6493(3) 0.3277(7) 0.7522(3)
C1 C 0.6872(5) 0.3115(12) 0.8021(5)
C3 C 0.6708(4) 0.2230(12) 0.8464(5)
C5 C 0.7079(5) 0.2043(12) 0.8978(5)
C7 C 0.7610(5) 0.2719(12) 0.9085(5)
C9 C 0.7779(5) 0.3599(12) 0.8654(5)
C11 C 0.7419(4) 0.3845(11) 0.8120(5)
C13 C 0.7604(4) 0.4820(11) 0.7691(5)
C15 C 0.8121(4) 0.5714(10) 0.7777(4)
C17 C 0.8273(4) 0.6653(11) 0.7368(4)
C19 C 0.7892(4) 0.6718(12) 0.6822(4)
C21 C 0.7991(5) 0.7643(12) 0.6368(5)
C23 C 0.7597(6) 0.7656(12) 0.5856(5)
C25 C 0.7091(5) 0.6778(14) 0.5789(6)
C27 C 0.6990(5) 0.5879(12) 0.6218(5)
C29 C 0.7385(5) 0.5823(12) 0.6750(5)
C31 C 0.8816(4) 0.7571(10) 0.7514(4)
H2 H 0.6341 0.1766 0.8408
H4 H 0.6964 0.1434 0.9260
H6 H 0.7855 0.2597 0.9439
H8 H 0.8149 0.4046 0.8723
H10 H 0.8369 0.5654 0.8132
H12 H 0.8322 0.8246 0.6412
H14 H 0.7668 0.8256 0.5551
H16 H 0.6824 0.6817 0.5445
H18 H 0.6657 0.5285 0.6165
H20 H 0.8868 0.8157 0.7183
H21 H 0.8769 0.8177 0.7841
H22 H 0.9159 0.6969 0.7612
H26 H 0.6723 0.4191 0.7132
N1 N 0.7753(3) 0.4925(9) 0.2819(4)
O1 O 0.8507(3) 0.3277(7) 0.2478(3)
C1 C 0.8128(5) 0.3115(12) 0.1979(5)
C3 C 0.8292(4) 0.2230(12) 0.1536(5)
C5 C 0.7921(5) 0.2043(12) 0.1022(5)
C7 C 0.7390(5) 0.2719(12) 0.0915(5)
C9 C 0.7221(5) 0.3599(12) 0.1346(5)
C11 C 0.7581(4) 0.3845(11) 0.1880(5)
C13 C 0.7396(4) 0.4820(11) 0.2309(5)
C15 C 0.6879(4) 0.5714(10) 0.2223(4)
C17 C 0.6727(4) 0.6653(11) 0.2632(4)
C19 C 0.7108(4) 0.6718(12) 0.3178(4)
C21 C 0.7009(5) 0.7643(12) 0.3632(5)
C23 C 0.7403(6) 0.7656(12) 0.4144(5)
C25 C 0.7909(5) 0.6778(14) 0.4211(6)
C27 C 0.8010(5) 0.5879(12) 0.3782(5)
C29 C 0.7615(5) 0.5823(12) 0.3250(5)
C31 C 0.6184(4) 0.7571(10) 0.2486(4)
H2 H 0.8659 0.1766 0.1592
H4 H 0.8036 0.1434 0.0740
H6 H 0.7145 0.2597 0.0561
H8 H 0.6851 0.4046 0.1277
H10 H 0.6631 0.5654 0.1868
H12 H 0.6678 0.8246 0.3588
H14 H 0.7332 0.8256 0.4449
H16 H 0.8176 0.6817 0.4555
H18 H 0.8343 0.5285 0.3835
H20 H 0.6132 0.8157 0.2817
H21 H 0.6231 0.8177 0.2159
H22 H 0.5841 0.6969 0.2388
H26 H 0.8277 0.4191 0.2868
N1 N 0.2247(3) -0.0075(9) 0.2181(4)
O1 O 0.1493(3) -0.1723(7) 0.2522(3)
C1 C 0.1872(5) -0.1885(12) 0.3021(5)
C3 C 0.1708(4) -0.2770(12) 0.3464(5)
C5 C 0.2079(5) -0.2957(12) 0.3978(5)
C7 C 0.2610(5) -0.2281(12) 0.4085(5)
C9 C 0.2779(5) -0.1401(12) 0.3654(5)
C11 C 0.2419(4) -0.1155(11) 0.3120(5)
C13 C 0.2604(4) -0.0180(11) 0.2691(5)
C15 C 0.3121(4) 0.0714(10) 0.2777(4)
C17 C 0.3273(4) 0.1653(11) 0.2368(4)
C19 C 0.2892(4) 0.1718(12) 0.1822(4)
C21 C 0.2991(5) 0.2643(12) 0.1368(5)
C23 C 0.2597(6) 0.2656(12) 0.0856(5)
C25 C 0.2091(5) 0.1778(14) 0.0789(6)
C27 C 0.1990(5) 0.0879(12) 0.1218(5)
C29 C 0.2385(5) 0.0823(12) 0.1750(5)
C31 C 0.3816(4) 0.2571(10) 0.2514(4)
H2 H 0.1341 -0.3234 0.3408
H4 H 0.1964 -0.3566 0.4260
H6 H 0.2855 -0.2403 0.4439
H8 H 0.3149 -0.0954 0.3723
H10 H 0.3369 0.0654 0.3132
H12 H 0.3322 0.3246 0.1412
H14 H 0.2668 0.3256 0.0551
H16 H 0.1824 0.1817 0.0445
H18 H 0.1657 0.0285 0.1165
H20 H 0.3868 0.3157 0.2183
H21 H 0.3769 0.3177 0.2841
H22 H 0.4159 0.1969 0.2612
H26 H 0.1723 -0.0809 0.2132
N1 N 0.2753(3) -0.0075(9) 0.7819(4)
O1 O 0.3507(3) -0.1723(7) 0.7478(3)
C1 C 0.3128(5) -0.1885(12) 0.6979(5)
C3 C 0.3292(4) -0.2770(12) 0.6536(5)
C5 C 0.2921(5) -0.2957(12) 0.6022(5)
C7 C 0.2390(5) -0.2281(12) 0.5915(5)
C9 C 0.2221(5) -0.1401(12) 0.6346(5)
C11 C 0.2581(4) -0.1155(11) 0.6880(5)
C13 C 0.2396(4) -0.0180(11) 0.7309(5)
C15 C 0.1879(4) 0.0714(10) 0.7223(4)
C17 C 0.1727(4) 0.1653(11) 0.7632(4)
C19 C 0.2108(4) 0.1718(12) 0.8178(4)
C21 C 0.2009(5) 0.2643(12) 0.8632(5)
C23 C 0.2403(6) 0.2656(12) 0.9144(5)
C25 C 0.2909(5) 0.1778(14) 0.9211(6)
C27 C 0.3010(5) 0.0879(12) 0.8782(5)
C29 C 0.2615(5) 0.0823(12) 0.8250(5)
C31 C 0.1184(4) 0.2571(10) 0.7486(4)
H2 H 0.3659 -0.3234 0.6592
H4 H 0.3036 -0.3566 0.5740
H6 H 0.2145 -0.2403 0.5561
H8 H 0.1851 -0.0954 0.6277
H10 H 0.1631 0.0654 0.6868
H12 H 0.1678 0.3246 0.8588
H14 H 0.2332 0.3256 0.9449
H16 H 0.3176 0.1817 0.9555
H18 H 0.3343 0.0285 0.8835
H20 H 0.1132 0.3157 0.7817
H21 H 0.1231 0.3177 0.7159
H22 H 0.0841 0.1969 0.7388
H26 H 0.3277 -0.0809 0.7868
C2 C -0.0678(5) 0.4244(12) 0.5321(5)
O2 O -0.1035(3) 0.4173(8) 0.4799(3)
N2 N -0.0290(4) 0.2392(9) 0.4488(4)
C4 C -0.0831(5) 0.5167(12) 0.5742(6)
C6 C -0.0481(6) 0.5278(13) 0.6282(5)
C8 C 0.0030(6) 0.4529(13) 0.6411(5)
C10 C 0.0188(5) 0.3593(12) 0.5997(5)
C12 C -0.0158(5) 0.3434(10) 0.5448(4)
C14 C 0.0032(4) 0.2453(11) 0.5017(4)
C16 C 0.0557(4) 0.1565(10) 0.5107(4)
C18 C 0.0726(4) 0.0691(11) 0.4690(5)
C20 C 0.0366(5) 0.0709(12) 0.4132(4)
C22 C 0.0515(5) -0.0166(11) 0.3668(5)
C24 C 0.0154(6) -0.0097(12) 0.3134(5)
C26 C -0.0347(5) 0.0793(13) 0.3055(5)
C28 C -0.0497(4) 0.1607(11) 0.3491(5)
C30 C -0.0146(5) 0.1575(13) 0.4055(5)
C32 C 0.1272(4) -0.0214(10) 0.4825(4)
H1 H -0.0710(40) 0.3040(90) 0.4430(30)
H3 H -0.1174 0.5722 0.5662
H5 H -0.0601 0.5883 0.6564
H7 H 0.0270 0.4643 0.6769
H9 H 0.0533 0.3050 0.6085
H11 H 0.0793 0.1593 0.5470
H13 H 0.0845 -0.0768 0.3723
H15 H 0.0247 -0.0649 0.2824
H17 H -0.0582 0.0822 0.2691
H19 H -0.0832 0.2194 0.3426
H23 H 0.1328 -0.0765 0.4486
H24 H 0.1226 -0.0853 0.5141
H25 H 0.1611 0.0393 0.4934
C2 C 0.5678(5) 0.4244(12) 0.4679(5)
O2 O 0.6035(3) 0.4173(8) 0.5201(3)
N2 N 0.5290(4) 0.2392(9) 0.5512(4)
C4 C 0.5831(5) 0.5167(12) 0.4258(6)
C6 C 0.5481(6) 0.5278(13) 0.3718(5)
C8 C 0.4970(6) 0.4529(13) 0.3589(5)
C10 C 0.4812(5) 0.3593(12) 0.4003(5)
C12 C 0.5158(5) 0.3434(10) 0.4552(4)
C14 C 0.4968(4) 0.2453(11) 0.4983(4)
C16 C 0.4443(4) 0.1565(10) 0.4893(4)
C18 C 0.4274(4) 0.0691(11) 0.5310(5)
C20 C 0.4634(5) 0.0709(12) 0.5868(4)
C22 C 0.4485(5) -0.0166(11) 0.6332(5)
C24 C 0.4846(6) -0.0097(12) 0.6866(5)
C26 C 0.5347(5) 0.0793(13) 0.6945(5)
C28 C 0.5497(4) 0.1607(11) 0.6509(5)
C30 C 0.5146(5) 0.1575(13) 0.5945(5)
C32 C 0.3728(4) -0.0214(10) 0.5175(4)
H1 H 0.5710(40) 0.3040(90) 0.5570(30)
H3 H 0.6174 0.5722 0.4338
H5 H 0.5601 0.5883 0.3436
H7 H 0.4730 0.4643 0.3231
H9 H 0.4467 0.3050 0.3915
H11 H 0.4207 0.1593 0.4530
H13 H 0.4155 -0.0768 0.6277
H15 H 0.4753 -0.0649 0.7176
H17 H 0.5582 0.0822 0.7309
H19 H 0.5832 0.2194 0.6574
H23 H 0.3672 -0.0765 0.5514
H24 H 0.3774 -0.0853 0.4859
H25 H 0.3389 0.0393 0.5066
C2 C 0.4322(5) 0.9244(12) 1.0321(5)
O2 O 0.3965(3) 0.9173(8) 0.9799(3)
N2 N 0.4710(4) 0.7392(9) 0.9488(4)
C4 C 0.4169(5) 1.0167(12) 1.0742(6)
C6 C 0.4519(6) 1.0278(13) 1.1282(5)
C8 C 0.5030(6) 0.9529(13) 1.1411(5)
C10 C 0.5188(5) 0.8593(12) 1.0997(5)
C12 C 0.4842(5) 0.8434(10) 1.0448(4)
C14 C 0.5032(4) 0.7453(11) 1.0017(4)
C16 C 0.5557(4) 0.6565(10) 1.0107(4)
C18 C 0.5726(4) 0.5691(11) 0.9690(5)
C20 C 0.5366(5) 0.5709(12) 0.9132(4)
C22 C 0.5515(5) 0.4834(11) 0.8668(5)
C24 C 0.5154(6) 0.4903(12) 0.8134(5)
C26 C 0.4653(5) 0.5793(13) 0.8055(5)
C28 C 0.4503(4) 0.6607(11) 0.8491(5)
C30 C 0.4854(5) 0.6575(13) 0.9055(5)
C32 C 0.6272(4) 0.4786(10) 0.9825(4)
H1 H 0.4290(40) 0.8040(90) 0.9430(30)
H3 H 0.3826 1.0722 1.0662
H5 H 0.4399 1.0883 1.1564
H7 H 0.5270 0.9643 1.1769
H9 H 0.5533 0.8050 1.1085
H11 H 0.5793 0.6593 1.0470
H13 H 0.5845 0.4232 0.8723
H15 H 0.5247 0.4351 0.7824
H17 H 0.4418 0.5822 0.7691
H19 H 0.4168 0.7194 0.8426
H23 H 0.6328 0.4235 0.9486
H24 H 0.6226 0.4147 1.0141
H25 H 0.6611 0.5393 0.9934
C2 C 1.0678(5) 0.9244(12) -0.0321(5)
O2 O 1.1035(3) 0.9173(8) 0.0201(3)
N2 N 1.0290(4) 0.7392(9) 0.0512(4)
C4 C 1.0831(5) 1.0167(12) -0.0742(6)
C6 C 1.0481(6) 1.0278(13) -0.1282(5)
C8 C 0.9970(6) 0.9529(13) -0.1411(5)
C10 C 0.9812(5) 0.8593(12) -0.0997(5)
C12 C 1.0158(5) 0.8434(10) -0.0448(4)
C14 C 0.9968(4) 0.7453(11) -0.0017(4)
C16 C 0.9443(4) 0.6565(10) -0.0107(4)
C18 C 0.9274(4) 0.5691(11) 0.0310(5)
C20 C 0.9634(5) 0.5709(12) 0.0868(4)
C22 C 0.9485(5) 0.4834(11) 0.1332(5)
C24 C 0.9846(6) 0.4903(12) 0.1866(5)
C26 C 1.0347(5) 0.5793(13) 0.1945(5)
C28 C 1.0497(4) 0.6607(11) 0.1509(5)
C30 C 1.0146(5) 0.6575(13) 0.0945(5)
C32 C 0.8728(4) 0.4786(10) 0.0175(4)
H1 H 1.0710(40) 0.8040(90) 0.0570(30)
H3 H 1.1174 1.0722 -0.0662
H5 H 1.0601 1.0883 -0.1564
H7 H 0.9730 0.9643 -0.1769
H9 H 0.9467 0.8050 -0.1085
H11 H 0.9207 0.6593 -0.0470
H13 H 0.9155 0.4232 0.1277
H15 H 0.9753 0.4351 0.2176
H17 H 1.0582 0.5822 0.2309
H19 H 1.0832 0.7194 0.1574
H23 H 0.8672 0.4235 0.0514
H24 H 0.8774 0.4147 -0.0141
H25 H 0.8389 0.5393 0.0066
C2 C 1.0678(5) 0.5756(12) 0.4679(5)
O2 O 1.1035(3) 0.5827(8) 0.5201(3)
N2 N 1.0290(4) 0.7608(9) 0.5512(4)
C4 C 1.0831(5) 0.4833(12) 0.4258(6)
C6 C 1.0481(6) 0.4722(13) 0.3718(5)
C8 C 0.9970(6) 0.5471(13) 0.3589(5)
C10 C 0.9812(5) 0.6407(12) 0.4003(5)
C12 C 1.0158(5) 0.6566(10) 0.4552(4)
C14 C 0.9968(4) 0.7547(11) 0.4983(4)
C16 C 0.9443(4) 0.8435(10) 0.4893(4)
C18 C 0.9274(4) 0.9309(11) 0.5310(5)
C20 C 0.9634(5) 0.9291(12) 0.5868(4)
C22 C 0.9485(5) 1.0166(11) 0.6332(5)
C24 C 0.9846(6) 1.0097(12) 0.6866(5)
C26 C 1.0347(5) 0.9207(13) 0.6945(5)
C28 C 1.0497(4) 0.8393(11) 0.6509(5)
C30 C 1.0146(5) 0.8425(13) 0.5945(5)
C32 C 0.8728(4) 1.0214(10) 0.5175(4)
H1 H 1.0710(40) 0.6960(90) 0.5570(30)
H3 H 1.1174 0.4278 0.4338
H5 H 1.0601 0.4117 0.3436
H7 H 0.9730 0.5357 0.3231
H9 H 0.9467 0.6950 0.3915
H11 H 0.9207 0.8407 0.4530
H13 H 0.9155 1.0768 0.6277
H15 H 0.9753 1.0649 0.7176
H17 H 1.0582 0.9178 0.7309
H19 H 1.0832 0.7806 0.6574
H23 H 0.8672 1.0765 0.5514
H24 H 0.8774 1.0853 0.4859
H25 H 0.8389 0.9607 0.5066
C2 C 0.4322(5) 0.5756(12) 0.5321(5)
O2 O 0.3965(3) 0.5827(8) 0.4799(3)
N2 N 0.4710(4) 0.7608(9) 0.4488(4)
C4 C 0.4169(5) 0.4833(12) 0.5742(6)
C6 C 0.4519(6) 0.4722(13) 0.6282(5)
C8 C 0.5030(6) 0.5471(13) 0.6411(5)
C10 C 0.5188(5) 0.6407(12) 0.5997(5)
C12 C 0.4842(5) 0.6566(10) 0.5448(4)
C14 C 0.5032(4) 0.7547(11) 0.5017(4)
C16 C 0.5557(4) 0.8435(10) 0.5107(4)
C18 C 0.5726(4) 0.9309(11) 0.4690(5)
C20 C 0.5366(5) 0.9291(12) 0.4132(4)
C22 C 0.5515(5) 1.0166(11) 0.3668(5)
C24 C 0.5154(6) 1.0097(12) 0.3134(5)
C26 C 0.4653(5) 0.9207(13) 0.3055(5)
C28 C 0.4503(4) 0.8393(11) 0.3491(5)
C30 C 0.4854(5) 0.8425(13) 0.4055(5)
C32 C 0.6272(4) 1.0214(10) 0.4825(4)
H1 H 0.4290(40) 0.6960(90) 0.4430(30)
H3 H 0.3826 0.4278 0.5662
H5 H 0.4399 0.4117 0.6564
H7 H 0.5270 0.5357 0.6769
H9 H 0.5533 0.6950 0.6085
H11 H 0.5793 0.8407 0.5470
H13 H 0.5845 1.0768 0.3723
H15 H 0.5247 1.0649 0.2824
H17 H 0.4418 0.9178 0.2691
H19 H 0.4168 0.7806 0.3426
H23 H 0.6328 1.0765 0.4486
H24 H 0.6226 1.0853 0.5141
H25 H 0.6611 0.9607 0.4934
C2 C 0.5678(5) 0.0756(12) -0.0321(5)
O2 O 0.6035(3) 0.0827(8) 0.0201(3)
N2 N 0.5290(4) 0.2608(9) 0.0512(4)
C4 C 0.5831(5) -0.0167(12) -0.0742(6)
C6 C 0.5481(6) -0.0278(13) -0.1282(5)
C8 C 0.4970(6) 0.0471(13) -0.1411(5)
C10 C 0.4812(5) 0.1407(12) -0.0997(5)
C12 C 0.5158(5) 0.1566(10) -0.0448(4)
C14 C 0.4968(4) 0.2547(11) -0.0017(4)
C16 C 0.4443(4) 0.3435(10) -0.0107(4)
C18 C 0.4274(4) 0.4309(11) 0.0310(5)
C20 C 0.4634(5) 0.4291(12) 0.0868(4)
C22 C 0.4485(5) 0.5166(11) 0.1332(5)
C24 C 0.4846(6) 0.5097(12) 0.1866(5)
C26 C 0.5347(5) 0.4207(13) 0.1945(5)
C28 C 0.5497(4) 0.3393(11) 0.1509(5)
C30 C 0.5146(5) 0.3425(13) 0.0945(5)
C32 C 0.3728(4) 0.5214(10) 0.0175(4)
H1 H 0.5710(40) 0.1960(90) 0.0570(30)
H3 H 0.6174 -0.0722 -0.0662
H5 H 0.5601 -0.0883 -0.1564
H7 H 0.4730 0.0357 -0.1769
H9 H 0.4467 0.1950 -0.1085
H11 H 0.4207 0.3407 -0.0470
H13 H 0.4155 0.5768 0.1277
H15 H 0.4753 0.5649 0.2176
H17 H 0.5582 0.4178 0.2309
H19 H 0.5832 0.2806 0.1574
H23 H 0.3672 0.5765 0.0514
H24 H 0.3774 0.5853 -0.0141
H25 H 0.3389 0.4607 0.0066
C2 C -0.0678(5) 0.0756(12) 1.0321(5)
O2 O -0.1035(3) 0.0827(8) 0.9799(3)
N2 N -0.0290(4) 0.2608(9) 0.9488(4)
C4 C -0.0831(5) -0.0167(12) 1.0742(6)
C6 C -0.0481(6) -0.0278(13) 1.1282(5)
C8 C 0.0030(6) 0.0471(13) 1.1411(5)
C10 C 0.0188(5) 0.1407(12) 1.0997(5)
C12 C -0.0158(5) 0.1566(10) 1.0448(4)
C14 C 0.0032(4) 0.2547(11) 1.0017(4)
C16 C 0.0557(4) 0.3435(10) 1.0107(4)
C18 C 0.0726(4) 0.4309(11) 0.9690(5)
C20 C 0.0366(5) 0.4291(12) 0.9132(4)
C22 C 0.0515(5) 0.5166(11) 0.8668(5)
C24 C 0.0154(6) 0.5097(12) 0.8134(5)
C26 C -0.0347(5) 0.4207(13) 0.8055(5)
C28 C -0.0497(4) 0.3393(11) 0.8491(5)
C30 C -0.0146(5) 0.3425(13) 0.9055(5)
C32 C 0.1272(4) 0.5214(10) 0.9825(4)
H1 H -0.0710(40) 0.1960(90) 0.9430(30)
H3 H -0.1174 -0.0722 1.0662
H5 H -0.0601 -0.0883 1.1564
H7 H 0.0270 0.0357 1.1769
H9 H 0.0533 0.1950 1.1085
H11 H 0.0793 0.3407 1.0470
H13 H 0.0845 0.5768 0.8723
H15 H 0.0247 0.5649 0.7824
H17 H -0.0582 0.4178 0.7691
H19 H -0.0832 0.2806 0.8426
H23 H 0.1328 0.5765 0.9486
H24 H 0.1226 0.5853 1.0141
H25 H 0.1611 0.4607 0.9934

#END
