
#######################################################################
#
#                 Cambridge Crystallographic Data Centre
#                                CCDC 
#
#######################################################################
#
# If this CIF has been generated from an entry in the Cambridge 
# Structural Database, then it will include bibliographic, chemical, 
# crystal, experimental, refinement or atomic coordinate data resulting 
# from the CCDC's data processing and validation procedures.
#
#######################################################################

data_ACEMUR
_symmetry_cell_setting           monoclinic
_symmetry_space_group_name_H-M   'P 21/c'
_symmetry_Int_Tables_number      14
_space_group_name_Hall           '-P 2ybc'
loop_
_symmetry_equiv_pos_site_id
_symmetry_equiv_pos_as_xyz
1 x,y,z
2 x,1/2-y,1/2+z
3 -x,-y,-z
4 -x,1/2+y,1/2-z
_cell_length_a                   6.6064(18)
_cell_length_b                   14.354(4)
_cell_length_c                   14.549(4)
_cell_angle_alpha                90
_cell_angle_beta                 95.247(5)
_cell_angle_gamma                90
_cell_volume                     1373.88
loop_
_atom_site_label
_atom_site_type_symbol
_atom_site_fract_x
_atom_site_fract_y
_atom_site_fract_z
O1 O 0.6702(3) 0.44629(12) 0.53173(14)
O2 O 0.9673(3) 0.40641(13) 0.59361(15)
O3 O 1.1689(3) 0.08790(14) 0.62630(17)
O4 O 0.9380(3) -0.01800(13) 0.60371(15)
O5 O -0.6363(3) 0.23247(13) 0.20241(13)
O6 O -0.4048(3) 0.11802(12) 0.25036(13)
N1 N 0.4059(3) 0.32165(16) 0.46444(15)
H1 H 0.430(4) 0.3779(19) 0.4642(17)
N2 N 0.2298(3) 0.28633(14) 0.41789(14)
N3 N 0.7980(3) 0.38640(15) 0.55684(15)
N4 N 0.9958(4) 0.06349(16) 0.60075(16)
C1 C 0.5539(4) 0.26145(17) 0.49826(16)
C2 C 0.7452(4) 0.28975(16) 0.54291(16)
C3 C 0.8922(4) 0.22497(18) 0.57487(17)
H2 H 1.018(4) 0.2465(17) 0.6012(17)
C4 C 0.8489(4) 0.13243(17) 0.56429(17)
C5 C 0.6628(4) 0.10241(19) 0.52125(19)
H3 H 0.636(4) 0.034(2) 0.5166(17)
C6 C 0.5193(4) 0.16490(19) 0.4892(2)
H4 H 0.397(4) 0.1440(19) 0.4613(18)
C7 C -0.0874(4) 0.31770(17) 0.33123(16)
C8 C -0.2267(4) 0.38594(19) 0.30094(18)
H5 H -0.185(3) 0.4471(18) 0.3078(15)
C9 C -0.4186(4) 0.3649(2) 0.25641(19)
H6 H -0.512(4) 0.4122(19) 0.2352(18)
C10 C -0.4618(4) 0.27263(19) 0.24462(17)
C11 C -0.3232(4) 0.20414(16) 0.27384(17)
C12 C -0.1358(4) 0.22336(19) 0.31707(18)
H7 H -0.047(4) 0.1751(17) 0.3338(16)
C13 C 0.1060(4) 0.3467(2) 0.38045(17)
H8 H 0.138(4) 0.409(2) 0.3848(17)
C14 C -0.6131(5) 0.1347(2) 0.2176(3)
H9 H -0.640(4) 0.101(2) 0.153(2)
H10 H -0.694(4) 0.118(2) 0.2669(18)
O1 O 0.6702(3) 0.05371(12) 1.03173(14)
O2 O 0.9673(3) 0.09359(13) 1.09361(15)
O3 O 1.1689(3) 0.41210(14) 1.12630(17)
O4 O 0.9380(3) 0.51800(13) 1.10371(15)
O5 O -0.6363(3) 0.26753(13) 0.70241(13)
O6 O -0.4048(3) 0.38198(12) 0.75036(13)
N1 N 0.4059(3) 0.17835(16) 0.96444(15)
H1 H 0.430(4) 0.1221(19) 0.9642(17)
N2 N 0.2298(3) 0.21367(14) 0.91789(14)
N3 N 0.7980(3) 0.11360(15) 1.05684(15)
N4 N 0.9958(4) 0.43651(16) 1.10075(16)
C1 C 0.5539(4) 0.23855(17) 0.99826(16)
C2 C 0.7452(4) 0.21025(16) 1.04291(16)
C3 C 0.8922(4) 0.27503(18) 1.07487(17)
H2 H 1.018(4) 0.2535(17) 1.1012(17)
C4 C 0.8489(4) 0.36757(17) 1.06429(17)
C5 C 0.6628(4) 0.39759(19) 1.02125(19)
H3 H 0.636(4) 0.466(2) 1.0166(17)
C6 C 0.5193(4) 0.33510(19) 0.9892(2)
H4 H 0.397(4) 0.3560(19) 0.9613(18)
C7 C -0.0874(4) 0.18230(17) 0.83123(16)
C8 C -0.2267(4) 0.11406(19) 0.80094(18)
H5 H -0.185(3) 0.0529(18) 0.8078(15)
C9 C -0.4186(4) 0.1351(2) 0.75641(19)
H6 H -0.512(4) 0.0878(19) 0.7352(18)
C10 C -0.4618(4) 0.22737(19) 0.74462(17)
C11 C -0.3232(4) 0.29586(16) 0.77384(17)
C12 C -0.1358(4) 0.27664(19) 0.81707(18)
H7 H -0.047(4) 0.3249(17) 0.8338(16)
C13 C 0.1060(4) 0.1533(2) 0.88045(17)
H8 H 0.138(4) 0.091(2) 0.8848(17)
C14 C -0.6131(5) 0.3653(2) 0.7176(3)
H9 H -0.640(4) 0.399(2) 0.653(2)
H10 H -0.694(4) 0.382(2) 0.7669(18)
O1 O 0.3298(3) 0.55371(12) 0.46827(14)
O2 O 0.0327(3) 0.59359(13) 0.40639(15)
O3 O -0.1689(3) 0.91210(14) 0.37370(17)
O4 O 0.0620(3) 1.01800(13) 0.39629(15)
O5 O 1.6363(3) 0.76753(13) 0.79759(13)
O6 O 1.4048(3) 0.88198(12) 0.74964(13)
N1 N 0.5941(3) 0.67835(16) 0.53556(15)
H1 H 0.570(4) 0.6221(19) 0.5358(17)
N2 N 0.7702(3) 0.71367(14) 0.58211(14)
N3 N 0.2020(3) 0.61360(15) 0.44316(15)
N4 N 0.0042(4) 0.93651(16) 0.39925(16)
C1 C 0.4461(4) 0.73855(17) 0.50174(16)
C2 C 0.2548(4) 0.71025(16) 0.45709(16)
C3 C 0.1078(4) 0.77503(18) 0.42513(17)
H2 H -0.018(4) 0.7535(17) 0.3988(17)
C4 C 0.1511(4) 0.86757(17) 0.43571(17)
C5 C 0.3372(4) 0.89759(19) 0.47875(19)
H3 H 0.364(4) 0.966(2) 0.4834(17)
C6 C 0.4807(4) 0.83510(19) 0.5108(2)
H4 H 0.603(4) 0.8560(19) 0.5387(18)
C7 C 1.0874(4) 0.68230(17) 0.66877(16)
C8 C 1.2267(4) 0.61406(19) 0.69906(18)
H5 H 1.185(3) 0.5529(18) 0.6922(15)
C9 C 1.4186(4) 0.6351(2) 0.74359(19)
H6 H 1.512(4) 0.5878(19) 0.7648(18)
C10 C 1.4618(4) 0.72737(19) 0.75538(17)
C11 C 1.3232(4) 0.79586(16) 0.72616(17)
C12 C 1.1358(4) 0.77664(19) 0.68293(18)
H7 H 1.047(4) 0.8249(17) 0.6662(16)
C13 C 0.8940(4) 0.6533(2) 0.61955(17)
H8 H 0.862(4) 0.591(2) 0.6152(17)
C14 C 1.6131(5) 0.8653(2) 0.7824(3)
H9 H 1.640(4) 0.899(2) 0.847(2)
H10 H 1.694(4) 0.882(2) 0.7331(18)
O1 O 0.3298(3) 0.94629(12) -0.03173(14)
O2 O 0.0327(3) 0.90641(13) -0.09361(15)
O3 O -0.1689(3) 0.58790(14) -0.12630(17)
O4 O 0.0620(3) 0.48200(13) -0.10371(15)
O5 O 1.6363(3) 0.73247(13) 0.29759(13)
O6 O 1.4048(3) 0.61802(12) 0.24964(13)
N1 N 0.5941(3) 0.82165(16) 0.03556(15)
H1 H 0.570(4) 0.8779(19) 0.0358(17)
N2 N 0.7702(3) 0.78633(14) 0.08211(14)
N3 N 0.2020(3) 0.88640(15) -0.05684(15)
N4 N 0.0042(4) 0.56349(16) -0.10075(16)
C1 C 0.4461(4) 0.76145(17) 0.00174(16)
C2 C 0.2548(4) 0.78975(16) -0.04291(16)
C3 C 0.1078(4) 0.72497(18) -0.07487(17)
H2 H -0.018(4) 0.7465(17) -0.1012(17)
C4 C 0.1511(4) 0.63243(17) -0.06429(17)
C5 C 0.3372(4) 0.60241(19) -0.02125(19)
H3 H 0.364(4) 0.534(2) -0.0166(17)
C6 C 0.4807(4) 0.66490(19) 0.0108(2)
H4 H 0.603(4) 0.6440(19) 0.0387(18)
C7 C 1.0874(4) 0.81770(17) 0.16877(16)
C8 C 1.2267(4) 0.88594(19) 0.19906(18)
H5 H 1.185(3) 0.9471(18) 0.1922(15)
C9 C 1.4186(4) 0.8649(2) 0.24359(19)
H6 H 1.512(4) 0.9122(19) 0.2648(18)
C10 C 1.4618(4) 0.77263(19) 0.25538(17)
C11 C 1.3232(4) 0.70414(16) 0.22616(17)
C12 C 1.1358(4) 0.72336(19) 0.18293(18)
H7 H 1.047(4) 0.6751(17) 0.1662(16)
C13 C 0.8940(4) 0.8467(2) 0.11955(17)
H8 H 0.862(4) 0.909(2) 0.1152(17)
C14 C 1.6131(5) 0.6347(2) 0.2824(3)
H9 H 1.640(4) 0.601(2) 0.347(2)
H10 H 1.694(4) 0.618(2) 0.2331(18)

#END
