
#######################################################################
#
#                 Cambridge Crystallographic Data Centre
#                                CCDC 
#
#######################################################################
#
# If this CIF has been generated from an entry in the Cambridge 
# Structural Database, then it will include bibliographic, chemical, 
# crystal, experimental, refinement or atomic coordinate data resulting 
# from the CCDC's data processing and validation procedures.
#
#######################################################################

data_ACEOXM01
_symmetry_cell_setting           triclinic
_symmetry_space_group_name_H-M   'P -1'
_symmetry_Int_Tables_number      2
_space_group_name_Hall           '-P 1'
loop_
_symmetry_equiv_pos_site_id
_symmetry_equiv_pos_as_xyz
1 x,y,z
2 -x,-y,-z
_cell_length_a                   7.006(2)
_cell_length_b                   10.482(3)
_cell_length_c                   10.580(5)
_cell_angle_alpha                60.489(15)
_cell_angle_beta                 79.61(3)
_cell_angle_gamma                83.453(17)
_cell_volume                     664.785
loop_
_atom_site_label
_atom_site_type_symbol
_atom_site_fract_x
_atom_site_fract_y
_atom_site_fract_z
O1 O 0.7594(4) 0.7993(2) 0.9344(2)
H1 H 0.7515 0.8104 1.0077
N1 N 0.7597(4) 0.6511(3) 0.9780(3)
C1 C 0.7610(4) 0.6280(3) 0.8697(3)
C2 C 0.7640(6) 0.7438(4) 0.7131(4)
H2 H 0.7313 0.8384 0.7083
H3 H 0.6701 0.7220 0.6698
H4 H 0.8926 0.7462 0.6595
C3 C 0.7623(6) 0.4736(3) 0.9044(4)
H5 H 0.7601 0.4105 1.0092
H6 H 0.8788 0.4517 0.8524
H7 H 0.6489 0.4567 0.8744
O1 O 0.2406(4) 0.2007(2) 0.0656(2)
H1 H 0.2485 0.1896 -0.0077
N1 N 0.2403(4) 0.3489(3) 0.0220(3)
C1 C 0.2390(4) 0.3720(3) 0.1303(3)
C2 C 0.2360(6) 0.2562(4) 0.2869(4)
H2 H 0.2687 0.1616 0.2917
H3 H 0.3299 0.2780 0.3302
H4 H 0.1074 0.2538 0.3405
C3 C 0.2377(6) 0.5264(3) 0.0956(4)
H5 H 0.2399 0.5895 -0.0092
H6 H 0.1212 0.5483 0.1476
H7 H 0.3511 0.5433 0.1256
O2 O 0.7709(4) 0.7376(2) 0.3221(2)
H8 H 0.7768 0.6539 0.3317
N2 N 0.7500(4) 0.8408(3) 0.1770(3)
C4 C 0.7541(4) 0.9730(3) 0.1529(3)
C5 C 0.7813(6) 1.0165(4) 0.2620(4)
H9 H 0.7401 0.9382 0.3601
H10 H 0.7042 1.1049 0.2454
H11 H 0.9173 1.0348 0.2518
C6 C 0.7350(6) 1.0905(3) 0.0005(4)
H12 H 0.7145 1.0465 -0.0578
H13 H 0.8527 1.1462 -0.0426
H14 H 0.6254 1.1553 0.0026
O2 O 0.2291(4) 0.2624(2) 0.6779(2)
H8 H 0.2232 0.3461 0.6683
N2 N 0.2500(4) 0.1592(3) 0.8230(3)
C4 C 0.2459(4) 0.0270(3) 0.8471(3)
C5 C 0.2187(6) -0.0165(4) 0.7380(4)
H9 H 0.2599 0.0618 0.6399
H10 H 0.2958 -0.1049 0.7546
H11 H 0.0827 -0.0348 0.7482
C6 C 0.2650(6) -0.0905(3) 0.9995(4)
H12 H 0.2855 -0.0465 1.0578
H13 H 0.1473 -0.1462 1.0426
H14 H 0.3746 -0.1553 0.9974
O3 O 0.7299(4) 0.4099(2) 0.2608(2)
H15 H 0.7371 0.4822 0.1774
N3 N 0.7418(4) 0.4555(3) 0.3634(3)
C7 C 0.7332(4) 0.3494(3) 0.4936(3)
C8 C 0.7084(6) 0.1938(3) 0.5363(4)
H16 H 0.5714 0.1755 0.5511
H17 H 0.7619 0.1303 0.6265
H18 H 0.7758 0.1739 0.4590
C9 C 0.7427(6) 0.3856(4) 0.6117(3)
H19 H 0.8554 0.3363 0.6596
H20 H 0.6260 0.3534 0.6830
H21 H 0.7528 0.4908 0.5694
O3 O 0.2701(4) 0.5901(2) 0.7392(2)
H15 H 0.2629 0.5178 0.8226
N3 N 0.2582(4) 0.5445(3) 0.6366(3)
C7 C 0.2668(4) 0.6506(3) 0.5064(3)
C8 C 0.2916(6) 0.8062(3) 0.4637(4)
H16 H 0.4286 0.8245 0.4489
H17 H 0.2381 0.8697 0.3735
H18 H 0.2242 0.8261 0.5410
C9 C 0.2573(6) 0.6144(4) 0.3883(3)
H19 H 0.1446 0.6637 0.3404
H20 H 0.3740 0.6466 0.3170
H21 H 0.2472 0.5092 0.4306

#END
