./ACEQAB_from_xyz.cif_generated_by_CrystalShift
_symmetry_cell_setting triclinic
_symmetry_space_group_name_H-M 'P 1'
loop_
_symmetry_equiv_pos_site_id
_symmetry_equiv_pos_as_xyz
1 x,y,z
_cell_length_a 7.592400
_cell_length_b 8.663900
_cell_length_c 21.719100
_cell_angle_alpha 90.000000
_cell_angle_beta 107.396000
_cell_angle_gamma 90.000000
_cell_volume 1363.331889
loop_
_atom_site_label
_atom_site_type_symbol
_atom_site_fract_x
_atom_site_fract_y
_atom_site_fract_z
C1 C 0.418520 0.320760 0.250630
C2 C 0.395070 0.320690 0.313680
C3 C 0.390480 0.182190 0.345900
C4 C 0.366680 0.182840 0.406580
C5 C 0.347520 0.323070 0.435410
C6 C 0.351510 0.462030 0.403220
C7 C 0.376300 0.461130 0.343120
C8 C 0.340570 0.200160 0.532900
H9 H 0.242900 0.127200 0.511400
H10 H 0.329000 0.226900 0.575400
H11 H 0.461400 0.152700 0.538200
H12 H 0.403100 0.082200 0.324200
H13 H 0.360600 0.084200 0.428600
H14 H 0.338300 0.557200 0.424300
H15 H 0.384800 0.559600 0.321100
N16 N 0.435020 0.322280 0.199620
O17 O 0.323730 0.336540 0.494690
C18 C 0.418520 0.179240 0.750630
C19 C 0.395070 0.179310 0.813680
C20 C 0.390480 0.317810 0.845900
C21 C 0.366680 0.317160 0.906580
C22 C 0.347520 0.176930 0.935410
C23 C 0.351510 0.037970 0.903220
C24 C 0.376300 0.038870 0.843120
C25 C 0.340570 0.299840 1.032900
H26 H 0.242900 0.372800 1.011400
H27 H 0.329000 0.273100 1.075400
H28 H 0.461400 0.347300 1.038200
H29 H 0.403100 0.417800 0.824200
H30 H 0.360600 0.415800 0.928600
H31 H 0.338300 -0.057200 0.924300
H32 H 0.384800 -0.059600 0.821100
N33 N 0.435020 0.177720 0.699620
O34 O 0.323730 0.163460 0.994690
C35 C 0.581480 0.679240 0.749370
C36 C 0.604930 0.679310 0.686320
C37 C 0.609520 0.817810 0.654100
C38 C 0.633320 0.817160 0.593420
C39 C 0.652480 0.676930 0.564590
C40 C 0.648490 0.537970 0.596780
C41 C 0.623700 0.538870 0.656880
C42 C 0.659430 0.799840 0.467100
H43 H 0.757100 0.872800 0.488600
H44 H 0.671000 0.773100 0.424600
H45 H 0.538600 0.847300 0.461800
H46 H 0.596900 0.917800 0.675800
H47 H 0.639400 0.915800 0.571400
H48 H 0.661700 0.442800 0.575700
H49 H 0.615200 0.440400 0.678900
N50 N 0.564980 0.677720 0.800380
O51 O 0.676270 0.663460 0.505310
C52 C 0.581480 0.820760 0.249370
C53 C 0.604930 0.820690 0.186320
C54 C 0.609520 0.682190 0.154100
C55 C 0.633320 0.682840 0.093420
C56 C 0.652480 0.823070 0.064590
C57 C 0.648490 0.962030 0.096780
C58 C 0.623700 0.961130 0.156880
C59 C 0.659430 0.700160 -0.032900
H60 H 0.757100 0.627200 -0.011400
H61 H 0.671000 0.726900 -0.075400
H62 H 0.538600 0.652700 -0.038200
H63 H 0.596900 0.582200 0.175800
H64 H 0.639400 0.584200 0.071400
H65 H 0.661700 1.057200 0.075700
H66 H 0.615200 1.059600 0.178900
N67 N 0.564980 0.822280 0.300380
O68 O 0.676270 0.836540 0.005310
C69 C 0.153650 0.716380 0.010460
C70 C 0.141310 0.772370 0.071270
C71 C 0.128770 0.669690 0.119390
C72 C 0.115220 0.724410 0.177810
C73 C 0.112360 0.882920 0.187980
C74 C 0.126060 0.985750 0.139960
C75 C 0.140570 0.931440 0.082290
C76 C 0.093680 0.848550 0.294890
H77 H -0.010000 0.776500 0.280400
H78 H 0.079500 0.910000 0.331000
H79 H 0.209600 0.790400 0.308900
H80 H 0.128100 0.558300 0.112600
H81 H 0.105900 0.652600 0.211000
H82 H 0.125300 1.093000 0.147600
H83 H 0.153200 1.001400 0.049400
N84 N 0.162090 0.672420 -0.038570
O85 O 0.096660 0.948930 0.242830
C86 C 0.153650 0.783620 0.510460
C87 C 0.141310 0.727630 0.571270
C88 C 0.128770 0.830310 0.619390
C89 C 0.115220 0.775590 0.677810
C90 C 0.112360 0.617080 0.687980
C91 C 0.126060 0.514250 0.639960
C92 C 0.140570 0.568560 0.582290
C93 C 0.093680 0.651450 0.794890
H94 H -0.010000 0.723500 0.780400
H95 H 0.079500 0.590000 0.831000
H96 H 0.209600 0.709600 0.808900
H97 H 0.128100 0.941700 0.612600
H98 H 0.105900 0.847400 0.711000
H99 H 0.125300 0.407000 0.647600
H100 H 0.153200 0.498600 0.549400
N101 N 0.162090 0.827580 0.461430
O102 O 0.096660 0.551070 0.742830
C103 C 0.846350 0.283620 0.989540
C104 C 0.858690 0.227630 0.928730
C105 C 0.871230 0.330310 0.880610
C106 C 0.884780 0.275590 0.822190
C107 C 0.887640 0.117080 0.812020
C108 C 0.873940 0.014250 0.860040
C109 C 0.859430 0.068560 0.917710
C110 C 0.906320 0.151450 0.705110
H111 H 1.010000 0.223500 0.719600
H112 H 0.920500 0.090000 0.669000
H113 H 0.790400 0.209600 0.691100
H114 H 0.871900 0.441700 0.887400
H115 H 0.894100 0.347400 0.789000
H116 H 0.874700 -0.093000 0.852400
H117 H 0.846800 -0.001400 0.950600
N118 N 0.837910 0.327580 1.038570
O119 O 0.903340 0.051070 0.757170
C120 C 0.846350 0.216380 0.489540
C121 C 0.858690 0.272370 0.428730
C122 C 0.871230 0.169690 0.380610
C123 C 0.884780 0.224410 0.322190
C124 C 0.887640 0.382920 0.312020
C125 C 0.873940 0.485750 0.360040
C126 C 0.859430 0.431440 0.417710
C127 C 0.906320 0.348550 0.205110
H128 H 1.010000 0.276500 0.219600
H129 H 0.920500 0.410000 0.169000
H130 H 0.790400 0.290400 0.191100
H131 H 0.871900 0.058300 0.387400
H132 H 0.894100 0.152600 0.289000
H133 H 0.874700 0.593000 0.352400
H134 H 0.846800 0.501400 0.450600
N135 N 0.837910 0.172420 0.538570
O136 O 0.903340 0.448930 0.257170

#END
