./ACETYL10_from_xyz.cif_generated_by_CrystalShift
_symmetry_cell_setting triclinic
_symmetry_space_group_name_H-M 'P 1'
loop_
_symmetry_equiv_pos_site_id
_symmetry_equiv_pos_as_xyz
1 x,y,z
_cell_length_a 6.102000
_cell_length_b 6.102000
_cell_length_c 6.102000
_cell_angle_alpha 90.000000
_cell_angle_beta 90.000000
_cell_angle_gamma 90.000000
_cell_volume 227.204333
loop_
_atom_site_label
_atom_site_type_symbol
_atom_site_fract_x
_atom_site_fract_y
_atom_site_fract_z
C1 C 0.053800 0.053800 0.053800
D2 D 0.151900 0.151900 0.151900
C3 C -0.053800 -0.053800 -0.053800
D4 D -0.151900 -0.151900 -0.151900
C5 C 0.053800 0.053800 1.053800
D6 D 0.151900 0.151900 1.151900
C7 C -0.053800 -0.053800 0.946200
D8 D -0.151900 -0.151900 0.848100
C9 C 0.053800 1.053800 0.053800
D10 D 0.151900 1.151900 0.151900
C11 C -0.053800 0.946200 -0.053800
D12 D -0.151900 0.848100 -0.151900
C13 C 0.053800 1.053800 1.053800
D14 D 0.151900 1.151900 1.151900
C15 C -0.053800 0.946200 0.946200
D16 D -0.151900 0.848100 0.848100
C17 C 1.053800 0.053800 0.053800
D18 D 1.151900 0.151900 0.151900
C19 C 0.946200 -0.053800 -0.053800
D20 D 0.848100 -0.151900 -0.151900
C21 C 1.053800 0.053800 1.053800
D22 D 1.151900 0.151900 1.151900
C23 C 0.946200 -0.053800 0.946200
D24 D 0.848100 -0.151900 0.848100
C25 C 1.053800 1.053800 0.053800
D26 D 1.151900 1.151900 0.151900
C27 C 0.946200 0.946200 -0.053800
D28 D 0.848100 0.848100 -0.151900
C29 C 1.053800 1.053800 1.053800
D30 D 1.151900 1.151900 1.151900
C31 C 0.946200 0.946200 0.946200
D32 D 0.848100 0.848100 0.848100
C33 C 0.553800 0.053800 0.446200
D34 D 0.651900 0.151900 0.348100
C35 C 0.446200 -0.053800 0.553800
D36 D 0.348100 -0.151900 0.651900
C37 C 0.553800 1.053800 0.446200
D38 D 0.651900 1.151900 0.348100
C39 C 0.446200 0.946200 0.553800
D40 D 0.348100 0.848100 0.651900
C41 C 0.446200 0.553800 0.053800
D42 D 0.348100 0.651900 0.151900
C43 C 0.553800 0.446200 -0.053800
D44 D 0.651900 0.348100 -0.151900
C45 C 0.446200 0.553800 1.053800
D46 D 0.348100 0.651900 1.151900
C47 C 0.553800 0.446200 0.946200
D48 D 0.651900 0.348100 0.848100
C49 C -0.053800 0.553800 0.446200
D50 D -0.151900 0.651900 0.348100
C51 C 0.053800 0.446200 0.553800
D52 D 0.151900 0.348100 0.651900
C53 C 0.946200 0.553800 0.446200
D54 D 0.848100 0.651900 0.348100
C55 C 1.053800 0.446200 0.553800
D56 D 1.151900 0.348100 0.651900

#END
