
#######################################################################
#
#                 Cambridge Crystallographic Data Centre
#                                CCDC 
#
#######################################################################
#
# If this CIF has been generated from an entry in the Cambridge 
# Structural Database, then it will include bibliographic, chemical, 
# crystal, experimental, refinement or atomic coordinate data resulting 
# from the CCDC's data processing and validation procedures.
#
#######################################################################

data_ACRLAC04
_symmetry_cell_setting           monoclinic
_symmetry_space_group_name_H-M   'P 21/c'
_symmetry_Int_Tables_number      14
_space_group_name_Hall           '-P 2ybc'
loop_
_symmetry_equiv_pos_site_id
_symmetry_equiv_pos_as_xyz
1 x,y,z
2 -x,1/2+y,1/2-z
3 -x,-y,-z
4 x,1/2-y,1/2+z
_cell_length_a                   5.1352(10)
_cell_length_b                   9.802(3)
_cell_length_c                   6.850(4)
_cell_angle_alpha                90
_cell_angle_beta                 97.28(3)
_cell_angle_gamma                90
_cell_volume                     342.017
loop_
_atom_site_label
_atom_site_type_symbol
_atom_site_fract_x
_atom_site_fract_y
_atom_site_fract_z
O1 O 0.7519(4) 0.5346(2) 0.1642(5)
C1 C 0.8047(6) 0.4142(4) 0.1398(8)
O2 O 0.6581(5) 0.3342(2) 0.0204(6)
C2 C 1.0403(7) 0.3485(3) 0.2423(9)
C3 C 1.2167(7) 0.4168(4) 0.3551(9)
H1 H 1.0628 0.2556 0.2247
H2 H 1.3673 0.3747 0.4196
H3 H 1.1961 0.5091 0.3731
H4 H 0.5207 0.3764 -0.0340
O1 O 0.2481(4) 1.0346(2) 0.3358(5)
C1 C 0.1953(6) 0.9142(4) 0.3602(8)
O2 O 0.3419(5) 0.8342(2) 0.4796(6)
C2 C -0.0403(7) 0.8485(3) 0.2577(9)
C3 C -0.2167(7) 0.9168(4) 0.1449(9)
H1 H -0.0628 0.7556 0.2753
H2 H -0.3673 0.8747 0.0804
H3 H -0.1961 1.0091 0.1269
H4 H 0.4793 0.8764 0.5340
O1 O 0.2481(4) 0.4654(2) 0.8358(5)
C1 C 0.1953(6) 0.5858(4) 0.8602(8)
O2 O 0.3419(5) 0.6658(2) 0.9796(6)
C2 C -0.0403(7) 0.6515(3) 0.7577(9)
C3 C -0.2167(7) 0.5832(4) 0.6449(9)
H1 H -0.0628 0.7444 0.7753
H2 H -0.3673 0.6253 0.5804
H3 H -0.1961 0.4909 0.6269
H4 H 0.4793 0.6236 1.0340
O1 O 0.7519(4) -0.0346(2) 0.6642(5)
C1 C 0.8047(6) 0.0858(4) 0.6398(8)
O2 O 0.6581(5) 0.1658(2) 0.5204(6)
C2 C 1.0403(7) 0.1515(3) 0.7423(9)
C3 C 1.2167(7) 0.0832(4) 0.8551(9)
H1 H 1.0628 0.2444 0.7247
H2 H 1.3673 0.1253 0.9196
H3 H 1.1961 -0.0091 0.8731
H4 H 0.5207 0.1236 0.4660

#END
