./ACRLAC_from_xyz.cif_generated_by_CrystalShift
_symmetry_cell_setting triclinic
_symmetry_space_group_name_H-M 'P 1'
loop_
_symmetry_equiv_pos_site_id
_symmetry_equiv_pos_as_xyz
1 x,y,z
_cell_length_a 9.966000
_cell_length_b 11.744000
_cell_length_c 6.306000
_cell_angle_alpha 90.000000
_cell_angle_beta 90.000000
_cell_angle_gamma 90.000000
_cell_volume 738.058679
loop_
_atom_site_label
_atom_site_type_symbol
_atom_site_fract_x
_atom_site_fract_y
_atom_site_fract_z
C1 C 0.085400 0.148700 0.000000
C2 C 0.149200 0.261500 0.000000
C3 C 0.076500 0.353800 0.000000
H4 H 0.113000 -0.004000 0.000000
H5 H 0.256000 0.258000 0.000000
H6 H 0.130000 0.442000 0.000000
H7 H -0.014000 0.347000 0.000000
O8 O 0.165500 0.063500 0.000000
O9 O -0.040200 0.136200 0.000000
C10 C 0.085400 0.148700 1.000000
C11 C 0.149200 0.261500 1.000000
C12 C 0.076500 0.353800 1.000000
H13 H 0.113000 -0.004000 1.000000
H14 H 0.256000 0.258000 1.000000
H15 H 0.130000 0.442000 1.000000
H16 H -0.014000 0.347000 1.000000
O17 O 0.165500 0.063500 1.000000
O18 O -0.040200 0.136200 1.000000
C19 C 0.585400 0.648700 0.500000
C20 C 0.649200 0.761500 0.500000
C21 C 0.576500 0.853800 0.500000
H22 H 0.613000 0.496000 0.500000
H23 H 0.756000 0.758000 0.500000
H24 H 0.630000 0.942000 0.500000
H25 H 0.486000 0.847000 0.500000
O26 O 0.665500 0.563500 0.500000
O27 O 0.459800 0.636200 0.500000
C28 C 0.914600 0.851300 0.000000
C29 C 0.850800 0.738500 0.000000
C30 C 0.923500 0.646200 0.000000
H31 H 0.887000 1.004000 0.000000
H32 H 0.744000 0.742000 0.000000
H33 H 0.870000 0.558000 0.000000
H34 H 1.014000 0.653000 0.000000
O35 O 0.834500 0.936500 0.000000
O36 O 1.040200 0.863800 0.000000
C37 C 0.914600 0.851300 1.000000
C38 C 0.850800 0.738500 1.000000
C39 C 0.923500 0.646200 1.000000
H40 H 0.887000 1.004000 1.000000
H41 H 0.744000 0.742000 1.000000
H42 H 0.870000 0.558000 1.000000
H43 H 1.014000 0.653000 1.000000
O44 O 0.834500 0.936500 1.000000
O45 O 1.040200 0.863800 1.000000
C46 C 0.414600 0.351300 0.500000
C47 C 0.350800 0.238500 0.500000
C48 C 0.423500 0.146200 0.500000
H49 H 0.387000 0.504000 0.500000
H50 H 0.244000 0.242000 0.500000
H51 H 0.370000 0.058000 0.500000
H52 H 0.514000 0.153000 0.500000
O53 O 0.334500 0.436500 0.500000
O54 O 0.540200 0.363800 0.500000
C55 C 0.585400 0.351300 0.000000
C56 C 0.649200 0.238500 0.000000
C57 C 0.576500 0.146200 0.000000
H58 H 0.613000 0.504000 0.000000
H59 H 0.756000 0.242000 0.000000
H60 H 0.630000 0.058000 0.000000
H61 H 0.486000 0.153000 0.000000
O62 O 0.665500 0.436500 0.000000
O63 O 0.459800 0.363800 0.000000
C64 C 0.585400 0.351300 1.000000
C65 C 0.649200 0.238500 1.000000
C66 C 0.576500 0.146200 1.000000
H67 H 0.613000 0.504000 1.000000
H68 H 0.756000 0.242000 1.000000
H69 H 0.630000 0.058000 1.000000
H70 H 0.486000 0.153000 1.000000
O71 O 0.665500 0.436500 1.000000
O72 O 0.459800 0.363800 1.000000
C73 C 0.085400 0.851300 0.500000
C74 C 0.149200 0.738500 0.500000
C75 C 0.076500 0.646200 0.500000
H76 H 0.113000 1.004000 0.500000
H77 H 0.256000 0.742000 0.500000
H78 H 0.130000 0.558000 0.500000
H79 H -0.014000 0.653000 0.500000
O80 O 0.165500 0.936500 0.500000
O81 O -0.040200 0.863800 0.500000
C82 C 0.414600 0.648700 0.000000
C83 C 0.350800 0.761500 0.000000
C84 C 0.423500 0.853800 0.000000
H85 H 0.387000 0.496000 0.000000
H86 H 0.244000 0.758000 0.000000
H87 H 0.370000 0.942000 0.000000
H88 H 0.514000 0.847000 0.000000
O89 O 0.334500 0.563500 0.000000
O90 O 0.540200 0.636200 0.000000
C91 C 0.414600 0.648700 1.000000
C92 C 0.350800 0.761500 1.000000
C93 C 0.423500 0.853800 1.000000
H94 H 0.387000 0.496000 1.000000
H95 H 0.244000 0.758000 1.000000
H96 H 0.370000 0.942000 1.000000
H97 H 0.514000 0.847000 1.000000
O98 O 0.334500 0.563500 1.000000
O99 O 0.540200 0.636200 1.000000
C100 C 0.914600 0.148700 0.500000
C101 C 0.850800 0.261500 0.500000
C102 C 0.923500 0.353800 0.500000
H103 H 0.887000 -0.004000 0.500000
H104 H 0.744000 0.258000 0.500000
H105 H 0.870000 0.442000 0.500000
H106 H 1.014000 0.347000 0.500000
O107 O 0.834500 0.063500 0.500000
O108 O 1.040200 0.136200 0.500000

#END
