./ACRLAC04_from_xyz.cif_generated_by_CrystalShift
_symmetry_cell_setting triclinic
_symmetry_space_group_name_H-M 'P 1'
loop_
_symmetry_equiv_pos_site_id
_symmetry_equiv_pos_as_xyz
1 x,y,z
_cell_length_a 5.135200
_cell_length_b 9.802000
_cell_length_c 6.850000
_cell_angle_alpha 90.000000
_cell_angle_beta 97.280000
_cell_angle_gamma 90.000000
_cell_volume 342.016817
loop_
_atom_site_label
_atom_site_type_symbol
_atom_site_fract_x
_atom_site_fract_y
_atom_site_fract_z
O1 O 0.751900 0.534600 0.164200
C2 C 0.804700 0.414200 0.139800
O3 O 0.658100 0.334200 0.020400
C4 C 1.040300 0.348500 0.242300
C5 C 1.216700 0.416800 0.355100
H6 H 1.062800 0.255600 0.224700
H7 H 1.367300 0.374700 0.419600
H8 H 1.196100 0.509100 0.373100
H9 H 0.520700 0.376400 -0.034000
O10 O 0.248100 1.034600 0.335800
C11 C 0.195300 0.914200 0.360200
O12 O 0.341900 0.834200 0.479600
C13 C -0.040300 0.848500 0.257700
C14 C -0.216700 0.916800 0.144900
H15 H -0.062800 0.755600 0.275300
H16 H -0.367300 0.874700 0.080400
H17 H -0.196100 1.009100 0.126900
H18 H 0.479300 0.876400 0.534000
O19 O 0.248100 0.465400 0.835800
C20 C 0.195300 0.585800 0.860200
O21 O 0.341900 0.665800 0.979600
C22 C -0.040300 0.651500 0.757700
C23 C -0.216700 0.583200 0.644900
H24 H -0.062800 0.744400 0.775300
H25 H -0.367300 0.625300 0.580400
H26 H -0.196100 0.490900 0.626900
H27 H 0.479300 0.623600 1.034000
O28 O 0.751900 -0.034600 0.664200
C29 C 0.804700 0.085800 0.639800
O30 O 0.658100 0.165800 0.520400
C31 C 1.040300 0.151500 0.742300
C32 C 1.216700 0.083200 0.855100
H33 H 1.062800 0.244400 0.724700
H34 H 1.367300 0.125300 0.919600
H35 H 1.196100 -0.009100 0.873100
H36 H 0.520700 0.123600 0.466000

#END
