./ACROLD_from_xyz.cif_generated_by_CrystalShift
_symmetry_cell_setting triclinic
_symmetry_space_group_name_H-M 'P 1'
loop_
_symmetry_equiv_pos_site_id
_symmetry_equiv_pos_as_xyz
1 x,y,z
_cell_length_a 12.896000
_cell_length_b 12.896000
_cell_length_c 13.773000
_cell_angle_alpha 90.000000
_cell_angle_beta 90.000000
_cell_angle_gamma 90.000000
_cell_volume 2290.543777
loop_
_atom_site_label
_atom_site_type_symbol
_atom_site_fract_x
_atom_site_fract_y
_atom_site_fract_z
O1 O 0.913600 0.995900 0.578400
O2 O 0.894500 0.823400 0.589700
O3 O 0.731400 1.243700 0.399300
O4 O 0.436800 1.120500 0.512900
O5 O 0.278900 1.069100 0.558300
O6 O 0.382400 0.796200 0.612200
O7 O 0.324700 0.649100 0.552800
O8 O 0.550900 0.790400 0.426900
O9 O 0.563800 0.876700 0.286900
C10 C 0.734900 0.994600 0.631200
C11 C 0.805000 1.004900 0.546000
C12 C 0.801000 1.112900 0.500300
C13 C 0.716400 1.136400 0.425500
C14 C 0.606500 1.139300 0.463600
C15 C 0.531500 1.072300 0.484900
C16 C 0.512600 0.961400 0.490100
C17 C 0.594700 0.880000 0.476600
C18 C 0.637200 0.839400 0.572600
C19 C 0.661000 0.924100 0.645100
C20 C 0.412600 0.946000 0.514600
C21 C 0.365200 1.047100 0.531700
C22 C 0.349800 0.849500 0.525300
C23 C 0.596200 0.925900 0.735200
C24 C 0.728600 1.071600 0.332800
C25 C 0.948000 0.898800 0.596300
C26 C 1.059800 0.898500 0.622400
C27 C 0.362800 0.694600 0.618700
C28 C 0.395700 0.649500 0.711500
C29 C 0.538100 0.800400 0.330400
C30 C 0.485200 0.711900 0.284500
C31 C 0.455200 0.629100 0.335500
C32 C 0.462900 0.722900 0.181800
H33 H 0.793000 1.252000 0.371000
H34 H 0.743000 1.047000 0.684000
H35 H 0.789000 0.950000 0.496000
H36 H 0.791000 1.164000 0.554000
H37 H 0.869000 1.126000 0.468000
H38 H 0.582000 1.213000 0.476000
H39 H 0.653000 0.908000 0.437000
H40 H 0.584000 0.792000 0.602000
H41 H 0.702000 0.799000 0.559000
H42 H 0.275000 0.866000 0.528000
H43 H 0.363000 0.803000 0.467000
H44 H 0.618000 0.985000 0.777000
H45 H 0.603000 0.859000 0.770000
H46 H 0.521000 0.936000 0.716000
H47 H 0.800000 1.080000 0.305000
H48 H 0.676000 1.094000 0.283000
H49 H 0.716000 0.996000 0.348000
H50 H 1.083000 0.827000 0.635000
H51 H 1.069000 0.942000 0.682000
H52 H 1.101000 0.930000 0.568000
H53 H 0.379000 0.573000 0.712000
H54 H 0.359000 0.684000 0.766000
H55 H 0.472000 0.659000 0.719000
H56 H 0.469000 0.626000 0.406000
H57 H 0.417000 0.572000 0.302000
H58 H 0.431000 0.658000 0.156000
H59 H 0.535000 0.730000 0.146000
H60 H 0.422000 0.784000 0.168000
O61 O 0.004100 0.913600 0.328400
O62 O 0.176600 0.894500 0.339700
O63 O -0.243700 0.731400 0.149300
O64 O -0.120500 0.436800 0.262900
O65 O -0.069100 0.278900 0.308300
O66 O 0.203800 0.382400 0.362200
O67 O 0.350900 0.324700 0.302800
O68 O 0.209600 0.550900 0.176900
O69 O 0.123300 0.563800 0.036900
C70 C 0.005400 0.734900 0.381200
C71 C -0.004900 0.805000 0.296000
C72 C -0.112900 0.801000 0.250300
C73 C -0.136400 0.716400 0.175500
C74 C -0.139300 0.606500 0.213600
C75 C -0.072300 0.531500 0.234900
C76 C 0.038600 0.512600 0.240100
C77 C 0.120000 0.594700 0.226600
C78 C 0.160600 0.637200 0.322600
C79 C 0.075900 0.661000 0.395100
C80 C 0.054000 0.412600 0.264600
C81 C -0.047100 0.365200 0.281700
C82 C 0.150500 0.349800 0.275300
C83 C 0.074100 0.596200 0.485200
C84 C -0.071600 0.728600 0.082800
C85 C 0.101200 0.948000 0.346300
C86 C 0.101500 1.059800 0.372400
C87 C 0.305400 0.362800 0.368700
C88 C 0.350500 0.395700 0.461500
C89 C 0.199600 0.538100 0.080400
C90 C 0.288100 0.485200 0.034500
C91 C 0.370900 0.455200 0.085500
C92 C 0.277100 0.462900 -0.068200
H93 H -0.252000 0.793000 0.121000
H94 H -0.047000 0.743000 0.434000
H95 H 0.050000 0.789000 0.246000
H96 H -0.164000 0.791000 0.304000
H97 H -0.126000 0.869000 0.218000
H98 H -0.213000 0.582000 0.226000
H99 H 0.092000 0.653000 0.187000
H100 H 0.208000 0.584000 0.352000
H101 H 0.201000 0.702000 0.309000
H102 H 0.134000 0.275000 0.278000
H103 H 0.197000 0.363000 0.217000
H104 H 0.015000 0.618000 0.527000
H105 H 0.141000 0.603000 0.520000
H106 H 0.064000 0.521000 0.466000
H107 H -0.080000 0.800000 0.055000
H108 H -0.094000 0.676000 0.033000
H109 H 0.004000 0.716000 0.098000
H110 H 0.173000 1.083000 0.385000
H111 H 0.058000 1.069000 0.432000
H112 H 0.070000 1.101000 0.318000
H113 H 0.427000 0.379000 0.462000
H114 H 0.316000 0.359000 0.516000
H115 H 0.341000 0.472000 0.469000
H116 H 0.374000 0.469000 0.156000
H117 H 0.428000 0.417000 0.052000
H118 H 0.342000 0.431000 -0.094000
H119 H 0.270000 0.535000 -0.104000
H120 H 0.216000 0.422000 -0.082000
O121 O 0.086400 0.004100 0.078400
O122 O 0.105500 0.176600 0.089700
O123 O 0.268600 -0.243700 -0.100700
O124 O 0.563200 -0.120500 0.012900
O125 O 0.721100 -0.069100 0.058300
O126 O 0.617600 0.203800 0.112200
O127 O 0.675300 0.350900 0.052800
O128 O 0.449100 0.209600 -0.073100
O129 O 0.436200 0.123300 -0.213100
C130 C 0.265100 0.005400 0.131200
C131 C 0.195000 -0.004900 0.046000
C132 C 0.199000 -0.112900 0.000300
C133 C 0.283600 -0.136400 -0.074500
C134 C 0.393500 -0.139300 -0.036400
C135 C 0.468500 -0.072300 -0.015100
C136 C 0.487400 0.038600 -0.009900
C137 C 0.405300 0.120000 -0.023400
C138 C 0.362800 0.160600 0.072600
C139 C 0.339000 0.075900 0.145100
C140 C 0.587400 0.054000 0.014600
C141 C 0.634800 -0.047100 0.031700
C142 C 0.650200 0.150500 0.025300
C143 C 0.403800 0.074100 0.235200
C144 C 0.271400 -0.071600 -0.167200
C145 C 0.052000 0.101200 0.096300
C146 C -0.059800 0.101500 0.122400
C147 C 0.637200 0.305400 0.118700
C148 C 0.604300 0.350500 0.211500
C149 C 0.461900 0.199600 -0.169600
C150 C 0.514800 0.288100 -0.215500
C151 C 0.544800 0.370900 -0.164500
C152 C 0.537100 0.277100 -0.318200
H153 H 0.207000 -0.252000 -0.129000
H154 H 0.257000 -0.047000 0.184000
H155 H 0.211000 0.050000 -0.004000
H156 H 0.209000 -0.164000 0.054000
H157 H 0.131000 -0.126000 -0.032000
H158 H 0.418000 -0.213000 -0.024000
H159 H 0.347000 0.092000 -0.063000
H160 H 0.416000 0.208000 0.102000
H161 H 0.298000 0.201000 0.059000
H162 H 0.725000 0.134000 0.028000
H163 H 0.637000 0.197000 -0.033000
H164 H 0.382000 0.015000 0.277000
H165 H 0.397000 0.141000 0.270000
H166 H 0.479000 0.064000 0.216000
H167 H 0.200000 -0.080000 -0.195000
H168 H 0.324000 -0.094000 -0.217000
H169 H 0.284000 0.004000 -0.152000
H170 H -0.083000 0.173000 0.135000
H171 H -0.069000 0.058000 0.182000
H172 H -0.101000 0.070000 0.068000
H173 H 0.621000 0.427000 0.212000
H174 H 0.641000 0.316000 0.266000
H175 H 0.528000 0.341000 0.219000
H176 H 0.531000 0.374000 -0.094000
H177 H 0.583000 0.428000 -0.198000
H178 H 0.569000 0.342000 -0.344000
H179 H 0.465000 0.270000 -0.354000
H180 H 0.578000 0.216000 -0.332000
O181 O 0.995900 0.086400 0.828400
O182 O 0.823400 0.105500 0.839700
O183 O 1.243700 0.268600 0.649300
O184 O 1.120500 0.563200 0.762900
O185 O 1.069100 0.721100 0.808300
O186 O 0.796200 0.617600 0.862200
O187 O 0.649100 0.675300 0.802800
O188 O 0.790400 0.449100 0.676900
O189 O 0.876700 0.436200 0.536900
C190 C 0.994600 0.265100 0.881200
C191 C 1.004900 0.195000 0.796000
C192 C 1.112900 0.199000 0.750300
C193 C 1.136400 0.283600 0.675500
C194 C 1.139300 0.393500 0.713600
C195 C 1.072300 0.468500 0.734900
C196 C 0.961400 0.487400 0.740100
C197 C 0.880000 0.405300 0.726600
C198 C 0.839400 0.362800 0.822600
C199 C 0.924100 0.339000 0.895100
C200 C 0.946000 0.587400 0.764600
C201 C 1.047100 0.634800 0.781700
C202 C 0.849500 0.650200 0.775300
C203 C 0.925900 0.403800 0.985200
C204 C 1.071600 0.271400 0.582800
C205 C 0.898800 0.052000 0.846300
C206 C 0.898500 -0.059800 0.872400
C207 C 0.694600 0.637200 0.868700
C208 C 0.649500 0.604300 0.961500
C209 C 0.800400 0.461900 0.580400
C210 C 0.711900 0.514800 0.534500
C211 C 0.629100 0.544800 0.585500
C212 C 0.722900 0.537100 0.431800
H213 H 1.252000 0.207000 0.621000
H214 H 1.047000 0.257000 0.934000
H215 H 0.950000 0.211000 0.746000
H216 H 1.164000 0.209000 0.804000
H217 H 1.126000 0.131000 0.718000
H218 H 1.213000 0.418000 0.726000
H219 H 0.908000 0.347000 0.687000
H220 H 0.792000 0.416000 0.852000
H221 H 0.799000 0.298000 0.809000
H222 H 0.866000 0.725000 0.778000
H223 H 0.803000 0.637000 0.717000
H224 H 0.985000 0.382000 1.027000
H225 H 0.859000 0.397000 1.020000
H226 H 0.936000 0.479000 0.966000
H227 H 1.080000 0.200000 0.555000
H228 H 1.094000 0.324000 0.533000
H229 H 0.996000 0.284000 0.598000
H230 H 0.827000 -0.083000 0.885000
H231 H 0.942000 -0.069000 0.932000
H232 H 0.930000 -0.101000 0.818000
H233 H 0.573000 0.621000 0.962000
H234 H 0.684000 0.641000 1.016000
H235 H 0.659000 0.528000 0.969000
H236 H 0.626000 0.531000 0.656000
H237 H 0.572000 0.583000 0.552000
H238 H 0.658000 0.569000 0.406000
H239 H 0.730000 0.465000 0.396000
H240 H 0.784000 0.578000 0.418000

#END
