./ACRTMA_from_xyz.cif_generated_by_CrystalShift
_symmetry_cell_setting triclinic
_symmetry_space_group_name_H-M 'P 1'
loop_
_symmetry_equiv_pos_site_id
_symmetry_equiv_pos_as_xyz
1 x,y,z
_cell_length_a 7.334000
_cell_length_b 18.620000
_cell_length_c 8.426000
_cell_angle_alpha 90.000000
_cell_angle_beta 125.770000
_cell_angle_gamma 90.000000
_cell_volume 933.600353
loop_
_atom_site_label
_atom_site_type_symbol
_atom_site_fract_x
_atom_site_fract_y
_atom_site_fract_z
S1 S 0.752200 0.185900 0.115200
C2 C 0.630200 -0.015900 0.204900
C3 C 0.642500 0.049900 0.135800
C4 C 0.787700 0.110200 0.262500
C5 C 0.556000 0.138900 -0.106400
C6 C 0.515300 0.065300 -0.063500
O7 O 0.915000 0.109600 0.437200
O8 O 0.473600 0.163600 -0.268200
H9 H 0.723000 -0.033000 0.358000
S10 S 0.247800 -0.185900 -0.115200
C11 C 0.369800 0.015900 -0.204900
C12 C 0.357500 -0.049900 -0.135800
C13 C 0.212300 -0.110200 -0.262500
C14 C 0.444000 -0.138900 0.106400
C15 C 0.484700 -0.065300 0.063500
O16 O 0.085000 -0.109600 -0.437200
O17 O 0.526400 -0.163600 0.268200
H18 H 0.277000 0.033000 -0.358000
S19 S 0.752200 0.185900 1.115200
C20 C 0.630200 -0.015900 1.204900
C21 C 0.642500 0.049900 1.135800
C22 C 0.787700 0.110200 1.262500
C23 C 0.556000 0.138900 0.893600
C24 C 0.515300 0.065300 0.936500
O25 O 0.915000 0.109600 1.437200
O26 O 0.473600 0.163600 0.731800
H27 H 0.723000 -0.033000 1.358000
S28 S 0.247800 -0.185900 0.884800
C29 C 0.369800 0.015900 0.795100
C30 C 0.357500 -0.049900 0.864200
C31 C 0.212300 -0.110200 0.737500
C32 C 0.444000 -0.138900 1.106400
C33 C 0.484700 -0.065300 1.063500
O34 O 0.085000 -0.109600 0.562800
O35 O 0.526400 -0.163600 1.268200
H36 H 0.277000 0.033000 0.642000
S37 S 0.752200 1.185900 0.115200
C38 C 0.630200 0.984100 0.204900
C39 C 0.642500 1.049900 0.135800
C40 C 0.787700 1.110200 0.262500
C41 C 0.556000 1.138900 -0.106400
C42 C 0.515300 1.065300 -0.063500
O43 O 0.915000 1.109600 0.437200
O44 O 0.473600 1.163600 -0.268200
H45 H 0.723000 0.967000 0.358000
S46 S 0.247800 0.814100 -0.115200
C47 C 0.369800 1.015900 -0.204900
C48 C 0.357500 0.950100 -0.135800
C49 C 0.212300 0.889800 -0.262500
C50 C 0.444000 0.861100 0.106400
C51 C 0.484700 0.934700 0.063500
O52 O 0.085000 0.890400 -0.437200
O53 O 0.526400 0.836400 0.268200
H54 H 0.277000 1.033000 -0.358000
S55 S 0.752200 1.185900 1.115200
C56 C 0.630200 0.984100 1.204900
C57 C 0.642500 1.049900 1.135800
C58 C 0.787700 1.110200 1.262500
C59 C 0.556000 1.138900 0.893600
C60 C 0.515300 1.065300 0.936500
O61 O 0.915000 1.109600 1.437200
O62 O 0.473600 1.163600 0.731800
H63 H 0.723000 0.967000 1.358000
S64 S 0.247800 0.814100 0.884800
C65 C 0.369800 1.015900 0.795100
C66 C 0.357500 0.950100 0.864200
C67 C 0.212300 0.889800 0.737500
C68 C 0.444000 0.861100 1.106400
C69 C 0.484700 0.934700 1.063500
O70 O 0.085000 0.890400 0.562800
O71 O 0.526400 0.836400 1.268200
H72 H 0.277000 1.033000 0.642000
S73 S 0.247800 0.685900 0.384800
C74 C 0.369800 0.484100 0.295100
C75 C 0.357500 0.549900 0.364200
C76 C 0.212300 0.610200 0.237500
C77 C 0.444000 0.638900 0.606400
C78 C 0.484700 0.565300 0.563500
O79 O 0.085000 0.609600 0.062800
O80 O 0.526400 0.663600 0.768200
H81 H 0.277000 0.467000 0.142000
S82 S 0.752200 0.314100 0.615200
C83 C 0.630200 0.515900 0.704900
C84 C 0.642500 0.450100 0.635800
C85 C 0.787700 0.389800 0.762500
C86 C 0.556000 0.361100 0.393600
C87 C 0.515300 0.434700 0.436500
O88 O 0.915000 0.390400 0.937200
O89 O 0.473600 0.336400 0.231800
H90 H 0.723000 0.533000 0.858000
C91 C 0.130100 -0.018100 0.203200
C92 C 0.148800 0.047100 0.143600
C93 C 0.301200 0.098200 0.289500
C94 C 0.321200 0.164500 0.232500
C95 C 0.190800 0.184700 0.030600
C96 C 0.045700 0.136900 -0.111200
C97 C -0.020300 -0.067000 0.056800
H98 H 0.388000 0.082000 0.443000
H99 H 0.445000 0.202000 0.357000
H100 H 0.234000 0.240000 0.004000
H101 H -0.024000 0.157000 -0.247000
C102 C -0.130100 0.018100 -0.203200
C103 C -0.148800 -0.047100 -0.143600
C104 C -0.301200 -0.098200 -0.289500
C105 C -0.321200 -0.164500 -0.232500
C106 C -0.190800 -0.184700 -0.030600
C107 C -0.045700 -0.136900 0.111200
C108 C 0.020300 0.067000 -0.056800
H109 H -0.388000 -0.082000 -0.443000
H110 H -0.445000 -0.202000 -0.357000
H111 H -0.234000 -0.240000 -0.004000
H112 H 0.024000 -0.157000 0.247000
C113 C 0.130100 -0.018100 1.203200
C114 C 0.148800 0.047100 1.143600
C115 C 0.301200 0.098200 1.289500
C116 C 0.321200 0.164500 1.232500
C117 C 0.190800 0.184700 1.030600
C118 C 0.045700 0.136900 0.888800
C119 C -0.020300 -0.067000 1.056800
H120 H 0.388000 0.082000 1.443000
H121 H 0.445000 0.202000 1.357000
H122 H 0.234000 0.240000 1.004000
H123 H -0.024000 0.157000 0.753000
C124 C -0.130100 0.018100 0.796800
C125 C -0.148800 -0.047100 0.856400
C126 C -0.301200 -0.098200 0.710500
C127 C -0.321200 -0.164500 0.767500
C128 C -0.190800 -0.184700 0.969400
C129 C -0.045700 -0.136900 1.111200
C130 C 0.020300 0.067000 0.943200
H131 H -0.388000 -0.082000 0.557000
H132 H -0.445000 -0.202000 0.643000
H133 H -0.234000 -0.240000 0.996000
H134 H 0.024000 -0.157000 1.247000
C135 C 0.130100 0.981900 0.203200
C136 C 0.148800 1.047100 0.143600
C137 C 0.301200 1.098200 0.289500
C138 C 0.321200 1.164500 0.232500
C139 C 0.190800 1.184700 0.030600
C140 C 0.045700 1.136900 -0.111200
C141 C -0.020300 0.933000 0.056800
H142 H 0.388000 1.082000 0.443000
H143 H 0.445000 1.202000 0.357000
H144 H 0.234000 1.240000 0.004000
H145 H -0.024000 1.157000 -0.247000
C146 C -0.130100 1.018100 -0.203200
C147 C -0.148800 0.952900 -0.143600
C148 C -0.301200 0.901800 -0.289500
C149 C -0.321200 0.835500 -0.232500
C150 C -0.190800 0.815300 -0.030600
C151 C -0.045700 0.863100 0.111200
C152 C 0.020300 1.067000 -0.056800
H153 H -0.388000 0.918000 -0.443000
H154 H -0.445000 0.798000 -0.357000
H155 H -0.234000 0.760000 -0.004000
H156 H 0.024000 0.843000 0.247000
C157 C 0.130100 0.981900 1.203200
C158 C 0.148800 1.047100 1.143600
C159 C 0.301200 1.098200 1.289500
C160 C 0.321200 1.164500 1.232500
C161 C 0.190800 1.184700 1.030600
C162 C 0.045700 1.136900 0.888800
C163 C -0.020300 0.933000 1.056800
H164 H 0.388000 1.082000 1.443000
H165 H 0.445000 1.202000 1.357000
H166 H 0.234000 1.240000 1.004000
H167 H -0.024000 1.157000 0.753000
C168 C -0.130100 1.018100 0.796800
C169 C -0.148800 0.952900 0.856400
C170 C -0.301200 0.901800 0.710500
C171 C -0.321200 0.835500 0.767500
C172 C -0.190800 0.815300 0.969400
C173 C -0.045700 0.863100 1.111200
C174 C 0.020300 1.067000 0.943200
H175 H -0.388000 0.918000 0.557000
H176 H -0.445000 0.798000 0.643000
H177 H -0.234000 0.760000 0.996000
H178 H 0.024000 0.843000 1.247000
C179 C 1.130100 -0.018100 0.203200
C180 C 1.148800 0.047100 0.143600
C181 C 1.301200 0.098200 0.289500
C182 C 1.321200 0.164500 0.232500
C183 C 1.190800 0.184700 0.030600
C184 C 1.045700 0.136900 -0.111200
C185 C 0.979700 -0.067000 0.056800
H186 H 1.388000 0.082000 0.443000
H187 H 1.445000 0.202000 0.357000
H188 H 1.234000 0.240000 0.004000
H189 H 0.976000 0.157000 -0.247000
C190 C 0.869900 0.018100 -0.203200
C191 C 0.851200 -0.047100 -0.143600
C192 C 0.698800 -0.098200 -0.289500
C193 C 0.678800 -0.164500 -0.232500
C194 C 0.809200 -0.184700 -0.030600
C195 C 0.954300 -0.136900 0.111200
C196 C 1.020300 0.067000 -0.056800
H197 H 0.612000 -0.082000 -0.443000
H198 H 0.555000 -0.202000 -0.357000
H199 H 0.766000 -0.240000 -0.004000
H200 H 1.024000 -0.157000 0.247000
C201 C 1.130100 -0.018100 1.203200
C202 C 1.148800 0.047100 1.143600
C203 C 1.301200 0.098200 1.289500
C204 C 1.321200 0.164500 1.232500
C205 C 1.190800 0.184700 1.030600
C206 C 1.045700 0.136900 0.888800
C207 C 0.979700 -0.067000 1.056800
H208 H 1.388000 0.082000 1.443000
H209 H 1.445000 0.202000 1.357000
H210 H 1.234000 0.240000 1.004000
H211 H 0.976000 0.157000 0.753000
C212 C 0.869900 0.018100 0.796800
C213 C 0.851200 -0.047100 0.856400
C214 C 0.698800 -0.098200 0.710500
C215 C 0.678800 -0.164500 0.767500
C216 C 0.809200 -0.184700 0.969400
C217 C 0.954300 -0.136900 1.111200
C218 C 1.020300 0.067000 0.943200
H219 H 0.612000 -0.082000 0.557000
H220 H 0.555000 -0.202000 0.643000
H221 H 0.766000 -0.240000 0.996000
H222 H 1.024000 -0.157000 1.247000
C223 C 1.130100 0.981900 0.203200
C224 C 1.148800 1.047100 0.143600
C225 C 1.301200 1.098200 0.289500
C226 C 1.321200 1.164500 0.232500
C227 C 1.190800 1.184700 0.030600
C228 C 1.045700 1.136900 -0.111200
C229 C 0.979700 0.933000 0.056800
H230 H 1.388000 1.082000 0.443000
H231 H 1.445000 1.202000 0.357000
H232 H 1.234000 1.240000 0.004000
H233 H 0.976000 1.157000 -0.247000
C234 C 0.869900 1.018100 -0.203200
C235 C 0.851200 0.952900 -0.143600
C236 C 0.698800 0.901800 -0.289500
C237 C 0.678800 0.835500 -0.232500
C238 C 0.809200 0.815300 -0.030600
C239 C 0.954300 0.863100 0.111200
C240 C 1.020300 1.067000 -0.056800
H241 H 0.612000 0.918000 -0.443000
H242 H 0.555000 0.798000 -0.357000
H243 H 0.766000 0.760000 -0.004000
H244 H 1.024000 0.843000 0.247000
C245 C 1.130100 0.981900 1.203200
C246 C 1.148800 1.047100 1.143600
C247 C 1.301200 1.098200 1.289500
C248 C 1.321200 1.164500 1.232500
C249 C 1.190800 1.184700 1.030600
C250 C 1.045700 1.136900 0.888800
C251 C 0.979700 0.933000 1.056800
H252 H 1.388000 1.082000 1.443000
H253 H 1.445000 1.202000 1.357000
H254 H 1.234000 1.240000 1.004000
H255 H 0.976000 1.157000 0.753000
C256 C 0.869900 1.018100 0.796800
C257 C 0.851200 0.952900 0.856400
C258 C 0.698800 0.901800 0.710500
C259 C 0.678800 0.835500 0.767500
C260 C 0.809200 0.815300 0.969400
C261 C 0.954300 0.863100 1.111200
C262 C 1.020300 1.067000 0.943200
H263 H 0.612000 0.918000 0.557000
H264 H 0.555000 0.798000 0.643000
H265 H 0.766000 0.760000 0.996000
H266 H 1.024000 0.843000 1.247000
C267 C -0.130100 0.481900 0.296800
C268 C -0.148800 0.547100 0.356400
C269 C -0.301200 0.598200 0.210500
C270 C -0.321200 0.664500 0.267500
C271 C -0.190800 0.684700 0.469400
C272 C -0.045700 0.636900 0.611200
C273 C 0.020300 0.433000 0.443200
H274 H -0.388000 0.582000 0.057000
H275 H -0.445000 0.702000 0.143000
H276 H -0.234000 0.740000 0.496000
H277 H 0.024000 0.657000 0.747000
C278 C 0.130100 0.518100 0.703200
C279 C 0.148800 0.452900 0.643600
C280 C 0.301200 0.401800 0.789500
C281 C 0.321200 0.335500 0.732500
C282 C 0.190800 0.315300 0.530600
C283 C 0.045700 0.363100 0.388800
C284 C -0.020300 0.567000 0.556800
H285 H 0.388000 0.418000 0.943000
H286 H 0.445000 0.298000 0.857000
H287 H 0.234000 0.260000 0.504000
H288 H -0.024000 0.343000 0.253000
C289 C 0.869900 0.481900 0.296800
C290 C 0.851200 0.547100 0.356400
C291 C 0.698800 0.598200 0.210500
C292 C 0.678800 0.664500 0.267500
C293 C 0.809200 0.684700 0.469400
C294 C 0.954300 0.636900 0.611200
C295 C 1.020300 0.433000 0.443200
H296 H 0.612000 0.582000 0.057000
H297 H 0.555000 0.702000 0.143000
H298 H 0.766000 0.740000 0.496000
H299 H 1.024000 0.657000 0.747000
C300 C 1.130100 0.518100 0.703200
C301 C 1.148800 0.452900 0.643600
C302 C 1.301200 0.401800 0.789500
C303 C 1.321200 0.335500 0.732500
C304 C 1.190800 0.315300 0.530600
C305 C 1.045700 0.363100 0.388800
C306 C 0.979700 0.567000 0.556800
H307 H 1.388000 0.418000 0.943000
H308 H 1.445000 0.298000 0.857000
H309 H 1.234000 0.260000 0.504000
H310 H 0.976000 0.343000 0.253000

#END
