
#######################################################################
#
#                 Cambridge Crystallographic Data Centre
#                                CCDC 
#
#######################################################################
#
# If this CIF has been generated from an entry in the Cambridge 
# Structural Database, then it will include bibliographic, chemical, 
# crystal, experimental, refinement or atomic coordinate data resulting 
# from the CCDC's data processing and validation procedures.
#
#######################################################################

data_ACSALA01
_symmetry_cell_setting           monoclinic
_symmetry_space_group_name_H-M   'P 21/c'
_symmetry_Int_Tables_number      14
_space_group_name_Hall           '-P 2ybc'
loop_
_symmetry_equiv_pos_site_id
_symmetry_equiv_pos_as_xyz
1 x,y,z
2 -x,1/2+y,1/2-z
3 -x,-y,-z
4 x,1/2-y,1/2+z
_cell_length_a                   11.430(1)
_cell_length_b                   6.591(1)
_cell_length_c                   11.395(2)
_cell_angle_alpha                90
_cell_angle_beta                 95.68(1)
_cell_angle_gamma                90
_cell_volume                     854.229
loop_
_atom_site_label
_atom_site_type_symbol
_atom_site_fract_x
_atom_site_fract_y
_atom_site_fract_z
C1 C 0.1534(1) 0.5640(2) 0.0674(1)
C2 C 0.2462(1) 0.4877(2) 0.0095(1)
C3 C 0.2983(2) 0.3047(3) 0.0416(2)
C4 C 0.2604(2) 0.1961(3) 0.1338(2)
C5 C 0.1696(2) 0.2676(3) 0.1931(2)
C6 C 0.1165(2) 0.4496(3) 0.1598(1)
C7 C 0.0903(1) 0.7573(2) 0.0376(1)
C8 C 0.3659(2) 0.7384(3) -0.0637(1)
C9 C 0.3974(2) 0.8378(4) -0.1728(2)
O1 O 0.1203(1) 0.8603(2) -0.0508(1)
O2 O 0.0104(1) 0.8118(2) 0.0965(1)
O3 O 0.2857(1) 0.5878(2) -0.0880(1)
O4 O 0.4036(1) 0.7801(2) 0.0345(1)
H1 H 0.3616(19) 0.2559(29) -0.0009(17)
H2 H 0.2926(19) 0.0651(33) 0.1552(17)
H3 H 0.1400(18) 0.1883(35) 0.2554(18)
H4 H 0.0528(18) 0.4995(29) 0.1990(15)
H5 H 0.4560(23) 0.9410(38) -0.1600(19)
H6 H 0.3265(26) 0.8883(41) -0.2139(22)
H7 H 0.4220(27) 0.7389(41) -0.2266(23)
H8 H 0.0737(23) 0.9863(42) -0.0626(19)
C1 C 0.8466(1) 0.0640(2) 0.4326(1)
C2 C 0.7538(1) -0.0123(2) 0.4905(1)
C3 C 0.7017(2) -0.1953(3) 0.4584(2)
C4 C 0.7396(2) -0.3039(3) 0.3662(2)
C5 C 0.8304(2) -0.2324(3) 0.3069(2)
C6 C 0.8835(2) -0.0504(3) 0.3402(1)
C7 C 0.9097(1) 0.2573(2) 0.4624(1)
C8 C 0.6341(2) 0.2384(3) 0.5637(1)
C9 C 0.6026(2) 0.3378(4) 0.6728(2)
O1 O 0.8797(1) 0.3603(2) 0.5508(1)
O2 O 0.9896(1) 0.3118(2) 0.4035(1)
O3 O 0.7143(1) 0.0878(2) 0.5880(1)
O4 O 0.5964(1) 0.2801(2) 0.4655(1)
H1 H 0.6384(19) -0.2441(29) 0.5009(17)
H2 H 0.7074(19) -0.4349(33) 0.3448(17)
H3 H 0.8600(18) -0.3117(35) 0.2446(18)
H4 H 0.9472(18) -0.0005(29) 0.3010(15)
H5 H 0.5440(23) 0.4410(38) 0.6600(19)
H6 H 0.6735(26) 0.3883(41) 0.7139(22)
H7 H 0.5780(27) 0.2389(41) 0.7266(23)
H8 H 0.9263(23) 0.4863(42) 0.5626(19)
C1 C 0.8466(1) 0.4360(2) 0.9326(1)
C2 C 0.7538(1) 0.5123(2) 0.9905(1)
C3 C 0.7017(2) 0.6953(3) 0.9584(2)
C4 C 0.7396(2) 0.8039(3) 0.8662(2)
C5 C 0.8304(2) 0.7324(3) 0.8069(2)
C6 C 0.8835(2) 0.5504(3) 0.8402(1)
C7 C 0.9097(1) 0.2427(2) 0.9624(1)
C8 C 0.6341(2) 0.2616(3) 1.0637(1)
C9 C 0.6026(2) 0.1622(4) 1.1728(2)
O1 O 0.8797(1) 0.1397(2) 1.0508(1)
O2 O 0.9896(1) 0.1882(2) 0.9035(1)
O3 O 0.7143(1) 0.4122(2) 1.0880(1)
O4 O 0.5964(1) 0.2199(2) 0.9655(1)
H1 H 0.6384(19) 0.7441(29) 1.0009(17)
H2 H 0.7074(19) 0.9349(33) 0.8448(17)
H3 H 0.8600(18) 0.8117(35) 0.7446(18)
H4 H 0.9472(18) 0.5005(29) 0.8010(15)
H5 H 0.5440(23) 0.0590(38) 1.1600(19)
H6 H 0.6735(26) 0.1117(41) 1.2139(22)
H7 H 0.5780(27) 0.2611(41) 1.2266(23)
H8 H 0.9263(23) 0.0137(42) 1.0626(19)
C1 C 0.1534(1) 0.9360(2) 0.5674(1)
C2 C 0.2462(1) 1.0123(2) 0.5095(1)
C3 C 0.2983(2) 1.1953(3) 0.5416(2)
C4 C 0.2604(2) 1.3039(3) 0.6338(2)
C5 C 0.1696(2) 1.2324(3) 0.6931(2)
C6 C 0.1165(2) 1.0504(3) 0.6598(1)
C7 C 0.0903(1) 0.7427(2) 0.5376(1)
C8 C 0.3659(2) 0.7616(3) 0.4363(1)
C9 C 0.3974(2) 0.6622(4) 0.3272(2)
O1 O 0.1203(1) 0.6397(2) 0.4492(1)
O2 O 0.0104(1) 0.6882(2) 0.5965(1)
O3 O 0.2857(1) 0.9122(2) 0.4120(1)
O4 O 0.4036(1) 0.7199(2) 0.5345(1)
H1 H 0.3616(19) 1.2441(29) 0.4991(17)
H2 H 0.2926(19) 1.4349(33) 0.6552(17)
H3 H 0.1400(18) 1.3117(35) 0.7554(18)
H4 H 0.0528(18) 1.0005(29) 0.6990(15)
H5 H 0.4560(23) 0.5590(38) 0.3400(19)
H6 H 0.3265(26) 0.6117(41) 0.2861(22)
H7 H 0.4220(27) 0.7611(41) 0.2734(23)
H8 H 0.0737(23) 0.5137(42) 0.4374(19)

#END
