./ACSKAT_from_xyz.cif_generated_by_CrystalShift
_symmetry_cell_setting triclinic
_symmetry_space_group_name_H-M 'P 1'
loop_
_symmetry_equiv_pos_site_id
_symmetry_equiv_pos_as_xyz
1 x,y,z
_cell_length_a 8.502000
_cell_length_b 15.935000
_cell_length_c 7.318000
_cell_angle_alpha 90.000000
_cell_angle_beta 110.400000
_cell_angle_gamma 90.000000
_cell_volume 929.257063
loop_
_atom_site_label
_atom_site_type_symbol
_atom_site_fract_x
_atom_site_fract_y
_atom_site_fract_z
N1 N 0.484600 -0.051200 0.787000
C2 C 0.657200 -0.035400 0.837100
C3 C 0.683100 0.042900 0.787600
C4 C 0.520600 0.080900 0.698600
C5 C 0.471100 0.160400 0.616900
C6 C 0.301000 0.178000 0.539600
C7 C 0.181400 0.119700 0.545800
C8 C 0.227400 0.040100 0.626900
C9 C 0.398500 0.022400 0.699900
C10 C 0.848100 0.085100 0.816300
C11 C 0.410700 -0.127200 0.804100
C12 C 0.528900 -0.198300 0.898200
O13 O 0.260200 -0.135800 0.746400
H14 H 0.737100 -0.075200 0.901700
H15 H 0.554900 0.197300 0.614100
H16 H 0.272700 0.231700 0.475100
H17 H 0.065400 0.135800 0.491900
H18 H 0.136900 0.003500 0.627900
H19 H 0.938300 0.046600 0.858400
H20 H 0.857700 0.098800 0.695900
H21 H 0.873200 0.110100 0.930800
H22 H 0.598000 -0.219700 0.827000
H23 H 0.468200 -0.241400 0.929700
H24 H 0.618000 -0.182200 1.016100
N25 N 1.015400 0.448800 0.213000
C26 C 0.842800 0.464600 0.162900
C27 C 0.816900 0.542900 0.212400
C28 C 0.979400 0.580900 0.301400
C29 C 1.028900 0.660400 0.383100
C30 C 1.199000 0.678000 0.460400
C31 C 1.318600 0.619700 0.454200
C32 C 1.272600 0.540100 0.373100
C33 C 1.101500 0.522400 0.300100
C34 C 0.651900 0.585100 0.183700
C35 C 1.089300 0.372800 0.195900
C36 C 0.971100 0.301700 0.101800
O37 O 1.239800 0.364200 0.253600
H38 H 0.762900 0.424800 0.098300
H39 H 0.945100 0.697300 0.385900
H40 H 1.227300 0.731700 0.524900
H41 H 1.434600 0.635800 0.508100
H42 H 1.363100 0.503500 0.372100
H43 H 0.561700 0.546600 0.141600
H44 H 0.642300 0.598800 0.304100
H45 H 0.626800 0.610100 0.069200
H46 H 0.902000 0.280300 0.173000
H47 H 1.031800 0.258600 0.070300
H48 H 0.882000 0.317800 -0.016100
N49 N 0.515400 1.051200 0.213000
C50 C 0.342800 1.035400 0.162900
C51 C 0.316900 0.957100 0.212400
C52 C 0.479400 0.919100 0.301400
C53 C 0.528900 0.839600 0.383100
C54 C 0.699000 0.822000 0.460400
C55 C 0.818600 0.880300 0.454200
C56 C 0.772600 0.959900 0.373100
C57 C 0.601500 0.977600 0.300100
C58 C 0.151900 0.914900 0.183700
C59 C 0.589300 1.127200 0.195900
C60 C 0.471100 1.198300 0.101800
O61 O 0.739800 1.135800 0.253600
H62 H 0.262900 1.075200 0.098300
H63 H 0.445100 0.802700 0.385900
H64 H 0.727300 0.768300 0.524900
H65 H 0.934600 0.864200 0.508100
H66 H 0.863100 0.996500 0.372100
H67 H 0.061700 0.953400 0.141600
H68 H 0.142300 0.901200 0.304100
H69 H 0.126800 0.889900 0.069200
H70 H 0.402000 1.219700 0.173000
H71 H 0.531800 1.241400 0.070300
H72 H 0.382000 1.182200 -0.016100
N73 N -0.015400 0.551200 0.787000
C74 C 0.157200 0.535400 0.837100
C75 C 0.183100 0.457100 0.787600
C76 C 0.020600 0.419100 0.698600
C77 C -0.028900 0.339600 0.616900
C78 C -0.199000 0.322000 0.539600
C79 C -0.318600 0.380300 0.545800
C80 C -0.272600 0.459900 0.626900
C81 C -0.101500 0.477600 0.699900
C82 C 0.348100 0.414900 0.816300
C83 C -0.089300 0.627200 0.804100
C84 C 0.028900 0.698300 0.898200
O85 O -0.239800 0.635800 0.746400
H86 H 0.237100 0.575200 0.901700
H87 H 0.054900 0.302700 0.614100
H88 H -0.227300 0.268300 0.475100
H89 H -0.434600 0.364200 0.491900
H90 H -0.363100 0.496500 0.627900
H91 H 0.438300 0.453400 0.858400
H92 H 0.357700 0.401200 0.695900
H93 H 0.373200 0.389900 0.930800
H94 H 0.098000 0.719700 0.827000
H95 H -0.031800 0.741400 0.929700
H96 H 0.118000 0.682200 1.016100

#END
