./ACUBIK_from_xyz.cif_generated_by_CrystalShift
_symmetry_cell_setting triclinic
_symmetry_space_group_name_H-M 'P 1'
loop_
_symmetry_equiv_pos_site_id
_symmetry_equiv_pos_as_xyz
1 x,y,z
_cell_length_a 9.439700
_cell_length_b 7.966900
_cell_length_c 15.202100
_cell_angle_alpha 90.000000
_cell_angle_beta 95.358600
_cell_angle_gamma 90.000000
_cell_volume 1138.279669
loop_
_atom_site_label
_atom_site_type_symbol
_atom_site_fract_x
_atom_site_fract_y
_atom_site_fract_z
P1 P 0.106510 0.372960 0.122800
S2 S 0.064340 0.145560 0.083430
N3 N -0.021570 0.494340 0.153620
C4 C 0.005600 0.671400 0.133000
H5 H 0.006000 0.744000 0.186200
H6 H -0.066000 0.719000 0.088900
C7 C 0.148100 0.677100 0.093050
H8 H 0.148000 0.767000 0.050200
H9 H 0.225000 0.697000 0.137800
N10 N 0.160410 0.512260 0.050280
C11 C 0.281190 0.487900 -0.001960
H12 H 0.282900 0.372000 -0.018400
H13 H 0.371000 0.515000 0.034500
C14 C 0.270500 0.600000 -0.084560
H15 H 0.362000 0.607000 -0.105300
H16 H 0.246000 0.704000 -0.068300
C17 C -0.169570 0.449500 0.165690
H18 H -0.167100 0.356700 0.207100
H19 H -0.211900 0.544100 0.193700
C20 C 0.245070 0.367200 0.214480
C21 C 0.232500 0.451500 0.293510
H22 H 0.145400 0.513000 0.301500
C23 C 0.340000 0.440100 0.362840
H24 H 0.325000 0.494000 0.416100
C25 C 0.462400 0.348600 0.352400
H26 H 0.535000 0.340000 0.398900
C27 C 0.476500 0.265400 0.273480
H28 H 0.558000 0.200000 0.265900
C29 C 0.369100 0.274200 0.205100
H30 H 0.379000 0.211000 0.149000
P31 P -0.106510 0.627040 -0.122800
S32 S -0.064340 0.854440 -0.083430
N33 N 0.021570 0.505660 -0.153620
C34 C -0.005600 0.328600 -0.133000
H35 H -0.006000 0.256000 -0.186200
H36 H 0.066000 0.281000 -0.088900
C37 C -0.148100 0.322900 -0.093050
H38 H -0.148000 0.233000 -0.050200
H39 H -0.225000 0.303000 -0.137800
N40 N -0.160410 0.487740 -0.050280
C41 C -0.281190 0.512100 0.001960
H42 H -0.282900 0.628000 0.018400
H43 H -0.371000 0.485000 -0.034500
C44 C -0.270500 0.400000 0.084560
H45 H -0.362000 0.393000 0.105300
H46 H -0.246000 0.296000 0.068300
C47 C 0.169570 0.550500 -0.165690
H48 H 0.167100 0.643300 -0.207100
H49 H 0.211900 0.455900 -0.193700
C50 C -0.245070 0.632800 -0.214480
C51 C -0.232500 0.548500 -0.293510
H52 H -0.145400 0.487000 -0.301500
C53 C -0.340000 0.559900 -0.362840
H54 H -0.325000 0.506000 -0.416100
C55 C -0.462400 0.651400 -0.352400
H56 H -0.535000 0.660000 -0.398900
C57 C -0.476500 0.734600 -0.273480
H58 H -0.558000 0.800000 -0.265900
C59 C -0.369100 0.725800 -0.205100
H60 H -0.379000 0.789000 -0.149000
P61 P 0.106510 0.372960 1.122800
S62 S 0.064340 0.145560 1.083430
N63 N -0.021570 0.494340 1.153620
C64 C 0.005600 0.671400 1.133000
H65 H 0.006000 0.744000 1.186200
H66 H -0.066000 0.719000 1.088900
C67 C 0.148100 0.677100 1.093050
H68 H 0.148000 0.767000 1.050200
H69 H 0.225000 0.697000 1.137800
N70 N 0.160410 0.512260 1.050280
C71 C 0.281190 0.487900 0.998040
H72 H 0.282900 0.372000 0.981600
H73 H 0.371000 0.515000 1.034500
C74 C 0.270500 0.600000 0.915440
H75 H 0.362000 0.607000 0.894700
H76 H 0.246000 0.704000 0.931700
C77 C -0.169570 0.449500 1.165690
H78 H -0.167100 0.356700 1.207100
H79 H -0.211900 0.544100 1.193700
C80 C 0.245070 0.367200 1.214480
C81 C 0.232500 0.451500 1.293510
H82 H 0.145400 0.513000 1.301500
C83 C 0.340000 0.440100 1.362840
H84 H 0.325000 0.494000 1.416100
C85 C 0.462400 0.348600 1.352400
H86 H 0.535000 0.340000 1.398900
C87 C 0.476500 0.265400 1.273480
H88 H 0.558000 0.200000 1.265900
C89 C 0.369100 0.274200 1.205100
H90 H 0.379000 0.211000 1.149000
P91 P -0.106510 0.627040 0.877200
S92 S -0.064340 0.854440 0.916570
N93 N 0.021570 0.505660 0.846380
C94 C -0.005600 0.328600 0.867000
H95 H -0.006000 0.256000 0.813800
H96 H 0.066000 0.281000 0.911100
C97 C -0.148100 0.322900 0.906950
H98 H -0.148000 0.233000 0.949800
H99 H -0.225000 0.303000 0.862200
N100 N -0.160410 0.487740 0.949720
C101 C -0.281190 0.512100 1.001960
H102 H -0.282900 0.628000 1.018400
H103 H -0.371000 0.485000 0.965500
C104 C -0.270500 0.400000 1.084560
H105 H -0.362000 0.393000 1.105300
H106 H -0.246000 0.296000 1.068300
C107 C 0.169570 0.550500 0.834310
H108 H 0.167100 0.643300 0.792900
H109 H 0.211900 0.455900 0.806300
C110 C -0.245070 0.632800 0.785520
C111 C -0.232500 0.548500 0.706490
H112 H -0.145400 0.487000 0.698500
C113 C -0.340000 0.559900 0.637160
H114 H -0.325000 0.506000 0.583900
C115 C -0.462400 0.651400 0.647600
H116 H -0.535000 0.660000 0.601100
C117 C -0.476500 0.734600 0.726520
H118 H -0.558000 0.800000 0.734100
C119 C -0.369100 0.725800 0.794900
H120 H -0.379000 0.789000 0.851000
P121 P 1.106510 0.372960 0.122800
S122 S 1.064340 0.145560 0.083430
N123 N 0.978430 0.494340 0.153620
C124 C 1.005600 0.671400 0.133000
H125 H 1.006000 0.744000 0.186200
H126 H 0.934000 0.719000 0.088900
C127 C 1.148100 0.677100 0.093050
H128 H 1.148000 0.767000 0.050200
H129 H 1.225000 0.697000 0.137800
N130 N 1.160410 0.512260 0.050280
C131 C 1.281190 0.487900 -0.001960
H132 H 1.282900 0.372000 -0.018400
H133 H 1.371000 0.515000 0.034500
C134 C 1.270500 0.600000 -0.084560
H135 H 1.362000 0.607000 -0.105300
H136 H 1.246000 0.704000 -0.068300
C137 C 0.830430 0.449500 0.165690
H138 H 0.832900 0.356700 0.207100
H139 H 0.788100 0.544100 0.193700
C140 C 1.245070 0.367200 0.214480
C141 C 1.232500 0.451500 0.293510
H142 H 1.145400 0.513000 0.301500
C143 C 1.340000 0.440100 0.362840
H144 H 1.325000 0.494000 0.416100
C145 C 1.462400 0.348600 0.352400
H146 H 1.535000 0.340000 0.398900
C147 C 1.476500 0.265400 0.273480
H148 H 1.558000 0.200000 0.265900
C149 C 1.369100 0.274200 0.205100
H150 H 1.379000 0.211000 0.149000
P151 P 0.893490 0.627040 -0.122800
S152 S 0.935660 0.854440 -0.083430
N153 N 1.021570 0.505660 -0.153620
C154 C 0.994400 0.328600 -0.133000
H155 H 0.994000 0.256000 -0.186200
H156 H 1.066000 0.281000 -0.088900
C157 C 0.851900 0.322900 -0.093050
H158 H 0.852000 0.233000 -0.050200
H159 H 0.775000 0.303000 -0.137800
N160 N 0.839590 0.487740 -0.050280
C161 C 0.718810 0.512100 0.001960
H162 H 0.717100 0.628000 0.018400
H163 H 0.629000 0.485000 -0.034500
C164 C 0.729500 0.400000 0.084560
H165 H 0.638000 0.393000 0.105300
H166 H 0.754000 0.296000 0.068300
C167 C 1.169570 0.550500 -0.165690
H168 H 1.167100 0.643300 -0.207100
H169 H 1.211900 0.455900 -0.193700
C170 C 0.754930 0.632800 -0.214480
C171 C 0.767500 0.548500 -0.293510
H172 H 0.854600 0.487000 -0.301500
C173 C 0.660000 0.559900 -0.362840
H174 H 0.675000 0.506000 -0.416100
C175 C 0.537600 0.651400 -0.352400
H176 H 0.465000 0.660000 -0.398900
C177 C 0.523500 0.734600 -0.273480
H178 H 0.442000 0.800000 -0.265900
C179 C 0.630900 0.725800 -0.205100
H180 H 0.621000 0.789000 -0.149000
P181 P 1.106510 0.372960 1.122800
S182 S 1.064340 0.145560 1.083430
N183 N 0.978430 0.494340 1.153620
C184 C 1.005600 0.671400 1.133000
H185 H 1.006000 0.744000 1.186200
H186 H 0.934000 0.719000 1.088900
C187 C 1.148100 0.677100 1.093050
H188 H 1.148000 0.767000 1.050200
H189 H 1.225000 0.697000 1.137800
N190 N 1.160410 0.512260 1.050280
C191 C 1.281190 0.487900 0.998040
H192 H 1.282900 0.372000 0.981600
H193 H 1.371000 0.515000 1.034500
C194 C 1.270500 0.600000 0.915440
H195 H 1.362000 0.607000 0.894700
H196 H 1.246000 0.704000 0.931700
C197 C 0.830430 0.449500 1.165690
H198 H 0.832900 0.356700 1.207100
H199 H 0.788100 0.544100 1.193700
C200 C 1.245070 0.367200 1.214480
C201 C 1.232500 0.451500 1.293510
H202 H 1.145400 0.513000 1.301500
C203 C 1.340000 0.440100 1.362840
H204 H 1.325000 0.494000 1.416100
C205 C 1.462400 0.348600 1.352400
H206 H 1.535000 0.340000 1.398900
C207 C 1.476500 0.265400 1.273480
H208 H 1.558000 0.200000 1.265900
C209 C 1.369100 0.274200 1.205100
H210 H 1.379000 0.211000 1.149000
P211 P 0.893490 0.627040 0.877200
S212 S 0.935660 0.854440 0.916570
N213 N 1.021570 0.505660 0.846380
C214 C 0.994400 0.328600 0.867000
H215 H 0.994000 0.256000 0.813800
H216 H 1.066000 0.281000 0.911100
C217 C 0.851900 0.322900 0.906950
H218 H 0.852000 0.233000 0.949800
H219 H 0.775000 0.303000 0.862200
N220 N 0.839590 0.487740 0.949720
C221 C 0.718810 0.512100 1.001960
H222 H 0.717100 0.628000 1.018400
H223 H 0.629000 0.485000 0.965500
C224 C 0.729500 0.400000 1.084560
H225 H 0.638000 0.393000 1.105300
H226 H 0.754000 0.296000 1.068300
C227 C 1.169570 0.550500 0.834310
H228 H 1.167100 0.643300 0.792900
H229 H 1.211900 0.455900 0.806300
C230 C 0.754930 0.632800 0.785520
C231 C 0.767500 0.548500 0.706490
H232 H 0.854600 0.487000 0.698500
C233 C 0.660000 0.559900 0.637160
H234 H 0.675000 0.506000 0.583900
C235 C 0.537600 0.651400 0.647600
H236 H 0.465000 0.660000 0.601100
C237 C 0.523500 0.734600 0.726520
H238 H 0.442000 0.800000 0.734100
C239 C 0.630900 0.725800 0.794900
H240 H 0.621000 0.789000 0.851000
P241 P -0.106510 -0.127040 0.377200
S242 S -0.064340 -0.354440 0.416570
N243 N 0.021570 -0.005660 0.346380
C244 C -0.005600 0.171400 0.367000
H245 H -0.006000 0.244000 0.313800
H246 H 0.066000 0.219000 0.411100
C247 C -0.148100 0.177100 0.406950
H248 H -0.148000 0.267000 0.449800
H249 H -0.225000 0.197000 0.362200
N250 N -0.160410 0.012260 0.449720
C251 C -0.281190 -0.012100 0.501960
H252 H -0.282900 -0.128000 0.518400
H253 H -0.371000 0.015000 0.465500
C254 C -0.270500 0.100000 0.584560
H255 H -0.362000 0.107000 0.605300
H256 H -0.246000 0.204000 0.568300
C257 C 0.169570 -0.050500 0.334310
H258 H 0.167100 -0.143300 0.292900
H259 H 0.211900 0.044100 0.306300
C260 C -0.245070 -0.132800 0.285520
C261 C -0.232500 -0.048500 0.206490
H262 H -0.145400 0.013000 0.198500
C263 C -0.340000 -0.059900 0.137160
H264 H -0.325000 -0.006000 0.083900
C265 C -0.462400 -0.151400 0.147600
H266 H -0.535000 -0.160000 0.101100
C267 C -0.476500 -0.234600 0.226520
H268 H -0.558000 -0.300000 0.234100
C269 C -0.369100 -0.225800 0.294900
H270 H -0.379000 -0.289000 0.351000
P271 P 0.106510 0.127040 0.622800
S272 S 0.064340 0.354440 0.583430
N273 N -0.021570 0.005660 0.653620
C274 C 0.005600 -0.171400 0.633000
H275 H 0.006000 -0.244000 0.686200
H276 H -0.066000 -0.219000 0.588900
C277 C 0.148100 -0.177100 0.593050
H278 H 0.148000 -0.267000 0.550200
H279 H 0.225000 -0.197000 0.637800
N280 N 0.160410 -0.012260 0.550280
C281 C 0.281190 0.012100 0.498040
H282 H 0.282900 0.128000 0.481600
H283 H 0.371000 -0.015000 0.534500
C284 C 0.270500 -0.100000 0.415440
H285 H 0.362000 -0.107000 0.394700
H286 H 0.246000 -0.204000 0.431700
C287 C -0.169570 0.050500 0.665690
H288 H -0.167100 0.143300 0.707100
H289 H -0.211900 -0.044100 0.693700
C290 C 0.245070 0.132800 0.714480
C291 C 0.232500 0.048500 0.793510
H292 H 0.145400 -0.013000 0.801500
C293 C 0.340000 0.059900 0.862840
H294 H 0.325000 0.006000 0.916100
C295 C 0.462400 0.151400 0.852400
H296 H 0.535000 0.160000 0.898900
C297 C 0.476500 0.234600 0.773480
H298 H 0.558000 0.300000 0.765900
C299 C 0.369100 0.225800 0.705100
H300 H 0.379000 0.289000 0.649000
P301 P -0.106510 0.872960 0.377200
S302 S -0.064340 0.645560 0.416570
N303 N 0.021570 0.994340 0.346380
C304 C -0.005600 1.171400 0.367000
H305 H -0.006000 1.244000 0.313800
H306 H 0.066000 1.219000 0.411100
C307 C -0.148100 1.177100 0.406950
H308 H -0.148000 1.267000 0.449800
H309 H -0.225000 1.197000 0.362200
N310 N -0.160410 1.012260 0.449720
C311 C -0.281190 0.987900 0.501960
H312 H -0.282900 0.872000 0.518400
H313 H -0.371000 1.015000 0.465500
C314 C -0.270500 1.100000 0.584560
H315 H -0.362000 1.107000 0.605300
H316 H -0.246000 1.204000 0.568300
C317 C 0.169570 0.949500 0.334310
H318 H 0.167100 0.856700 0.292900
H319 H 0.211900 1.044100 0.306300
C320 C -0.245070 0.867200 0.285520
C321 C -0.232500 0.951500 0.206490
H322 H -0.145400 1.013000 0.198500
C323 C -0.340000 0.940100 0.137160
H324 H -0.325000 0.994000 0.083900
C325 C -0.462400 0.848600 0.147600
H326 H -0.535000 0.840000 0.101100
C327 C -0.476500 0.765400 0.226520
H328 H -0.558000 0.700000 0.234100
C329 C -0.369100 0.774200 0.294900
H330 H -0.379000 0.711000 0.351000
P331 P 0.106510 1.127040 0.622800
S332 S 0.064340 1.354440 0.583430
N333 N -0.021570 1.005660 0.653620
C334 C 0.005600 0.828600 0.633000
H335 H 0.006000 0.756000 0.686200
H336 H -0.066000 0.781000 0.588900
C337 C 0.148100 0.822900 0.593050
H338 H 0.148000 0.733000 0.550200
H339 H 0.225000 0.803000 0.637800
N340 N 0.160410 0.987740 0.550280
C341 C 0.281190 1.012100 0.498040
H342 H 0.282900 1.128000 0.481600
H343 H 0.371000 0.985000 0.534500
C344 C 0.270500 0.900000 0.415440
H345 H 0.362000 0.893000 0.394700
H346 H 0.246000 0.796000 0.431700
C347 C -0.169570 1.050500 0.665690
H348 H -0.167100 1.143300 0.707100
H349 H -0.211900 0.955900 0.693700
C350 C 0.245070 1.132800 0.714480
C351 C 0.232500 1.048500 0.793510
H352 H 0.145400 0.987000 0.801500
C353 C 0.340000 1.059900 0.862840
H354 H 0.325000 1.006000 0.916100
C355 C 0.462400 1.151400 0.852400
H356 H 0.535000 1.160000 0.898900
C357 C 0.476500 1.234600 0.773480
H358 H 0.558000 1.300000 0.765900
C359 C 0.369100 1.225800 0.705100
H360 H 0.379000 1.289000 0.649000
P361 P 0.893490 -0.127040 0.377200
S362 S 0.935660 -0.354440 0.416570
N363 N 1.021570 -0.005660 0.346380
C364 C 0.994400 0.171400 0.367000
H365 H 0.994000 0.244000 0.313800
H366 H 1.066000 0.219000 0.411100
C367 C 0.851900 0.177100 0.406950
H368 H 0.852000 0.267000 0.449800
H369 H 0.775000 0.197000 0.362200
N370 N 0.839590 0.012260 0.449720
C371 C 0.718810 -0.012100 0.501960
H372 H 0.717100 -0.128000 0.518400
H373 H 0.629000 0.015000 0.465500
C374 C 0.729500 0.100000 0.584560
H375 H 0.638000 0.107000 0.605300
H376 H 0.754000 0.204000 0.568300
C377 C 1.169570 -0.050500 0.334310
H378 H 1.167100 -0.143300 0.292900
H379 H 1.211900 0.044100 0.306300
C380 C 0.754930 -0.132800 0.285520
C381 C 0.767500 -0.048500 0.206490
H382 H 0.854600 0.013000 0.198500
C383 C 0.660000 -0.059900 0.137160
H384 H 0.675000 -0.006000 0.083900
C385 C 0.537600 -0.151400 0.147600
H386 H 0.465000 -0.160000 0.101100
C387 C 0.523500 -0.234600 0.226520
H388 H 0.442000 -0.300000 0.234100
C389 C 0.630900 -0.225800 0.294900
H390 H 0.621000 -0.289000 0.351000
P391 P 1.106510 0.127040 0.622800
S392 S 1.064340 0.354440 0.583430
N393 N 0.978430 0.005660 0.653620
C394 C 1.005600 -0.171400 0.633000
H395 H 1.006000 -0.244000 0.686200
H396 H 0.934000 -0.219000 0.588900
C397 C 1.148100 -0.177100 0.593050
H398 H 1.148000 -0.267000 0.550200
H399 H 1.225000 -0.197000 0.637800
N400 N 1.160410 -0.012260 0.550280
C401 C 1.281190 0.012100 0.498040
H402 H 1.282900 0.128000 0.481600
H403 H 1.371000 -0.015000 0.534500
C404 C 1.270500 -0.100000 0.415440
H405 H 1.362000 -0.107000 0.394700
H406 H 1.246000 -0.204000 0.431700
C407 C 0.830430 0.050500 0.665690
H408 H 0.832900 0.143300 0.707100
H409 H 0.788100 -0.044100 0.693700
C410 C 1.245070 0.132800 0.714480
C411 C 1.232500 0.048500 0.793510
H412 H 1.145400 -0.013000 0.801500
C413 C 1.340000 0.059900 0.862840
H414 H 1.325000 0.006000 0.916100
C415 C 1.462400 0.151400 0.852400
H416 H 1.535000 0.160000 0.898900
C417 C 1.476500 0.234600 0.773480
H418 H 1.558000 0.300000 0.765900
C419 C 1.369100 0.225800 0.705100
H420 H 1.379000 0.289000 0.649000
P421 P 0.893490 0.872960 0.377200
S422 S 0.935660 0.645560 0.416570
N423 N 1.021570 0.994340 0.346380
C424 C 0.994400 1.171400 0.367000
H425 H 0.994000 1.244000 0.313800
H426 H 1.066000 1.219000 0.411100
C427 C 0.851900 1.177100 0.406950
H428 H 0.852000 1.267000 0.449800
H429 H 0.775000 1.197000 0.362200
N430 N 0.839590 1.012260 0.449720
C431 C 0.718810 0.987900 0.501960
H432 H 0.717100 0.872000 0.518400
H433 H 0.629000 1.015000 0.465500
C434 C 0.729500 1.100000 0.584560
H435 H 0.638000 1.107000 0.605300
H436 H 0.754000 1.204000 0.568300
C437 C 1.169570 0.949500 0.334310
H438 H 1.167100 0.856700 0.292900
H439 H 1.211900 1.044100 0.306300
C440 C 0.754930 0.867200 0.285520
C441 C 0.767500 0.951500 0.206490
H442 H 0.854600 1.013000 0.198500
C443 C 0.660000 0.940100 0.137160
H444 H 0.675000 0.994000 0.083900
C445 C 0.537600 0.848600 0.147600
H446 H 0.465000 0.840000 0.101100
C447 C 0.523500 0.765400 0.226520
H448 H 0.442000 0.700000 0.234100
C449 C 0.630900 0.774200 0.294900
H450 H 0.621000 0.711000 0.351000
P451 P 1.106510 1.127040 0.622800
S452 S 1.064340 1.354440 0.583430
N453 N 0.978430 1.005660 0.653620
C454 C 1.005600 0.828600 0.633000
H455 H 1.006000 0.756000 0.686200
H456 H 0.934000 0.781000 0.588900
C457 C 1.148100 0.822900 0.593050
H458 H 1.148000 0.733000 0.550200
H459 H 1.225000 0.803000 0.637800
N460 N 1.160410 0.987740 0.550280
C461 C 1.281190 1.012100 0.498040
H462 H 1.282900 1.128000 0.481600
H463 H 1.371000 0.985000 0.534500
C464 C 1.270500 0.900000 0.415440
H465 H 1.362000 0.893000 0.394700
H466 H 1.246000 0.796000 0.431700
C467 C 0.830430 1.050500 0.665690
H468 H 0.832900 1.143300 0.707100
H469 H 0.788100 0.955900 0.693700
C470 C 1.245070 1.132800 0.714480
C471 C 1.232500 1.048500 0.793510
H472 H 1.145400 0.987000 0.801500
C473 C 1.340000 1.059900 0.862840
H474 H 1.325000 1.006000 0.916100
C475 C 1.462400 1.151400 0.852400
H476 H 1.535000 1.160000 0.898900
C477 C 1.476500 1.234600 0.773480
H478 H 1.558000 1.300000 0.765900
C479 C 1.369100 1.225800 0.705100
H480 H 1.379000 1.289000 0.649000

#END
