./ACUGUA_from_xyz.cif_generated_by_CrystalShift
_symmetry_cell_setting triclinic
_symmetry_space_group_name_H-M 'P 1'
loop_
_symmetry_equiv_pos_site_id
_symmetry_equiv_pos_as_xyz
1 x,y,z
_cell_length_a 8.954000
_cell_length_b 19.678000
_cell_length_c 8.877000
_cell_angle_alpha 90.000000
_cell_angle_beta 117.930000
_cell_angle_gamma 90.000000
_cell_volume 1381.913535
loop_
_atom_site_label
_atom_site_type_symbol
_atom_site_fract_x
_atom_site_fract_y
_atom_site_fract_z
P1 P 0.321810 0.679970 0.059370
S2 S 0.472070 0.546400 0.265840
C3 C 0.366800 0.622650 0.233500
C4 C 0.329200 0.633760 0.362800
H5 H 0.272500 0.672300 0.369500
C6 C 0.383300 0.582090 0.484900
H7 H 0.365400 0.583000 0.579900
C8 C 0.463900 0.530860 0.452300
C9 C 0.521100 0.678600 0.049500
C10 C 0.628900 0.732600 0.124500
H11 H 0.596100 0.767900 0.172100
C12 C 0.784200 0.734400 0.129100
H13 H 0.857200 0.770400 0.182100
C14 C 0.831500 0.683900 0.056900
H15 H 0.935600 0.686100 0.057600
C16 C 0.727400 0.629700 -0.017000
H17 H 0.761300 0.594600 -0.064300
C18 C 0.571500 0.627280 -0.021100
H19 H 0.500100 0.590600 -0.072200
C20 C 0.181500 0.631270 -0.127400
C21 C 0.150200 0.655600 -0.286600
H22 H 0.210200 0.692800 -0.294600
C23 C 0.029700 0.624600 -0.433200
H24 H 0.009600 0.640900 -0.539400
C25 C -0.060100 0.570000 -0.423100
H26 H -0.140300 0.549100 -0.522000
C27 C -0.031600 0.546400 -0.268000
H28 H -0.093400 0.509700 -0.261000
C29 C 0.087400 0.576400 -0.122400
H30 H 0.105600 0.559600 -0.017300
C31 C 0.536100 0.469140 0.547700
S32 S 0.527930 0.453600 0.734160
C33 C 0.633200 0.377350 0.766500
P34 P 0.678190 0.320030 0.940630
C35 C 0.478900 0.321400 0.950500
C36 C 0.371100 0.267400 0.875500
H37 H 0.403900 0.232100 0.827900
C38 C 0.215800 0.265600 0.870900
H39 H 0.142800 0.229600 0.817900
C40 C 0.168500 0.316100 0.943100
H41 H 0.064400 0.313900 0.942400
C42 C 0.272600 0.370300 1.017000
H43 H 0.238700 0.405400 1.064300
C44 C 0.428500 0.372720 1.021100
H45 H 0.499900 0.409400 1.072200
C46 C 0.818500 0.368730 1.127400
C47 C 0.849800 0.344400 1.286600
H48 H 0.789800 0.307200 1.294600
C49 C 0.970300 0.375400 1.433200
H50 H 0.990400 0.359100 1.539400
C51 C 1.060100 0.430000 1.423100
H52 H 1.140300 0.450900 1.522000
C53 C 1.031600 0.453600 1.268000
H54 H 1.093400 0.490300 1.261000
C55 C 0.912600 0.423600 1.122400
H56 H 0.894400 0.440400 1.017300
C57 C 0.670800 0.366240 0.637200
H58 H 0.727500 0.327700 0.630500
C59 C 0.616700 0.417910 0.515100
H60 H 0.634600 0.417000 0.420100
P61 P 0.678190 0.179970 0.440630
S62 S 0.527930 0.046400 0.234160
C63 C 0.633200 0.122650 0.266500
C64 C 0.670800 0.133760 0.137200
H65 H 0.727500 0.172300 0.130500
C66 C 0.616700 0.082090 0.015100
H67 H 0.634600 0.083000 -0.079900
C68 C 0.536100 0.030860 0.047700
C69 C 0.478900 0.178600 0.450500
C70 C 0.371100 0.232600 0.375500
H71 H 0.403900 0.267900 0.327900
C72 C 0.215800 0.234400 0.370900
H73 H 0.142800 0.270400 0.317900
C74 C 0.168500 0.183900 0.443100
H75 H 0.064400 0.186100 0.442400
C76 C 0.272600 0.129700 0.517000
H77 H 0.238700 0.094600 0.564300
C78 C 0.428500 0.127280 0.521100
H79 H 0.499900 0.090600 0.572200
C80 C 0.818500 0.131270 0.627400
C81 C 0.849800 0.155600 0.786600
H82 H 0.789800 0.192800 0.794600
C83 C 0.970300 0.124600 0.933200
H84 H 0.990400 0.140900 1.039400
C85 C 1.060100 0.070000 0.923100
H86 H 1.140300 0.049100 1.022000
C87 C 1.031600 0.046400 0.768000
H88 H 1.093400 0.009700 0.761000
C89 C 0.912600 0.076400 0.622400
H90 H 0.894400 0.059600 0.517300
C91 C 0.463900 -0.030860 -0.047700
S92 S 0.472070 -0.046400 -0.234160
C93 C 0.366800 -0.122650 -0.266500
P94 P 0.321810 -0.179970 -0.440630
C95 C 0.521100 -0.178600 -0.450500
C96 C 0.628900 -0.232600 -0.375500
H97 H 0.596100 -0.267900 -0.327900
C98 C 0.784200 -0.234400 -0.370900
H99 H 0.857200 -0.270400 -0.317900
C100 C 0.831500 -0.183900 -0.443100
H101 H 0.935600 -0.186100 -0.442400
C102 C 0.727400 -0.129700 -0.517000
H103 H 0.761300 -0.094600 -0.564300
C104 C 0.571500 -0.127280 -0.521100
H105 H 0.500100 -0.090600 -0.572200
C106 C 0.181500 -0.131270 -0.627400
C107 C 0.150200 -0.155600 -0.786600
H108 H 0.210200 -0.192800 -0.794600
C109 C 0.029700 -0.124600 -0.933200
H110 H 0.009600 -0.140900 -1.039400
C111 C -0.060100 -0.070000 -0.923100
H112 H -0.140300 -0.049100 -1.022000
C113 C -0.031600 -0.046400 -0.768000
H114 H -0.093400 -0.009700 -0.761000
C115 C 0.087400 -0.076400 -0.622400
H116 H 0.105600 -0.059600 -0.517300
C117 C 0.329200 -0.133760 -0.137200
H118 H 0.272500 -0.172300 -0.130500
C119 C 0.383300 -0.082090 -0.015100
H120 H 0.365400 -0.083000 0.079900
P121 P 0.678190 0.179970 1.440630
S122 S 0.527930 0.046400 1.234160
C123 C 0.633200 0.122650 1.266500
C124 C 0.670800 0.133760 1.137200
H125 H 0.727500 0.172300 1.130500
C126 C 0.616700 0.082090 1.015100
H127 H 0.634600 0.083000 0.920100
C128 C 0.536100 0.030860 1.047700
C129 C 0.478900 0.178600 1.450500
C130 C 0.371100 0.232600 1.375500
H131 H 0.403900 0.267900 1.327900
C132 C 0.215800 0.234400 1.370900
H133 H 0.142800 0.270400 1.317900
C134 C 0.168500 0.183900 1.443100
H135 H 0.064400 0.186100 1.442400
C136 C 0.272600 0.129700 1.517000
H137 H 0.238700 0.094600 1.564300
C138 C 0.428500 0.127280 1.521100
H139 H 0.499900 0.090600 1.572200
C140 C 0.818500 0.131270 1.627400
C141 C 0.849800 0.155600 1.786600
H142 H 0.789800 0.192800 1.794600
C143 C 0.970300 0.124600 1.933200
H144 H 0.990400 0.140900 2.039400
C145 C 1.060100 0.070000 1.923100
H146 H 1.140300 0.049100 2.022000
C147 C 1.031600 0.046400 1.768000
H148 H 1.093400 0.009700 1.761000
C149 C 0.912600 0.076400 1.622400
H150 H 0.894400 0.059600 1.517300
C151 C 0.463900 -0.030860 0.952300
S152 S 0.472070 -0.046400 0.765840
C153 C 0.366800 -0.122650 0.733500
P154 P 0.321810 -0.179970 0.559370
C155 C 0.521100 -0.178600 0.549500
C156 C 0.628900 -0.232600 0.624500
H157 H 0.596100 -0.267900 0.672100
C158 C 0.784200 -0.234400 0.629100
H159 H 0.857200 -0.270400 0.682100
C160 C 0.831500 -0.183900 0.556900
H161 H 0.935600 -0.186100 0.557600
C162 C 0.727400 -0.129700 0.483000
H163 H 0.761300 -0.094600 0.435700
C164 C 0.571500 -0.127280 0.478900
H165 H 0.500100 -0.090600 0.427800
C166 C 0.181500 -0.131270 0.372600
C167 C 0.150200 -0.155600 0.213400
H168 H 0.210200 -0.192800 0.205400
C169 C 0.029700 -0.124600 0.066800
H170 H 0.009600 -0.140900 -0.039400
C171 C -0.060100 -0.070000 0.076900
H172 H -0.140300 -0.049100 -0.022000
C173 C -0.031600 -0.046400 0.232000
H174 H -0.093400 -0.009700 0.239000
C175 C 0.087400 -0.076400 0.377600
H176 H 0.105600 -0.059600 0.482700
C177 C 0.329200 -0.133760 0.862800
H178 H 0.272500 -0.172300 0.869500
C179 C 0.383300 -0.082090 0.984900
H180 H 0.365400 -0.083000 1.079900
P181 P 0.678190 1.179970 0.440630
S182 S 0.527930 1.046400 0.234160
C183 C 0.633200 1.122650 0.266500
C184 C 0.670800 1.133760 0.137200
H185 H 0.727500 1.172300 0.130500
C186 C 0.616700 1.082090 0.015100
H187 H 0.634600 1.083000 -0.079900
C188 C 0.536100 1.030860 0.047700
C189 C 0.478900 1.178600 0.450500
C190 C 0.371100 1.232600 0.375500
H191 H 0.403900 1.267900 0.327900
C192 C 0.215800 1.234400 0.370900
H193 H 0.142800 1.270400 0.317900
C194 C 0.168500 1.183900 0.443100
H195 H 0.064400 1.186100 0.442400
C196 C 0.272600 1.129700 0.517000
H197 H 0.238700 1.094600 0.564300
C198 C 0.428500 1.127280 0.521100
H199 H 0.499900 1.090600 0.572200
C200 C 0.818500 1.131270 0.627400
C201 C 0.849800 1.155600 0.786600
H202 H 0.789800 1.192800 0.794600
C203 C 0.970300 1.124600 0.933200
H204 H 0.990400 1.140900 1.039400
C205 C 1.060100 1.070000 0.923100
H206 H 1.140300 1.049100 1.022000
C207 C 1.031600 1.046400 0.768000
H208 H 1.093400 1.009700 0.761000
C209 C 0.912600 1.076400 0.622400
H210 H 0.894400 1.059600 0.517300
C211 C 0.463900 0.969140 -0.047700
S212 S 0.472070 0.953600 -0.234160
C213 C 0.366800 0.877350 -0.266500
P214 P 0.321810 0.820030 -0.440630
C215 C 0.521100 0.821400 -0.450500
C216 C 0.628900 0.767400 -0.375500
H217 H 0.596100 0.732100 -0.327900
C218 C 0.784200 0.765600 -0.370900
H219 H 0.857200 0.729600 -0.317900
C220 C 0.831500 0.816100 -0.443100
H221 H 0.935600 0.813900 -0.442400
C222 C 0.727400 0.870300 -0.517000
H223 H 0.761300 0.905400 -0.564300
C224 C 0.571500 0.872720 -0.521100
H225 H 0.500100 0.909400 -0.572200
C226 C 0.181500 0.868730 -0.627400
C227 C 0.150200 0.844400 -0.786600
H228 H 0.210200 0.807200 -0.794600
C229 C 0.029700 0.875400 -0.933200
H230 H 0.009600 0.859100 -1.039400
C231 C -0.060100 0.930000 -0.923100
H232 H -0.140300 0.950900 -1.022000
C233 C -0.031600 0.953600 -0.768000
H234 H -0.093400 0.990300 -0.761000
C235 C 0.087400 0.923600 -0.622400
H236 H 0.105600 0.940400 -0.517300
C237 C 0.329200 0.866240 -0.137200
H238 H 0.272500 0.827700 -0.130500
C239 C 0.383300 0.917910 -0.015100
H240 H 0.365400 0.917000 0.079900
P241 P 0.678190 1.179970 1.440630
S242 S 0.527930 1.046400 1.234160
C243 C 0.633200 1.122650 1.266500
C244 C 0.670800 1.133760 1.137200
H245 H 0.727500 1.172300 1.130500
C246 C 0.616700 1.082090 1.015100
H247 H 0.634600 1.083000 0.920100
C248 C 0.536100 1.030860 1.047700
C249 C 0.478900 1.178600 1.450500
C250 C 0.371100 1.232600 1.375500
H251 H 0.403900 1.267900 1.327900
C252 C 0.215800 1.234400 1.370900
H253 H 0.142800 1.270400 1.317900
C254 C 0.168500 1.183900 1.443100
H255 H 0.064400 1.186100 1.442400
C256 C 0.272600 1.129700 1.517000
H257 H 0.238700 1.094600 1.564300
C258 C 0.428500 1.127280 1.521100
H259 H 0.499900 1.090600 1.572200
C260 C 0.818500 1.131270 1.627400
C261 C 0.849800 1.155600 1.786600
H262 H 0.789800 1.192800 1.794600
C263 C 0.970300 1.124600 1.933200
H264 H 0.990400 1.140900 2.039400
C265 C 1.060100 1.070000 1.923100
H266 H 1.140300 1.049100 2.022000
C267 C 1.031600 1.046400 1.768000
H268 H 1.093400 1.009700 1.761000
C269 C 0.912600 1.076400 1.622400
H270 H 0.894400 1.059600 1.517300
C271 C 0.463900 0.969140 0.952300
S272 S 0.472070 0.953600 0.765840
C273 C 0.366800 0.877350 0.733500
P274 P 0.321810 0.820030 0.559370
C275 C 0.521100 0.821400 0.549500
C276 C 0.628900 0.767400 0.624500
H277 H 0.596100 0.732100 0.672100
C278 C 0.784200 0.765600 0.629100
H279 H 0.857200 0.729600 0.682100
C280 C 0.831500 0.816100 0.556900
H281 H 0.935600 0.813900 0.557600
C282 C 0.727400 0.870300 0.483000
H283 H 0.761300 0.905400 0.435700
C284 C 0.571500 0.872720 0.478900
H285 H 0.500100 0.909400 0.427800
C286 C 0.181500 0.868730 0.372600
C287 C 0.150200 0.844400 0.213400
H288 H 0.210200 0.807200 0.205400
C289 C 0.029700 0.875400 0.066800
H290 H 0.009600 0.859100 -0.039400
C291 C -0.060100 0.930000 0.076900
H292 H -0.140300 0.950900 -0.022000
C293 C -0.031600 0.953600 0.232000
H294 H -0.093400 0.990300 0.239000
C295 C 0.087400 0.923600 0.377600
H296 H 0.105600 0.940400 0.482700
C297 C 0.329200 0.866240 0.862800
H298 H 0.272500 0.827700 0.869500
C299 C 0.383300 0.917910 0.984900
H300 H 0.365400 0.917000 1.079900

#END
