./ACUGOW_from_xyz.cif_generated_by_CrystalShift
_symmetry_cell_setting triclinic
_symmetry_space_group_name_H-M 'P 1'
loop_
_symmetry_equiv_pos_site_id
_symmetry_equiv_pos_as_xyz
1 x,y,z
_cell_length_a 11.981000
_cell_length_b 13.226000
_cell_length_c 25.946000
_cell_angle_alpha 90.000000
_cell_angle_beta 90.000000
_cell_angle_gamma 90.000000
_cell_volume 4111.421478
loop_
_atom_site_label
_atom_site_type_symbol
_atom_site_fract_x
_atom_site_fract_y
_atom_site_fract_z
Co1 Co 0.052700 0.217110 0.126390
Cl2 Cl -0.021740 0.347500 0.080480
Cl3 Cl -0.068480 0.087990 0.123580
Cl4 Cl 0.081980 0.259810 0.210630
Cl5 Cl 0.219290 0.178510 0.090600
Co6 Co 0.552700 0.282890 0.873610
Cl7 Cl 0.478260 0.152500 0.919520
Cl8 Cl 0.431520 0.412010 0.876420
Cl9 Cl 0.581980 0.240190 0.789370
Cl10 Cl 0.719290 0.321490 0.909400
Co11 Co 0.947300 0.717110 0.373610
Cl12 Cl 1.021740 0.847500 0.419520
Cl13 Cl 1.068480 0.587990 0.376420
Cl14 Cl 0.918020 0.759810 0.289370
Cl15 Cl 0.780710 0.678510 0.409400
Co16 Co 0.447300 0.782890 0.626390
Cl17 Cl 0.521740 0.652500 0.580480
Cl18 Cl 0.568480 0.912010 0.623580
Cl19 Cl 0.418020 0.740190 0.710630
Cl20 Cl 0.280710 0.821490 0.590600
Co21 Co 0.947300 0.782890 0.873610
Cl22 Cl 1.021740 0.652500 0.919520
Cl23 Cl 1.068480 0.912010 0.876420
Cl24 Cl 0.918020 0.740190 0.789370
Cl25 Cl 0.780710 0.821490 0.909400
Co26 Co 0.447300 0.717110 0.126390
Cl27 Cl 0.521740 0.847500 0.080480
Cl28 Cl 0.568480 0.587990 0.123580
Cl29 Cl 0.418020 0.759810 0.210630
Cl30 Cl 0.280710 0.678510 0.090600
Co31 Co 0.052700 0.282890 0.626390
Cl32 Cl -0.021740 0.152500 0.580480
Cl33 Cl -0.068480 0.412010 0.623580
Cl34 Cl 0.081980 0.240190 0.710630
Cl35 Cl 0.219290 0.321490 0.590600
Co36 Co 0.552700 0.217110 0.373610
Cl37 Cl 0.478260 0.347500 0.419520
Cl38 Cl 0.431520 0.087990 0.376420
Cl39 Cl 0.581980 0.259810 0.289370
Cl40 Cl 0.719290 0.178510 0.409400
N41 N 0.255000 0.439100 0.235710
C42 C 0.388200 0.371600 0.171400
H43 H 0.436900 0.391500 0.143800
H44 H 0.333200 0.325200 0.158500
H45 H 0.431000 0.339300 0.198000
C46 C 0.332700 0.460900 0.192500
H47 H 0.291300 0.493800 0.165100
H48 H 0.389100 0.508000 0.204400
C49 C 0.313200 0.407000 0.283000
H50 H 0.372500 0.360900 0.273400
H51 H 0.347800 0.466000 0.298500
C52 C 0.243800 0.357900 0.322100
H53 H 0.289200 0.339600 0.351100
H54 H 0.210400 0.298200 0.307800
H55 H 0.186200 0.403600 0.333100
C56 C 0.125400 0.577400 0.216900
H57 H 0.088600 0.631400 0.234900
H58 H 0.070500 0.534200 0.201300
H59 H 0.172700 0.605100 0.190600
C60 C 0.183000 0.527400 0.247900
H61 H 0.131400 0.504100 0.274200
H62 H 0.231500 0.576000 0.264700
H63 H 0.212000 0.394000 0.225300
N64 N 0.755000 0.060900 0.764290
C65 C 0.888200 0.128400 0.828600
H66 H 0.936900 0.108500 0.856200
H67 H 0.833200 0.174800 0.841500
H68 H 0.931000 0.160700 0.802000
C69 C 0.832700 0.039100 0.807500
H70 H 0.791300 0.006200 0.834900
H71 H 0.889100 -0.008000 0.795600
C72 C 0.813200 0.093000 0.717000
H73 H 0.872500 0.139100 0.726600
H74 H 0.847800 0.034000 0.701500
C75 C 0.743800 0.142100 0.677900
H76 H 0.789200 0.160400 0.648900
H77 H 0.710400 0.201800 0.692200
H78 H 0.686200 0.096400 0.666900
C79 C 0.625400 -0.077400 0.783100
H80 H 0.588600 -0.131400 0.765100
H81 H 0.570500 -0.034200 0.798700
H82 H 0.672700 -0.105100 0.809400
C83 C 0.683000 -0.027400 0.752100
H84 H 0.631400 -0.004100 0.725800
H85 H 0.731500 -0.076000 0.735300
H86 H 0.712000 0.106000 0.774700
N87 N 0.745000 0.939100 0.264290
C88 C 0.611800 0.871600 0.328600
H89 H 0.563100 0.891500 0.356200
H90 H 0.666800 0.825200 0.341500
H91 H 0.569000 0.839300 0.302000
C92 C 0.667300 0.960900 0.307500
H93 H 0.708700 0.993800 0.334900
H94 H 0.610900 1.008000 0.295600
C95 C 0.686800 0.907000 0.217000
H96 H 0.627500 0.860900 0.226600
H97 H 0.652200 0.966000 0.201500
C98 C 0.756200 0.857900 0.177900
H99 H 0.710800 0.839600 0.148900
H100 H 0.789600 0.798200 0.192200
H101 H 0.813800 0.903600 0.166900
C102 C 0.874600 1.077400 0.283100
H103 H 0.911400 1.131400 0.265100
H104 H 0.929500 1.034200 0.298700
H105 H 0.827300 1.105100 0.309400
C106 C 0.817000 1.027400 0.252100
H107 H 0.868600 1.004100 0.225800
H108 H 0.768500 1.076000 0.235300
H109 H 0.788000 0.894000 0.274700
N110 N 0.245000 0.560900 0.735710
C111 C 0.111800 0.628400 0.671400
H112 H 0.063100 0.608500 0.643800
H113 H 0.166800 0.674800 0.658500
H114 H 0.069000 0.660700 0.698000
C115 C 0.167300 0.539100 0.692500
H116 H 0.208700 0.506200 0.665100
H117 H 0.110900 0.492000 0.704400
C118 C 0.186800 0.593000 0.783000
H119 H 0.127500 0.639100 0.773400
H120 H 0.152200 0.534000 0.798500
C121 C 0.256200 0.642100 0.822100
H122 H 0.210800 0.660400 0.851100
H123 H 0.289600 0.701800 0.807800
H124 H 0.313800 0.596400 0.833100
C125 C 0.374600 0.422600 0.716900
H126 H 0.411400 0.368600 0.734900
H127 H 0.429500 0.465800 0.701300
H128 H 0.327300 0.394900 0.690600
C129 C 0.317000 0.472600 0.747900
H130 H 0.368600 0.495900 0.774200
H131 H 0.268500 0.424000 0.764700
H132 H 0.288000 0.606000 0.725300
N133 N 0.745000 0.560900 0.764290
C134 C 0.611800 0.628400 0.828600
H135 H 0.563100 0.608500 0.856200
H136 H 0.666800 0.674800 0.841500
H137 H 0.569000 0.660700 0.802000
C138 C 0.667300 0.539100 0.807500
H139 H 0.708700 0.506200 0.834900
H140 H 0.610900 0.492000 0.795600
C141 C 0.686800 0.593000 0.717000
H142 H 0.627500 0.639100 0.726600
H143 H 0.652200 0.534000 0.701500
C144 C 0.756200 0.642100 0.677900
H145 H 0.710800 0.660400 0.648900
H146 H 0.789600 0.701800 0.692200
H147 H 0.813800 0.596400 0.666900
C148 C 0.874600 0.422600 0.783100
H149 H 0.911400 0.368600 0.765100
H150 H 0.929500 0.465800 0.798700
H151 H 0.827300 0.394900 0.809400
C152 C 0.817000 0.472600 0.752100
H153 H 0.868600 0.495900 0.725800
H154 H 0.768500 0.424000 0.735300
H155 H 0.788000 0.606000 0.774700
N156 N 0.245000 0.939100 0.235710
C157 C 0.111800 0.871600 0.171400
H158 H 0.063100 0.891500 0.143800
H159 H 0.166800 0.825200 0.158500
H160 H 0.069000 0.839300 0.198000
C161 C 0.167300 0.960900 0.192500
H162 H 0.208700 0.993800 0.165100
H163 H 0.110900 1.008000 0.204400
C164 C 0.186800 0.907000 0.283000
H165 H 0.127500 0.860900 0.273400
H166 H 0.152200 0.966000 0.298500
C167 C 0.256200 0.857900 0.322100
H168 H 0.210800 0.839600 0.351100
H169 H 0.289600 0.798200 0.307800
H170 H 0.313800 0.903600 0.333100
C171 C 0.374600 1.077400 0.216900
H172 H 0.411400 1.131400 0.234900
H173 H 0.429500 1.034200 0.201300
H174 H 0.327300 1.105100 0.190600
C175 C 0.317000 1.027400 0.247900
H176 H 0.368600 1.004100 0.274200
H177 H 0.268500 1.076000 0.264700
H178 H 0.288000 0.894000 0.225300
N179 N 0.255000 0.060900 0.735710
C180 C 0.388200 0.128400 0.671400
H181 H 0.436900 0.108500 0.643800
H182 H 0.333200 0.174800 0.658500
H183 H 0.431000 0.160700 0.698000
C184 C 0.332700 0.039100 0.692500
H185 H 0.291300 0.006200 0.665100
H186 H 0.389100 -0.008000 0.704400
C187 C 0.313200 0.093000 0.783000
H188 H 0.372500 0.139100 0.773400
H189 H 0.347800 0.034000 0.798500
C190 C 0.243800 0.142100 0.822100
H191 H 0.289200 0.160400 0.851100
H192 H 0.210400 0.201800 0.807800
H193 H 0.186200 0.096400 0.833100
C194 C 0.125400 -0.077400 0.716900
H195 H 0.088600 -0.131400 0.734900
H196 H 0.070500 -0.034200 0.701300
H197 H 0.172700 -0.105100 0.690600
C198 C 0.183000 -0.027400 0.747900
H199 H 0.131400 -0.004100 0.774200
H200 H 0.231500 -0.076000 0.764700
H201 H 0.212000 0.106000 0.725300
N202 N 0.755000 0.439100 0.264290
C203 C 0.888200 0.371600 0.328600
H204 H 0.936900 0.391500 0.356200
H205 H 0.833200 0.325200 0.341500
H206 H 0.931000 0.339300 0.302000
C207 C 0.832700 0.460900 0.307500
H208 H 0.791300 0.493800 0.334900
H209 H 0.889100 0.508000 0.295600
C210 C 0.813200 0.407000 0.217000
H211 H 0.872500 0.360900 0.226600
H212 H 0.847800 0.466000 0.201500
C213 C 0.743800 0.357900 0.177900
H214 H 0.789200 0.339600 0.148900
H215 H 0.710400 0.298200 0.192200
H216 H 0.686200 0.403600 0.166900
C217 C 0.625400 0.577400 0.283100
H218 H 0.588600 0.631400 0.265100
H219 H 0.570500 0.534200 0.298700
H220 H 0.672700 0.605100 0.309400
C221 C 0.683000 0.527400 0.252100
H222 H 0.631400 0.504100 0.225800
H223 H 0.731500 0.576000 0.235300
H224 H 0.712000 0.394000 0.274700
N225 N 0.118700 0.309200 0.976740
C226 C 0.231500 0.456600 1.004700
H227 H 0.306600 0.481600 1.006600
H228 H 0.200300 0.453200 1.038700
H229 H 0.187400 0.501300 0.983900
C230 C 0.231900 0.353700 0.981200
H231 H 0.265100 0.357500 0.947200
H232 H 0.278000 0.309300 1.002000
C233 C 0.126300 0.200300 0.959800
H234 H 0.146800 0.198000 0.923600
H235 H 0.184700 0.166900 0.979300
C236 C 0.019000 0.144600 0.967300
H237 H 0.027900 0.075800 0.956300
H238 H -0.038600 0.176300 0.947300
H239 H -0.001100 0.146000 1.003100
C240 C 0.073400 0.378600 0.889400
H241 H 0.019400 0.418200 0.870900
H242 H 0.077600 0.312200 0.874600
H243 H 0.145100 0.410700 0.887200
C244 C 0.039000 0.370500 0.945000
H245 H 0.033600 0.437900 0.959500
H246 H -0.034400 0.339800 0.946800
H247 H 0.089000 0.310000 1.008400
N248 N 0.618700 0.190800 0.023260
C249 C 0.731500 0.043400 -0.004700
H250 H 0.806600 0.018400 -0.006600
H251 H 0.700300 0.046800 -0.038700
H252 H 0.687400 -0.001300 0.016100
C253 C 0.731900 0.146300 0.018800
H254 H 0.765100 0.142500 0.052800
H255 H 0.778000 0.190700 -0.002000
C256 C 0.626300 0.299700 0.040200
H257 H 0.646800 0.302000 0.076400
H258 H 0.684700 0.333100 0.020700
C259 C 0.519000 0.355400 0.032700
H260 H 0.527900 0.424200 0.043700
H261 H 0.461400 0.323700 0.052700
H262 H 0.498900 0.354000 -0.003100
C263 C 0.573400 0.121400 0.110600
H264 H 0.519400 0.081800 0.129100
H265 H 0.577600 0.187800 0.125400
H266 H 0.645100 0.089300 0.112800
C267 C 0.539000 0.129500 0.055000
H268 H 0.533600 0.062100 0.040500
H269 H 0.465600 0.160200 0.053200
H270 H 0.589000 0.190000 -0.008400
N271 N 0.881300 0.809200 0.523260
C272 C 0.768500 0.956600 0.495300
H273 H 0.693400 0.981600 0.493400
H274 H 0.799700 0.953200 0.461300
H275 H 0.812600 1.001300 0.516100
C276 C 0.768100 0.853700 0.518800
H277 H 0.734900 0.857500 0.552800
H278 H 0.722000 0.809300 0.498000
C279 C 0.873700 0.700300 0.540200
H280 H 0.853200 0.698000 0.576400
H281 H 0.815300 0.666900 0.520700
C282 C 0.981000 0.644600 0.532700
H283 H 0.972100 0.575800 0.543700
H284 H 1.038600 0.676300 0.552700
H285 H 1.001100 0.646000 0.496900
C286 C 0.926600 0.878600 0.610600
H287 H 0.980600 0.918200 0.629100
H288 H 0.922400 0.812200 0.625400
H289 H 0.854900 0.910700 0.612800
C290 C 0.961000 0.870500 0.555000
H291 H 0.966400 0.937900 0.540500
H292 H 1.034400 0.839800 0.553200
H293 H 0.911000 0.810000 0.491600
N294 N 0.381300 0.690800 0.476740
C295 C 0.268500 0.543400 0.504700
H296 H 0.193400 0.518400 0.506600
H297 H 0.299700 0.546800 0.538700
H298 H 0.312600 0.498700 0.483900
C299 C 0.268100 0.646300 0.481200
H300 H 0.234900 0.642500 0.447200
H301 H 0.222000 0.690700 0.502000
C302 C 0.373700 0.799700 0.459800
H303 H 0.353200 0.802000 0.423600
H304 H 0.315300 0.833100 0.479300
C305 C 0.481000 0.855400 0.467300
H306 H 0.472100 0.924200 0.456300
H307 H 0.538600 0.823700 0.447300
H308 H 0.501100 0.854000 0.503100
C309 C 0.426600 0.621400 0.389400
H310 H 0.480600 0.581800 0.370900
H311 H 0.422400 0.687800 0.374600
H312 H 0.354900 0.589300 0.387200
C313 C 0.461000 0.629500 0.445000
H314 H 0.466400 0.562100 0.459500
H315 H 0.534400 0.660200 0.446800
H316 H 0.411000 0.690000 0.508400
N317 N 0.881300 0.690800 0.023260
C318 C 0.768500 0.543400 -0.004700
H319 H 0.693400 0.518400 -0.006600
H320 H 0.799700 0.546800 -0.038700
H321 H 0.812600 0.498700 0.016100
C322 C 0.768100 0.646300 0.018800
H323 H 0.734900 0.642500 0.052800
H324 H 0.722000 0.690700 -0.002000
C325 C 0.873700 0.799700 0.040200
H326 H 0.853200 0.802000 0.076400
H327 H 0.815300 0.833100 0.020700
C328 C 0.981000 0.855400 0.032700
H329 H 0.972100 0.924200 0.043700
H330 H 1.038600 0.823700 0.052700
H331 H 1.001100 0.854000 -0.003100
C332 C 0.926600 0.621400 0.110600
H333 H 0.980600 0.581800 0.129100
H334 H 0.922400 0.687800 0.125400
H335 H 0.854900 0.589300 0.112800
C336 C 0.961000 0.629500 0.055000
H337 H 0.966400 0.562100 0.040500
H338 H 1.034400 0.660200 0.053200
H339 H 0.911000 0.690000 -0.008400
N340 N 0.381300 0.809200 0.976740
C341 C 0.268500 0.956600 1.004700
H342 H 0.193400 0.981600 1.006600
H343 H 0.299700 0.953200 1.038700
H344 H 0.312600 1.001300 0.983900
C345 C 0.268100 0.853700 0.981200
H346 H 0.234900 0.857500 0.947200
H347 H 0.222000 0.809300 1.002000
C348 C 0.373700 0.700300 0.959800
H349 H 0.353200 0.698000 0.923600
H350 H 0.315300 0.666900 0.979300
C351 C 0.481000 0.644600 0.967300
H352 H 0.472100 0.575800 0.956300
H353 H 0.538600 0.676300 0.947300
H354 H 0.501100 0.646000 1.003100
C355 C 0.426600 0.878600 0.889400
H356 H 0.480600 0.918200 0.870900
H357 H 0.422400 0.812200 0.874600
H358 H 0.354900 0.910700 0.887200
C359 C 0.461000 0.870500 0.945000
H360 H 0.466400 0.937900 0.959500
H361 H 0.534400 0.839800 0.946800
H362 H 0.411000 0.810000 1.008400
N363 N 0.118700 0.190800 0.476740
C364 C 0.231500 0.043400 0.504700
H365 H 0.306600 0.018400 0.506600
H366 H 0.200300 0.046800 0.538700
H367 H 0.187400 -0.001300 0.483900
C368 C 0.231900 0.146300 0.481200
H369 H 0.265100 0.142500 0.447200
H370 H 0.278000 0.190700 0.502000
C371 C 0.126300 0.299700 0.459800
H372 H 0.146800 0.302000 0.423600
H373 H 0.184700 0.333100 0.479300
C374 C 0.019000 0.355400 0.467300
H375 H 0.027900 0.424200 0.456300
H376 H -0.038600 0.323700 0.447300
H377 H -0.001100 0.354000 0.503100
C378 C 0.073400 0.121400 0.389400
H379 H 0.019400 0.081800 0.370900
H380 H 0.077600 0.187800 0.374600
H381 H 0.145100 0.089300 0.387200
C382 C 0.039000 0.129500 0.445000
H383 H 0.033600 0.062100 0.459500
H384 H -0.034400 0.160200 0.446800
H385 H 0.089000 0.190000 0.508400
N386 N 0.618700 0.309200 0.523260
C387 C 0.731500 0.456600 0.495300
H388 H 0.806600 0.481600 0.493400
H389 H 0.700300 0.453200 0.461300
H390 H 0.687400 0.501300 0.516100
C391 C 0.731900 0.353700 0.518800
H392 H 0.765100 0.357500 0.552800
H393 H 0.778000 0.309300 0.498000
C394 C 0.626300 0.200300 0.540200
H395 H 0.646800 0.198000 0.576400
H396 H 0.684700 0.166900 0.520700
C397 C 0.519000 0.144600 0.532700
H398 H 0.527900 0.075800 0.543700
H399 H 0.461400 0.176300 0.552700
H400 H 0.498900 0.146000 0.496900
C401 C 0.573400 0.378600 0.610600
H402 H 0.519400 0.418200 0.629100
H403 H 0.577600 0.312200 0.625400
H404 H 0.645100 0.410700 0.612800
C405 C 0.539000 0.370500 0.555000
H406 H 0.533600 0.437900 0.540500
H407 H 0.465600 0.339800 0.553200
H408 H 0.589000 0.310000 0.491600

#END
