
#######################################################################
#
#                 Cambridge Crystallographic Data Centre
#                                CCDC 
#
#######################################################################
#
# If this CIF has been generated from an entry in the Cambridge 
# Structural Database, then it will include bibliographic, chemical, 
# crystal, experimental, refinement or atomic coordinate data resulting 
# from the CCDC's data processing and validation procedures.
#
#######################################################################

data_ACUJOX
_symmetry_cell_setting           orthorhombic
_symmetry_space_group_name_H-M   'P 21 21 21'
_symmetry_Int_Tables_number      19
_space_group_name_Hall           'P 2ac 2ab'
loop_
_symmetry_equiv_pos_site_id
_symmetry_equiv_pos_as_xyz
1 x,y,z
2 1/2-x,-y,1/2+z
3 -x,1/2+y,1/2-z
4 1/2+x,1/2-y,-z
_cell_length_a                   9.023(3)
_cell_length_b                   11.0408(16)
_cell_length_c                   16.112(3)
_cell_angle_alpha                90
_cell_angle_beta                 90
_cell_angle_gamma                90
_cell_volume                     1605.1
loop_
_atom_site_label
_atom_site_type_symbol
_atom_site_fract_x
_atom_site_fract_y
_atom_site_fract_z
O1 O 0.5265(3) 0.7280(3) 0.07200(16)
N1 N 0.4586(4) 0.8282(3) 0.1189(2)
O2 O 0.8581(3) 0.5735(3) 0.11777(19)
O3 O 0.3991(3) 0.9218(3) 0.2802(2)
O4 O 0.6774(4) 0.5221(3) 0.0293(2)
O5 O 0.8021(3) 0.6748(3) 0.28551(19)
O6 O 0.9253(3) 0.8304(3) 0.2280(2)
O7 O 0.6328(4) 0.9509(4) 0.30550(19)
C1 C 0.5852(4) 0.8794(4) 0.1692(2)
C2 C 0.6471(4) 0.9882(4) 0.1224(2)
C3 C 0.5746(5) 1.0983(4) 0.1248(3)
H1 H 0.4925 1.1073 0.1591
C4 C 0.6207(5) 1.1948(4) 0.0776(3)
H2 H 0.5710 1.2685 0.0808
C5 C 0.7416(5) 1.1818(4) 0.0255(3)
H3 H 0.7728 1.2464 -0.0071
C6 C 0.8146(5) 1.0737(4) 0.0221(3)
H4 H 0.8955 1.0646 -0.0131
C7 C 0.7688(5) 0.9776(4) 0.0708(2)
H5 H 0.8205 0.9048 0.0689
C8 C 0.5406(5) 0.9202(4) 0.2562(3)
C9 C 0.2884(5) 0.8762(4) 0.2233(3)
H6 H 0.2569 0.9413 0.1869
H7 H 0.2027 0.8494 0.2546
C10 C 0.3444(5) 0.7730(4) 0.1715(3)
H8 H 0.3882 0.7105 0.2070
C11 C 0.2220(5) 0.7195(5) 0.1191(3)
H9 H 0.1824 0.7809 0.0832
H10 H 0.1448 0.6894 0.1545
H11 H 0.2610 0.6543 0.0863
C12 C 0.6514(4) 0.6944(4) 0.1152(2)
C13 C 0.6893(4) 0.7726(4) 0.1738(2)
C14 C 0.7259(5) 0.5863(4) 0.0814(3)
C15 C 0.9490(5) 0.4744(4) 0.0883(3)
H12 H 0.8928 0.4006 0.0900
H13 H 1.0349 0.4667 0.1230
H14 H 0.9794 0.4903 0.0322
C16 C 0.8203(5) 0.7640(4) 0.2312(3)
C17 C 0.9281(6) 0.6501(5) 0.3387(3)
H15 H 1.0078 0.6177 0.3060
H16 H 0.9002 0.5924 0.3804
H17 H 0.9598 0.7238 0.3648
O1 O 0.9735(3) 0.2720(3) 0.57200(16)
N1 N 1.0414(4) 0.1718(3) 0.6189(2)
O2 O 0.6419(3) 0.4265(3) 0.61777(19)
O3 O 1.1009(3) 0.0782(3) 0.7802(2)
O4 O 0.8226(4) 0.4779(3) 0.5293(2)
O5 O 0.6979(3) 0.3252(3) 0.78551(19)
O6 O 0.5747(3) 0.1696(3) 0.7280(2)
O7 O 0.8672(4) 0.0491(4) 0.80550(19)
C1 C 0.9148(4) 0.1206(4) 0.6692(2)
C2 C 0.8529(4) 0.0118(4) 0.6224(2)
C3 C 0.9254(5) -0.0983(4) 0.6248(3)
H1 H 1.0075 -0.1073 0.6591
C4 C 0.8793(5) -0.1948(4) 0.5776(3)
H2 H 0.9290 -0.2685 0.5808
C5 C 0.7584(5) -0.1818(4) 0.5255(3)
H3 H 0.7272 -0.2464 0.4929
C6 C 0.6854(5) -0.0737(4) 0.5221(3)
H4 H 0.6045 -0.0646 0.4869
C7 C 0.7312(5) 0.0224(4) 0.5708(2)
H5 H 0.6795 0.0952 0.5689
C8 C 0.9594(5) 0.0798(4) 0.7562(3)
C9 C 1.2116(5) 0.1238(4) 0.7233(3)
H6 H 1.2431 0.0587 0.6869
H7 H 1.2973 0.1506 0.7546
C10 C 1.1556(5) 0.2270(4) 0.6715(3)
H8 H 1.1118 0.2895 0.7070
C11 C 1.2780(5) 0.2805(5) 0.6191(3)
H9 H 1.3176 0.2191 0.5832
H10 H 1.3552 0.3106 0.6545
H11 H 1.2390 0.3457 0.5863
C12 C 0.8486(4) 0.3056(4) 0.6152(2)
C13 C 0.8107(4) 0.2274(4) 0.6738(2)
C14 C 0.7741(5) 0.4137(4) 0.5814(3)
C15 C 0.5510(5) 0.5256(4) 0.5883(3)
H12 H 0.6072 0.5994 0.5900
H13 H 0.4651 0.5333 0.6230
H14 H 0.5206 0.5097 0.5322
C16 C 0.6797(5) 0.2360(4) 0.7312(3)
C17 C 0.5719(6) 0.3499(5) 0.8387(3)
H15 H 0.4922 0.3823 0.8060
H16 H 0.5998 0.4076 0.8804
H17 H 0.5402 0.2762 0.8648
O1 O 0.4735(3) 0.2280(3) 0.42800(16)
N1 N 0.5414(4) 0.3282(3) 0.3811(2)
O2 O 0.1419(3) 0.0735(3) 0.38223(19)
O3 O 0.6009(3) 0.4218(3) 0.2198(2)
O4 O 0.3226(4) 0.0221(3) 0.4707(2)
O5 O 0.1979(3) 0.1748(3) 0.21449(19)
O6 O 0.0747(3) 0.3304(3) 0.2720(2)
O7 O 0.3672(4) 0.4509(4) 0.19450(19)
C1 C 0.4148(4) 0.3794(4) 0.3308(2)
C2 C 0.3529(4) 0.4882(4) 0.3776(2)
C3 C 0.4254(5) 0.5983(4) 0.3752(3)
H1 H 0.5075 0.6073 0.3409
C4 C 0.3793(5) 0.6948(4) 0.4224(3)
H2 H 0.4290 0.7685 0.4192
C5 C 0.2584(5) 0.6818(4) 0.4745(3)
H3 H 0.2272 0.7464 0.5071
C6 C 0.1854(5) 0.5737(4) 0.4779(3)
H4 H 0.1045 0.5646 0.5131
C7 C 0.2312(5) 0.4776(4) 0.4292(2)
H5 H 0.1795 0.4048 0.4311
C8 C 0.4594(5) 0.4202(4) 0.2438(3)
C9 C 0.7116(5) 0.3762(4) 0.2767(3)
H6 H 0.7431 0.4413 0.3131
H7 H 0.7973 0.3494 0.2454
C10 C 0.6556(5) 0.2730(4) 0.3285(3)
H8 H 0.6118 0.2105 0.2930
C11 C 0.7780(5) 0.2195(5) 0.3809(3)
H9 H 0.8176 0.2809 0.4168
H10 H 0.8552 0.1894 0.3455
H11 H 0.7390 0.1543 0.4137
C12 C 0.3486(4) 0.1944(4) 0.3848(2)
C13 C 0.3107(4) 0.2726(4) 0.3262(2)
C14 C 0.2741(5) 0.0863(4) 0.4186(3)
C15 C 0.0510(5) -0.0256(4) 0.4117(3)
H12 H 0.1072 -0.0994 0.4100
H13 H -0.0349 -0.0333 0.3770
H14 H 0.0206 -0.0097 0.4678
C16 C 0.1797(5) 0.2640(4) 0.2688(3)
C17 C 0.0719(6) 0.1501(5) 0.1613(3)
H15 H -0.0078 0.1177 0.1940
H16 H 0.0998 0.0924 0.1196
H17 H 0.0402 0.2238 0.1352
O1 O 0.0265(3) 0.7720(3) 0.92800(16)
N1 N -0.0414(4) 0.6718(3) 0.8811(2)
O2 O 0.3581(3) 0.9265(3) 0.88223(19)
O3 O -0.1009(3) 0.5782(3) 0.7198(2)
O4 O 0.1774(4) 0.9779(3) 0.9707(2)
O5 O 0.3021(3) 0.8252(3) 0.71449(19)
O6 O 0.4253(3) 0.6696(3) 0.7720(2)
O7 O 0.1328(4) 0.5491(4) 0.69450(19)
C1 C 0.0852(4) 0.6206(4) 0.8308(2)
C2 C 0.1471(4) 0.5118(4) 0.8776(2)
C3 C 0.0746(5) 0.4017(4) 0.8752(3)
H1 H -0.0075 0.3927 0.8409
C4 C 0.1207(5) 0.3052(4) 0.9224(3)
H2 H 0.0710 0.2315 0.9192
C5 C 0.2416(5) 0.3182(4) 0.9745(3)
H3 H 0.2728 0.2536 1.0071
C6 C 0.3146(5) 0.4263(4) 0.9779(3)
H4 H 0.3955 0.4354 1.0131
C7 C 0.2688(5) 0.5224(4) 0.9292(2)
H5 H 0.3205 0.5952 0.9311
C8 C 0.0406(5) 0.5798(4) 0.7438(3)
C9 C -0.2116(5) 0.6238(4) 0.7767(3)
H6 H -0.2431 0.5587 0.8131
H7 H -0.2973 0.6506 0.7454
C10 C -0.1556(5) 0.7270(4) 0.8285(3)
H8 H -0.1118 0.7895 0.7930
C11 C -0.2780(5) 0.7805(5) 0.8809(3)
H9 H -0.3176 0.7191 0.9168
H10 H -0.3552 0.8106 0.8455
H11 H -0.2390 0.8457 0.9137
C12 C 0.1514(4) 0.8056(4) 0.8848(2)
C13 C 0.1893(4) 0.7274(4) 0.8262(2)
C14 C 0.2259(5) 0.9137(4) 0.9186(3)
C15 C 0.4490(5) 1.0256(4) 0.9117(3)
H12 H 0.3928 1.0994 0.9100
H13 H 0.5349 1.0333 0.8770
H14 H 0.4794 1.0097 0.9678
C16 C 0.3203(5) 0.7360(4) 0.7688(3)
C17 C 0.4281(6) 0.8499(5) 0.6613(3)
H15 H 0.5078 0.8823 0.6940
H16 H 0.4002 0.9076 0.6196
H17 H 0.4598 0.7762 0.6352

#END
