./ACUJOX_from_xyz.cif_generated_by_CrystalShift
_symmetry_cell_setting triclinic
_symmetry_space_group_name_H-M 'P 1'
loop_
_symmetry_equiv_pos_site_id
_symmetry_equiv_pos_as_xyz
1 x,y,z
_cell_length_a 9.023000
_cell_length_b 11.040800
_cell_length_c 16.112000
_cell_angle_alpha 90.000000
_cell_angle_beta 90.000000
_cell_angle_gamma 90.000000
_cell_volume 1605.095782
loop_
_atom_site_label
_atom_site_type_symbol
_atom_site_fract_x
_atom_site_fract_y
_atom_site_fract_z
O1 O 0.526500 0.728000 0.072000
N2 N 0.458600 0.828200 0.118900
O3 O 0.858100 0.573500 0.117770
O4 O 0.399100 0.921800 0.280200
O5 O 0.677400 0.522100 0.029300
O6 O 0.802100 0.674800 0.285510
O7 O 0.925300 0.830400 0.228000
O8 O 0.632800 0.950900 0.305500
C9 C 0.585200 0.879400 0.169200
C10 C 0.647100 0.988200 0.122400
C11 C 0.574600 1.098300 0.124800
H12 H 0.492500 1.107300 0.159100
C13 C 0.620700 1.194800 0.077600
H14 H 0.571000 1.268500 0.080800
C15 C 0.741600 1.181800 0.025500
H16 H 0.772800 1.246400 -0.007100
C17 C 0.814600 1.073700 0.022100
H18 H 0.895500 1.064600 -0.013100
C19 C 0.768800 0.977600 0.070800
H20 H 0.820500 0.904800 0.068900
C21 C 0.540600 0.920200 0.256200
C22 C 0.288400 0.876200 0.223300
H23 H 0.256900 0.941300 0.186900
H24 H 0.202700 0.849400 0.254600
C25 C 0.344400 0.773000 0.171500
H26 H 0.388200 0.710500 0.207000
C27 C 0.222000 0.719500 0.119100
H28 H 0.182400 0.780900 0.083200
H29 H 0.144800 0.689400 0.154500
H30 H 0.261000 0.654300 0.086300
C31 C 0.651400 0.694400 0.115200
C32 C 0.689300 0.772600 0.173800
C33 C 0.725900 0.586300 0.081400
C34 C 0.949000 0.474400 0.088300
H35 H 0.892800 0.400600 0.090000
H36 H 1.034900 0.466700 0.123000
H37 H 0.979400 0.490300 0.032200
C38 C 0.820300 0.764000 0.231200
C39 C 0.928100 0.650100 0.338700
H40 H 1.007800 0.617700 0.306000
H41 H 0.900200 0.592400 0.380400
H42 H 0.959800 0.723800 0.364800
O43 O 0.973500 0.272000 0.572000
N44 N 1.041400 0.171800 0.618900
O45 O 0.641900 0.426500 0.617770
O46 O 1.100900 0.078200 0.780200
O47 O 0.822600 0.477900 0.529300
O48 O 0.697900 0.325200 0.785510
O49 O 0.574700 0.169600 0.728000
O50 O 0.867200 0.049100 0.805500
C51 C 0.914800 0.120600 0.669200
C52 C 0.852900 0.011800 0.622400
C53 C 0.925400 -0.098300 0.624800
H54 H 1.007500 -0.107300 0.659100
C55 C 0.879300 -0.194800 0.577600
H56 H 0.929000 -0.268500 0.580800
C57 C 0.758400 -0.181800 0.525500
H58 H 0.727200 -0.246400 0.492900
C59 C 0.685400 -0.073700 0.522100
H60 H 0.604500 -0.064600 0.486900
C61 C 0.731200 0.022400 0.570800
H62 H 0.679500 0.095200 0.568900
C63 C 0.959400 0.079800 0.756200
C64 C 1.211600 0.123800 0.723300
H65 H 1.243100 0.058700 0.686900
H66 H 1.297300 0.150600 0.754600
C67 C 1.155600 0.227000 0.671500
H68 H 1.111800 0.289500 0.707000
C69 C 1.278000 0.280500 0.619100
H70 H 1.317600 0.219100 0.583200
H71 H 1.355200 0.310600 0.654500
H72 H 1.239000 0.345700 0.586300
C73 C 0.848600 0.305600 0.615200
C74 C 0.810700 0.227400 0.673800
C75 C 0.774100 0.413700 0.581400
C76 C 0.551000 0.525600 0.588300
H77 H 0.607200 0.599400 0.590000
H78 H 0.465100 0.533300 0.623000
H79 H 0.520600 0.509700 0.532200
C80 C 0.679700 0.236000 0.731200
C81 C 0.571900 0.349900 0.838700
H82 H 0.492200 0.382300 0.806000
H83 H 0.599800 0.407600 0.880400
H84 H 0.540200 0.276200 0.864800
O85 O 0.473500 0.228000 0.428000
N86 N 0.541400 0.328200 0.381100
O87 O 0.141900 0.073500 0.382230
O88 O 0.600900 0.421800 0.219800
O89 O 0.322600 0.022100 0.470700
O90 O 0.197900 0.174800 0.214490
O91 O 0.074700 0.330400 0.272000
O92 O 0.367200 0.450900 0.194500
C93 C 0.414800 0.379400 0.330800
C94 C 0.352900 0.488200 0.377600
C95 C 0.425400 0.598300 0.375200
H96 H 0.507500 0.607300 0.340900
C97 C 0.379300 0.694800 0.422400
H98 H 0.429000 0.768500 0.419200
C99 C 0.258400 0.681800 0.474500
H100 H 0.227200 0.746400 0.507100
C101 C 0.185400 0.573700 0.477900
H102 H 0.104500 0.564600 0.513100
C103 C 0.231200 0.477600 0.429200
H104 H 0.179500 0.404800 0.431100
C105 C 0.459400 0.420200 0.243800
C106 C 0.711600 0.376200 0.276700
H107 H 0.743100 0.441300 0.313100
H108 H 0.797300 0.349400 0.245400
C109 C 0.655600 0.273000 0.328500
H110 H 0.611800 0.210500 0.293000
C111 C 0.778000 0.219500 0.380900
H112 H 0.817600 0.280900 0.416800
H113 H 0.855200 0.189400 0.345500
H114 H 0.739000 0.154300 0.413700
C115 C 0.348600 0.194400 0.384800
C116 C 0.310700 0.272600 0.326200
C117 C 0.274100 0.086300 0.418600
C118 C 0.051000 -0.025600 0.411700
H119 H 0.107200 -0.099400 0.410000
H120 H -0.034900 -0.033300 0.377000
H121 H 0.020600 -0.009700 0.467800
C122 C 0.179700 0.264000 0.268800
C123 C 0.071900 0.150100 0.161300
H124 H -0.007800 0.117700 0.194000
H125 H 0.099800 0.092400 0.119600
H126 H 0.040200 0.223800 0.135200
O127 O 0.026500 0.772000 0.928000
N128 N -0.041400 0.671800 0.881100
O129 O 0.358100 0.926500 0.882230
O130 O -0.100900 0.578200 0.719800
O131 O 0.177400 0.977900 0.970700
O132 O 0.302100 0.825200 0.714490
O133 O 0.425300 0.669600 0.772000
O134 O 0.132800 0.549100 0.694500
C135 C 0.085200 0.620600 0.830800
C136 C 0.147100 0.511800 0.877600
C137 C 0.074600 0.401700 0.875200
H138 H -0.007500 0.392700 0.840900
C139 C 0.120700 0.305200 0.922400
H140 H 0.071000 0.231500 0.919200
C141 C 0.241600 0.318200 0.974500
H142 H 0.272800 0.253600 1.007100
C143 C 0.314600 0.426300 0.977900
H144 H 0.395500 0.435400 1.013100
C145 C 0.268800 0.522400 0.929200
H146 H 0.320500 0.595200 0.931100
C147 C 0.040600 0.579800 0.743800
C148 C -0.211600 0.623800 0.776700
H149 H -0.243100 0.558700 0.813100
H150 H -0.297300 0.650600 0.745400
C151 C -0.155600 0.727000 0.828500
H152 H -0.111800 0.789500 0.793000
C153 C -0.278000 0.780500 0.880900
H154 H -0.317600 0.719100 0.916800
H155 H -0.355200 0.810600 0.845500
H156 H -0.239000 0.845700 0.913700
C157 C 0.151400 0.805600 0.884800
C158 C 0.189300 0.727400 0.826200
C159 C 0.225900 0.913700 0.918600
C160 C 0.449000 1.025600 0.911700
H161 H 0.392800 1.099400 0.910000
H162 H 0.534900 1.033300 0.877000
H163 H 0.479400 1.009700 0.967800
C164 C 0.320300 0.736000 0.768800
C165 C 0.428100 0.849900 0.661300
H166 H 0.507800 0.882300 0.694000
H167 H 0.400200 0.907600 0.619600
H168 H 0.459800 0.776200 0.635200

#END
