./ACUKIS01_from_xyz.cif_generated_by_CrystalShift
_symmetry_cell_setting triclinic
_symmetry_space_group_name_H-M 'P 1'
loop_
_symmetry_equiv_pos_site_id
_symmetry_equiv_pos_as_xyz
1 x,y,z
_cell_length_a 9.692000
_cell_length_b 67.570000
_cell_length_c 17.028000
_cell_angle_alpha 90.000000
_cell_angle_beta 90.000000
_cell_angle_gamma 90.000000
_cell_volume 11151.440356
loop_
_atom_site_label
_atom_site_type_symbol
_atom_site_fract_x
_atom_site_fract_y
_atom_site_fract_z
Sn1 Sn 1.072000 0.058830 0.077000
O2 O 0.916250 0.077340 0.192750
O3 O 0.726750 0.069650 0.259750
C4 C 0.868500 0.046600 0.080000
C5 C 0.886500 0.023100 0.101500
C6 C 0.752000 0.013300 0.079000
C7 C 0.657250 0.019100 0.127250
C8 C 0.723750 0.033000 0.187250
C9 C 0.755750 0.052550 0.140750
C10 C 0.866250 0.024550 0.191250
C11 C 0.810000 0.067900 0.200000
C12 C 0.766750 0.082950 0.320750
C13 C 0.628500 0.061150 0.096000
C14 C 0.637250 0.080000 0.055750
C15 C 0.649000 0.098250 0.092500
C16 C 0.657000 0.115200 0.051000
C17 C 0.652250 0.115150 -0.029250
C18 C 0.633000 0.097150 -0.066000
C19 C 0.629250 0.079800 -0.025750
C20 C 1.103000 0.088400 0.035500
C21 C 0.995000 0.098500 -0.001000
C22 C 1.018500 0.117100 -0.034500
C23 C 1.145750 0.124800 -0.033250
C24 C 1.253250 0.114850 -0.000750
C25 C 1.228750 0.096200 0.031750
C26 C 1.198500 0.055500 0.177500
C27 C 1.237750 0.072150 0.222750
C28 C 1.328500 0.070800 0.284000
C29 C 1.388250 0.053150 0.303250
C30 C 1.351750 0.036550 0.261250
C31 C 1.261750 0.037500 0.198250
C32 C 1.177250 0.039600 -0.004750
C33 C 1.319750 0.039600 -0.007750
C34 C 1.391500 0.027300 -0.059000
C35 C 1.322250 0.015100 -0.108750
C36 C 1.181250 0.014650 -0.107750
C37 C 1.109000 0.026700 -0.056500
H38 H 0.830030 0.047600 0.029670
H39 H 0.968700 0.016800 0.084800
H40 H 0.738600 0.004300 0.037700
H41 H 0.562730 0.015450 0.126730
H42 H 0.676820 0.034450 0.236970
H43 H 0.869080 0.012000 0.217330
H44 H 0.930500 0.033150 0.216500
H45 H 0.852170 0.078650 0.343980
H46 H 0.777070 0.095900 0.301520
H47 H 0.698300 0.082950 0.362050
H48 H 0.603600 0.051650 0.058600
H49 H 0.556700 0.062450 0.134350
H50 H 0.652150 0.098800 0.148800
H51 H 0.666600 0.127350 0.078950
H52 H 0.661100 0.127050 -0.057700
H53 H 0.621250 0.096900 -0.120250
H54 H 0.622250 0.067650 -0.052150
H55 H 0.905100 0.092850 -0.001250
H56 H 0.945230 0.124250 -0.057730
H57 H 1.161150 0.137500 -0.054250
H58 H 1.343170 0.120450 0.000720
H59 H 1.304220 0.088850 0.052630
H60 H 1.199400 0.084700 0.211000
H61 H 1.349650 0.082300 0.314450
H62 H 1.453700 0.052350 0.345500
H63 H 1.389050 0.024050 0.277100
H64 H 1.242720 0.025950 0.169420
H65 H 1.369280 0.048200 0.026820
H66 H 1.489720 0.027300 -0.057530
H67 H 1.371850 0.007050 -0.143550
H68 H 1.132500 0.006000 -0.141150
H69 H 1.010980 0.026400 -0.055670
Sn70 Sn -0.072000 0.941170 0.077000
O71 O 0.083750 0.922660 0.192750
O72 O 0.273250 0.930350 0.259750
C73 C 0.131500 0.953400 0.080000
C74 C 0.113500 0.976900 0.101500
C75 C 0.248000 0.986700 0.079000
C76 C 0.342750 0.980900 0.127250
C77 C 0.276250 0.967000 0.187250
C78 C 0.244250 0.947450 0.140750
C79 C 0.133750 0.975450 0.191250
C80 C 0.190000 0.932100 0.200000
C81 C 0.233250 0.917050 0.320750
C82 C 0.371500 0.938850 0.096000
C83 C 0.362750 0.920000 0.055750
C84 C 0.351000 0.901750 0.092500
C85 C 0.343000 0.884800 0.051000
C86 C 0.347750 0.884850 -0.029250
C87 C 0.367000 0.902850 -0.066000
C88 C 0.370750 0.920200 -0.025750
C89 C -0.103000 0.911600 0.035500
C90 C 0.005000 0.901500 -0.001000
C91 C -0.018500 0.882900 -0.034500
C92 C -0.145750 0.875200 -0.033250
C93 C -0.253250 0.885150 -0.000750
C94 C -0.228750 0.903800 0.031750
C95 C -0.198500 0.944500 0.177500
C96 C -0.237750 0.927850 0.222750
C97 C -0.328500 0.929200 0.284000
C98 C -0.388250 0.946850 0.303250
C99 C -0.351750 0.963450 0.261250
C100 C -0.261750 0.962500 0.198250
C101 C -0.177250 0.960400 -0.004750
C102 C -0.319750 0.960400 -0.007750
C103 C -0.391500 0.972700 -0.059000
C104 C -0.322250 0.984900 -0.108750
C105 C -0.181250 0.985350 -0.107750
C106 C -0.109000 0.973300 -0.056500
H107 H 0.169970 0.952400 0.029670
H108 H 0.031300 0.983200 0.084800
H109 H 0.261400 0.995700 0.037700
H110 H 0.437270 0.984550 0.126730
H111 H 0.323180 0.965550 0.236970
H112 H 0.130920 0.988000 0.217330
H113 H 0.069500 0.966850 0.216500
H114 H 0.147830 0.921350 0.343980
H115 H 0.222930 0.904100 0.301520
H116 H 0.301700 0.917050 0.362050
H117 H 0.396400 0.948350 0.058600
H118 H 0.443300 0.937550 0.134350
H119 H 0.347850 0.901200 0.148800
H120 H 0.333400 0.872650 0.078950
H121 H 0.338900 0.872950 -0.057700
H122 H 0.378750 0.903100 -0.120250
H123 H 0.377750 0.932350 -0.052150
H124 H 0.094900 0.907150 -0.001250
H125 H 0.054770 0.875750 -0.057730
H126 H -0.161150 0.862500 -0.054250
H127 H -0.343170 0.879550 0.000720
H128 H -0.304220 0.911150 0.052630
H129 H -0.199400 0.915300 0.211000
H130 H -0.349650 0.917700 0.314450
H131 H -0.453700 0.947650 0.345500
H132 H -0.389050 0.975950 0.277100
H133 H -0.242720 0.974050 0.169420
H134 H -0.369280 0.951800 0.026820
H135 H -0.489720 0.972700 -0.057530
H136 H -0.371850 0.992950 -0.143550
H137 H -0.132500 0.994000 -0.141150
H138 H -0.010980 0.973600 -0.055670
Sn139 Sn 0.178000 0.308830 0.327000
O140 O 0.333750 0.327340 0.442750
O141 O 0.523250 0.319650 0.509750
C142 C 0.381500 0.296600 0.330000
C143 C 0.363500 0.273100 0.351500
C144 C 0.498000 0.263300 0.329000
C145 C 0.592750 0.269100 0.377250
C146 C 0.526250 0.283000 0.437250
C147 C 0.494250 0.302550 0.390750
C148 C 0.383750 0.274550 0.441250
C149 C 0.440000 0.317900 0.450000
C150 C 0.483250 0.332950 0.570750
C151 C 0.621500 0.311150 0.346000
C152 C 0.612750 0.330000 0.305750
C153 C 0.601000 0.348250 0.342500
C154 C 0.593000 0.365200 0.301000
C155 C 0.597750 0.365150 0.220750
C156 C 0.617000 0.347150 0.184000
C157 C 0.620750 0.329800 0.224250
C158 C 0.147000 0.338400 0.285500
C159 C 0.255000 0.348500 0.249000
C160 C 0.231500 0.367100 0.215500
C161 C 0.104250 0.374800 0.216750
C162 C -0.003250 0.364850 0.249250
C163 C 0.021250 0.346200 0.281750
C164 C 0.051500 0.305500 0.427500
C165 C 0.012250 0.322150 0.472750
C166 C -0.078500 0.320800 0.534000
C167 C -0.138250 0.303150 0.553250
C168 C -0.101750 0.286550 0.511250
C169 C -0.011750 0.287500 0.448250
C170 C 0.072750 0.289600 0.245250
C171 C -0.069750 0.289600 0.242250
C172 C -0.141500 0.277300 0.191000
C173 C -0.072250 0.265100 0.141250
C174 C 0.068750 0.264650 0.142250
C175 C 0.141000 0.276700 0.193500
H176 H 0.419970 0.297600 0.279670
H177 H 0.281300 0.266800 0.334800
H178 H 0.511400 0.254300 0.287700
H179 H 0.687270 0.265450 0.376730
H180 H 0.573180 0.284450 0.486970
H181 H 0.380920 0.262000 0.467330
H182 H 0.319500 0.283150 0.466500
H183 H 0.397830 0.328650 0.593980
H184 H 0.472930 0.345900 0.551520
H185 H 0.551700 0.332950 0.612050
H186 H 0.646400 0.301650 0.308600
H187 H 0.693300 0.312450 0.384350
H188 H 0.597850 0.348800 0.398800
H189 H 0.583400 0.377350 0.328950
H190 H 0.588900 0.377050 0.192300
H191 H 0.628750 0.346900 0.129750
H192 H 0.627750 0.317650 0.197850
H193 H 0.344900 0.342850 0.248750
H194 H 0.304770 0.374250 0.192270
H195 H 0.088850 0.387500 0.195750
H196 H -0.093170 0.370450 0.250720
H197 H -0.054220 0.338850 0.302630
H198 H 0.050600 0.334700 0.461000
H199 H -0.099650 0.332300 0.564450
H200 H -0.203700 0.302350 0.595500
H201 H -0.139050 0.274050 0.527100
H202 H 0.007280 0.275950 0.419420
H203 H -0.119280 0.298200 0.276820
H204 H -0.239720 0.277300 0.192470
H205 H -0.121850 0.257050 0.106450
H206 H 0.117500 0.256000 0.108850
H207 H 0.239020 0.276400 0.194330
Sn208 Sn 0.822000 0.691170 0.327000
O209 O 0.666250 0.672660 0.442750
O210 O 0.476750 0.680350 0.509750
C211 C 0.618500 0.703400 0.330000
C212 C 0.636500 0.726900 0.351500
C213 C 0.502000 0.736700 0.329000
C214 C 0.407250 0.730900 0.377250
C215 C 0.473750 0.717000 0.437250
C216 C 0.505750 0.697450 0.390750
C217 C 0.616250 0.725450 0.441250
C218 C 0.560000 0.682100 0.450000
C219 C 0.516750 0.667050 0.570750
C220 C 0.378500 0.688850 0.346000
C221 C 0.387250 0.670000 0.305750
C222 C 0.399000 0.651750 0.342500
C223 C 0.407000 0.634800 0.301000
C224 C 0.402250 0.634850 0.220750
C225 C 0.383000 0.652850 0.184000
C226 C 0.379250 0.670200 0.224250
C227 C 0.853000 0.661600 0.285500
C228 C 0.745000 0.651500 0.249000
C229 C 0.768500 0.632900 0.215500
C230 C 0.895750 0.625200 0.216750
C231 C 1.003250 0.635150 0.249250
C232 C 0.978750 0.653800 0.281750
C233 C 0.948500 0.694500 0.427500
C234 C 0.987750 0.677850 0.472750
C235 C 1.078500 0.679200 0.534000
C236 C 1.138250 0.696850 0.553250
C237 C 1.101750 0.713450 0.511250
C238 C 1.011750 0.712500 0.448250
C239 C 0.927250 0.710400 0.245250
C240 C 1.069750 0.710400 0.242250
C241 C 1.141500 0.722700 0.191000
C242 C 1.072250 0.734900 0.141250
C243 C 0.931250 0.735350 0.142250
C244 C 0.859000 0.723300 0.193500
H245 H 0.580030 0.702400 0.279670
H246 H 0.718700 0.733200 0.334800
H247 H 0.488600 0.745700 0.287700
H248 H 0.312730 0.734550 0.376730
H249 H 0.426820 0.715550 0.486970
H250 H 0.619080 0.738000 0.467330
H251 H 0.680500 0.716850 0.466500
H252 H 0.602170 0.671350 0.593980
H253 H 0.527070 0.654100 0.551520
H254 H 0.448300 0.667050 0.612050
H255 H 0.353600 0.698350 0.308600
H256 H 0.306700 0.687550 0.384350
H257 H 0.402150 0.651200 0.398800
H258 H 0.416600 0.622650 0.328950
H259 H 0.411100 0.622950 0.192300
H260 H 0.371250 0.653100 0.129750
H261 H 0.372250 0.682350 0.197850
H262 H 0.655100 0.657150 0.248750
H263 H 0.695230 0.625750 0.192270
H264 H 0.911150 0.612500 0.195750
H265 H 1.093170 0.629550 0.250720
H266 H 1.054220 0.661150 0.302630
H267 H 0.949400 0.665300 0.461000
H268 H 1.099650 0.667700 0.564450
H269 H 1.203700 0.697650 0.595500
H270 H 1.139050 0.725950 0.527100
H271 H 0.992720 0.724050 0.419420
H272 H 1.119280 0.701800 0.276820
H273 H 1.239720 0.722700 0.192470
H274 H 1.121850 0.742950 0.106450
H275 H 0.882500 0.744000 0.108850
H276 H 0.760980 0.723600 0.194330
Sn277 Sn 1.072000 0.558830 0.577000
O278 O 0.916250 0.577340 0.692750
O279 O 0.726750 0.569650 0.759750
C280 C 0.868500 0.546600 0.580000
C281 C 0.886500 0.523100 0.601500
C282 C 0.752000 0.513300 0.579000
C283 C 0.657250 0.519100 0.627250
C284 C 0.723750 0.533000 0.687250
C285 C 0.755750 0.552550 0.640750
C286 C 0.866250 0.524550 0.691250
C287 C 0.810000 0.567900 0.700000
C288 C 0.766750 0.582950 0.820750
C289 C 0.628500 0.561150 0.596000
C290 C 0.637250 0.580000 0.555750
C291 C 0.649000 0.598250 0.592500
C292 C 0.657000 0.615200 0.551000
C293 C 0.652250 0.615150 0.470750
C294 C 0.633000 0.597150 0.434000
C295 C 0.629250 0.579800 0.474250
C296 C 1.103000 0.588400 0.535500
C297 C 0.995000 0.598500 0.499000
C298 C 1.018500 0.617100 0.465500
C299 C 1.145750 0.624800 0.466750
C300 C 1.253250 0.614850 0.499250
C301 C 1.228750 0.596200 0.531750
C302 C 1.198500 0.555500 0.677500
C303 C 1.237750 0.572150 0.722750
C304 C 1.328500 0.570800 0.784000
C305 C 1.388250 0.553150 0.803250
C306 C 1.351750 0.536550 0.761250
C307 C 1.261750 0.537500 0.698250
C308 C 1.177250 0.539600 0.495250
C309 C 1.319750 0.539600 0.492250
C310 C 1.391500 0.527300 0.441000
C311 C 1.322250 0.515100 0.391250
C312 C 1.181250 0.514650 0.392250
C313 C 1.109000 0.526700 0.443500
H314 H 0.830030 0.547600 0.529670
H315 H 0.968700 0.516800 0.584800
H316 H 0.738600 0.504300 0.537700
H317 H 0.562730 0.515450 0.626730
H318 H 0.676820 0.534450 0.736970
H319 H 0.869080 0.512000 0.717330
H320 H 0.930500 0.533150 0.716500
H321 H 0.852170 0.578650 0.843980
H322 H 0.777070 0.595900 0.801520
H323 H 0.698300 0.582950 0.862050
H324 H 0.603600 0.551650 0.558600
H325 H 0.556700 0.562450 0.634350
H326 H 0.652150 0.598800 0.648800
H327 H 0.666600 0.627350 0.578950
H328 H 0.661100 0.627050 0.442300
H329 H 0.621250 0.596900 0.379750
H330 H 0.622250 0.567650 0.447850
H331 H 0.905100 0.592850 0.498750
H332 H 0.945230 0.624250 0.442270
H333 H 1.161150 0.637500 0.445750
H334 H 1.343170 0.620450 0.500720
H335 H 1.304220 0.588850 0.552630
H336 H 1.199400 0.584700 0.711000
H337 H 1.349650 0.582300 0.814450
H338 H 1.453700 0.552350 0.845500
H339 H 1.389050 0.524050 0.777100
H340 H 1.242720 0.525950 0.669420
H341 H 1.369280 0.548200 0.526820
H342 H 1.489720 0.527300 0.442470
H343 H 1.371850 0.507050 0.356450
H344 H 1.132500 0.506000 0.358850
H345 H 1.010980 0.526400 0.444330
Sn346 Sn -0.072000 0.441170 0.577000
O347 O 0.083750 0.422660 0.692750
O348 O 0.273250 0.430350 0.759750
C349 C 0.131500 0.453400 0.580000
C350 C 0.113500 0.476900 0.601500
C351 C 0.248000 0.486700 0.579000
C352 C 0.342750 0.480900 0.627250
C353 C 0.276250 0.467000 0.687250
C354 C 0.244250 0.447450 0.640750
C355 C 0.133750 0.475450 0.691250
C356 C 0.190000 0.432100 0.700000
C357 C 0.233250 0.417050 0.820750
C358 C 0.371500 0.438850 0.596000
C359 C 0.362750 0.420000 0.555750
C360 C 0.351000 0.401750 0.592500
C361 C 0.343000 0.384800 0.551000
C362 C 0.347750 0.384850 0.470750
C363 C 0.367000 0.402850 0.434000
C364 C 0.370750 0.420200 0.474250
C365 C -0.103000 0.411600 0.535500
C366 C 0.005000 0.401500 0.499000
C367 C -0.018500 0.382900 0.465500
C368 C -0.145750 0.375200 0.466750
C369 C -0.253250 0.385150 0.499250
C370 C -0.228750 0.403800 0.531750
C371 C -0.198500 0.444500 0.677500
C372 C -0.237750 0.427850 0.722750
C373 C -0.328500 0.429200 0.784000
C374 C -0.388250 0.446850 0.803250
C375 C -0.351750 0.463450 0.761250
C376 C -0.261750 0.462500 0.698250
C377 C -0.177250 0.460400 0.495250
C378 C -0.319750 0.460400 0.492250
C379 C -0.391500 0.472700 0.441000
C380 C -0.322250 0.484900 0.391250
C381 C -0.181250 0.485350 0.392250
C382 C -0.109000 0.473300 0.443500
H383 H 0.169970 0.452400 0.529670
H384 H 0.031300 0.483200 0.584800
H385 H 0.261400 0.495700 0.537700
H386 H 0.437270 0.484550 0.626730
H387 H 0.323180 0.465550 0.736970
H388 H 0.130920 0.488000 0.717330
H389 H 0.069500 0.466850 0.716500
H390 H 0.147830 0.421350 0.843980
H391 H 0.222930 0.404100 0.801520
H392 H 0.301700 0.417050 0.862050
H393 H 0.396400 0.448350 0.558600
H394 H 0.443300 0.437550 0.634350
H395 H 0.347850 0.401200 0.648800
H396 H 0.333400 0.372650 0.578950
H397 H 0.338900 0.372950 0.442300
H398 H 0.378750 0.403100 0.379750
H399 H 0.377750 0.432350 0.447850
H400 H 0.094900 0.407150 0.498750
H401 H 0.054770 0.375750 0.442270
H402 H -0.161150 0.362500 0.445750
H403 H -0.343170 0.379550 0.500720
H404 H -0.304220 0.411150 0.552630
H405 H -0.199400 0.415300 0.711000
H406 H -0.349650 0.417700 0.814450
H407 H -0.453700 0.447650 0.845500
H408 H -0.389050 0.475950 0.777100
H409 H -0.242720 0.474050 0.669420
H410 H -0.369280 0.451800 0.526820
H411 H -0.489720 0.472700 0.442470
H412 H -0.371850 0.492950 0.356450
H413 H -0.132500 0.494000 0.358850
H414 H -0.010980 0.473600 0.444330
Sn415 Sn 0.178000 0.808830 0.827000
O416 O 0.333750 0.827340 0.942750
O417 O 0.523250 0.819650 1.009750
C418 C 0.381500 0.796600 0.830000
C419 C 0.363500 0.773100 0.851500
C420 C 0.498000 0.763300 0.829000
C421 C 0.592750 0.769100 0.877250
C422 C 0.526250 0.783000 0.937250
C423 C 0.494250 0.802550 0.890750
C424 C 0.383750 0.774550 0.941250
C425 C 0.440000 0.817900 0.950000
C426 C 0.483250 0.832950 1.070750
C427 C 0.621500 0.811150 0.846000
C428 C 0.612750 0.830000 0.805750
C429 C 0.601000 0.848250 0.842500
C430 C 0.593000 0.865200 0.801000
C431 C 0.597750 0.865150 0.720750
C432 C 0.617000 0.847150 0.684000
C433 C 0.620750 0.829800 0.724250
C434 C 0.147000 0.838400 0.785500
C435 C 0.255000 0.848500 0.749000
C436 C 0.231500 0.867100 0.715500
C437 C 0.104250 0.874800 0.716750
C438 C -0.003250 0.864850 0.749250
C439 C 0.021250 0.846200 0.781750
C440 C 0.051500 0.805500 0.927500
C441 C 0.012250 0.822150 0.972750
C442 C -0.078500 0.820800 1.034000
C443 C -0.138250 0.803150 1.053250
C444 C -0.101750 0.786550 1.011250
C445 C -0.011750 0.787500 0.948250
C446 C 0.072750 0.789600 0.745250
C447 C -0.069750 0.789600 0.742250
C448 C -0.141500 0.777300 0.691000
C449 C -0.072250 0.765100 0.641250
C450 C 0.068750 0.764650 0.642250
C451 C 0.141000 0.776700 0.693500
H452 H 0.419970 0.797600 0.779670
H453 H 0.281300 0.766800 0.834800
H454 H 0.511400 0.754300 0.787700
H455 H 0.687270 0.765450 0.876730
H456 H 0.573180 0.784450 0.986970
H457 H 0.380920 0.762000 0.967330
H458 H 0.319500 0.783150 0.966500
H459 H 0.397830 0.828650 1.093980
H460 H 0.472930 0.845900 1.051520
H461 H 0.551700 0.832950 1.112050
H462 H 0.646400 0.801650 0.808600
H463 H 0.693300 0.812450 0.884350
H464 H 0.597850 0.848800 0.898800
H465 H 0.583400 0.877350 0.828950
H466 H 0.588900 0.877050 0.692300
H467 H 0.628750 0.846900 0.629750
H468 H 0.627750 0.817650 0.697850
H469 H 0.344900 0.842850 0.748750
H470 H 0.304770 0.874250 0.692270
H471 H 0.088850 0.887500 0.695750
H472 H -0.093170 0.870450 0.750720
H473 H -0.054220 0.838850 0.802630
H474 H 0.050600 0.834700 0.961000
H475 H -0.099650 0.832300 1.064450
H476 H -0.203700 0.802350 1.095500
H477 H -0.139050 0.774050 1.027100
H478 H 0.007280 0.775950 0.919420
H479 H -0.119280 0.798200 0.776820
H480 H -0.239720 0.777300 0.692470
H481 H -0.121850 0.757050 0.606450
H482 H 0.117500 0.756000 0.608850
H483 H 0.239020 0.776400 0.694330
Sn484 Sn 0.822000 0.191170 0.827000
O485 O 0.666250 0.172660 0.942750
O486 O 0.476750 0.180350 1.009750
C487 C 0.618500 0.203400 0.830000
C488 C 0.636500 0.226900 0.851500
C489 C 0.502000 0.236700 0.829000
C490 C 0.407250 0.230900 0.877250
C491 C 0.473750 0.217000 0.937250
C492 C 0.505750 0.197450 0.890750
C493 C 0.616250 0.225450 0.941250
C494 C 0.560000 0.182100 0.950000
C495 C 0.516750 0.167050 1.070750
C496 C 0.378500 0.188850 0.846000
C497 C 0.387250 0.170000 0.805750
C498 C 0.399000 0.151750 0.842500
C499 C 0.407000 0.134800 0.801000
C500 C 0.402250 0.134850 0.720750
C501 C 0.383000 0.152850 0.684000
C502 C 0.379250 0.170200 0.724250
C503 C 0.853000 0.161600 0.785500
C504 C 0.745000 0.151500 0.749000
C505 C 0.768500 0.132900 0.715500
C506 C 0.895750 0.125200 0.716750
C507 C 1.003250 0.135150 0.749250
C508 C 0.978750 0.153800 0.781750
C509 C 0.948500 0.194500 0.927500
C510 C 0.987750 0.177850 0.972750
C511 C 1.078500 0.179200 1.034000
C512 C 1.138250 0.196850 1.053250
C513 C 1.101750 0.213450 1.011250
C514 C 1.011750 0.212500 0.948250
C515 C 0.927250 0.210400 0.745250
C516 C 1.069750 0.210400 0.742250
C517 C 1.141500 0.222700 0.691000
C518 C 1.072250 0.234900 0.641250
C519 C 0.931250 0.235350 0.642250
C520 C 0.859000 0.223300 0.693500
H521 H 0.580030 0.202400 0.779670
H522 H 0.718700 0.233200 0.834800
H523 H 0.488600 0.245700 0.787700
H524 H 0.312730 0.234550 0.876730
H525 H 0.426820 0.215550 0.986970
H526 H 0.619080 0.238000 0.967330
H527 H 0.680500 0.216850 0.966500
H528 H 0.602170 0.171350 1.093980
H529 H 0.527070 0.154100 1.051520
H530 H 0.448300 0.167050 1.112050
H531 H 0.353600 0.198350 0.808600
H532 H 0.306700 0.187550 0.884350
H533 H 0.402150 0.151200 0.898800
H534 H 0.416600 0.122650 0.828950
H535 H 0.411100 0.122950 0.692300
H536 H 0.371250 0.153100 0.629750
H537 H 0.372250 0.182350 0.697850
H538 H 0.655100 0.157150 0.748750
H539 H 0.695230 0.125750 0.692270
H540 H 0.911150 0.112500 0.695750
H541 H 1.093170 0.129550 0.750720
H542 H 1.054220 0.161150 0.802630
H543 H 0.949400 0.165300 0.961000
H544 H 1.099650 0.167700 1.064450
H545 H 1.203700 0.197650 1.095500
H546 H 1.139050 0.225950 1.027100
H547 H 0.992720 0.224050 0.919420
H548 H 1.119280 0.201800 0.776820
H549 H 1.239720 0.222700 0.692470
H550 H 1.121850 0.242950 0.606450
H551 H 0.882500 0.244000 0.608850
H552 H 0.760980 0.223600 0.694330
Sn553 Sn 0.572000 0.058830 0.577000
O554 O 0.416250 0.077340 0.692750
O555 O 0.226750 0.069650 0.759750
C556 C 0.368500 0.046600 0.580000
C557 C 0.386500 0.023100 0.601500
C558 C 0.252000 0.013300 0.579000
C559 C 0.157250 0.019100 0.627250
C560 C 0.223750 0.033000 0.687250
C561 C 0.255750 0.052550 0.640750
C562 C 0.366250 0.024550 0.691250
C563 C 0.310000 0.067900 0.700000
C564 C 0.266750 0.082950 0.820750
C565 C 0.128500 0.061150 0.596000
C566 C 0.137250 0.080000 0.555750
C567 C 0.149000 0.098250 0.592500
C568 C 0.157000 0.115200 0.551000
C569 C 0.152250 0.115150 0.470750
C570 C 0.133000 0.097150 0.434000
C571 C 0.129250 0.079800 0.474250
C572 C 0.603000 0.088400 0.535500
C573 C 0.495000 0.098500 0.499000
C574 C 0.518500 0.117100 0.465500
C575 C 0.645750 0.124800 0.466750
C576 C 0.753250 0.114850 0.499250
C577 C 0.728750 0.096200 0.531750
C578 C 0.698500 0.055500 0.677500
C579 C 0.737750 0.072150 0.722750
C580 C 0.828500 0.070800 0.784000
C581 C 0.888250 0.053150 0.803250
C582 C 0.851750 0.036550 0.761250
C583 C 0.761750 0.037500 0.698250
C584 C 0.677250 0.039600 0.495250
C585 C 0.819750 0.039600 0.492250
C586 C 0.891500 0.027300 0.441000
C587 C 0.822250 0.015100 0.391250
C588 C 0.681250 0.014650 0.392250
C589 C 0.609000 0.026700 0.443500
H590 H 0.330030 0.047600 0.529670
H591 H 0.468700 0.016800 0.584800
H592 H 0.238600 0.004300 0.537700
H593 H 0.062730 0.015450 0.626730
H594 H 0.176820 0.034450 0.736970
H595 H 0.369080 0.012000 0.717330
H596 H 0.430500 0.033150 0.716500
H597 H 0.352170 0.078650 0.843980
H598 H 0.277070 0.095900 0.801520
H599 H 0.198300 0.082950 0.862050
H600 H 0.103600 0.051650 0.558600
H601 H 0.056700 0.062450 0.634350
H602 H 0.152150 0.098800 0.648800
H603 H 0.166600 0.127350 0.578950
H604 H 0.161100 0.127050 0.442300
H605 H 0.121250 0.096900 0.379750
H606 H 0.122250 0.067650 0.447850
H607 H 0.405100 0.092850 0.498750
H608 H 0.445230 0.124250 0.442270
H609 H 0.661150 0.137500 0.445750
H610 H 0.843170 0.120450 0.500720
H611 H 0.804220 0.088850 0.552630
H612 H 0.699400 0.084700 0.711000
H613 H 0.849650 0.082300 0.814450
H614 H 0.953700 0.052350 0.845500
H615 H 0.889050 0.024050 0.777100
H616 H 0.742720 0.025950 0.669420
H617 H 0.869280 0.048200 0.526820
H618 H 0.989720 0.027300 0.442470
H619 H 0.871850 0.007050 0.356450
H620 H 0.632500 0.006000 0.358850
H621 H 0.510980 0.026400 0.444330
Sn622 Sn 0.428000 0.941170 0.577000
O623 O 0.583750 0.922660 0.692750
O624 O 0.773250 0.930350 0.759750
C625 C 0.631500 0.953400 0.580000
C626 C 0.613500 0.976900 0.601500
C627 C 0.748000 0.986700 0.579000
C628 C 0.842750 0.980900 0.627250
C629 C 0.776250 0.967000 0.687250
C630 C 0.744250 0.947450 0.640750
C631 C 0.633750 0.975450 0.691250
C632 C 0.690000 0.932100 0.700000
C633 C 0.733250 0.917050 0.820750
C634 C 0.871500 0.938850 0.596000
C635 C 0.862750 0.920000 0.555750
C636 C 0.851000 0.901750 0.592500
C637 C 0.843000 0.884800 0.551000
C638 C 0.847750 0.884850 0.470750
C639 C 0.867000 0.902850 0.434000
C640 C 0.870750 0.920200 0.474250
C641 C 0.397000 0.911600 0.535500
C642 C 0.505000 0.901500 0.499000
C643 C 0.481500 0.882900 0.465500
C644 C 0.354250 0.875200 0.466750
C645 C 0.246750 0.885150 0.499250
C646 C 0.271250 0.903800 0.531750
C647 C 0.301500 0.944500 0.677500
C648 C 0.262250 0.927850 0.722750
C649 C 0.171500 0.929200 0.784000
C650 C 0.111750 0.946850 0.803250
C651 C 0.148250 0.963450 0.761250
C652 C 0.238250 0.962500 0.698250
C653 C 0.322750 0.960400 0.495250
C654 C 0.180250 0.960400 0.492250
C655 C 0.108500 0.972700 0.441000
C656 C 0.177750 0.984900 0.391250
C657 C 0.318750 0.985350 0.392250
C658 C 0.391000 0.973300 0.443500
H659 H 0.669970 0.952400 0.529670
H660 H 0.531300 0.983200 0.584800
H661 H 0.761400 0.995700 0.537700
H662 H 0.937270 0.984550 0.626730
H663 H 0.823180 0.965550 0.736970
H664 H 0.630920 0.988000 0.717330
H665 H 0.569500 0.966850 0.716500
H666 H 0.647830 0.921350 0.843980
H667 H 0.722930 0.904100 0.801520
H668 H 0.801700 0.917050 0.862050
H669 H 0.896400 0.948350 0.558600
H670 H 0.943300 0.937550 0.634350
H671 H 0.847850 0.901200 0.648800
H672 H 0.833400 0.872650 0.578950
H673 H 0.838900 0.872950 0.442300
H674 H 0.878750 0.903100 0.379750
H675 H 0.877750 0.932350 0.447850
H676 H 0.594900 0.907150 0.498750
H677 H 0.554770 0.875750 0.442270
H678 H 0.338850 0.862500 0.445750
H679 H 0.156830 0.879550 0.500720
H680 H 0.195780 0.911150 0.552630
H681 H 0.300600 0.915300 0.711000
H682 H 0.150350 0.917700 0.814450
H683 H 0.046300 0.947650 0.845500
H684 H 0.110950 0.975950 0.777100
H685 H 0.257280 0.974050 0.669420
H686 H 0.130720 0.951800 0.526820
H687 H 0.010280 0.972700 0.442470
H688 H 0.128150 0.992950 0.356450
H689 H 0.367500 0.994000 0.358850
H690 H 0.489020 0.973600 0.444330
Sn691 Sn 0.678000 0.308830 0.827000
O692 O 0.833750 0.327340 0.942750
O693 O 1.023250 0.319650 1.009750
C694 C 0.881500 0.296600 0.830000
C695 C 0.863500 0.273100 0.851500
C696 C 0.998000 0.263300 0.829000
C697 C 1.092750 0.269100 0.877250
C698 C 1.026250 0.283000 0.937250
C699 C 0.994250 0.302550 0.890750
C700 C 0.883750 0.274550 0.941250
C701 C 0.940000 0.317900 0.950000
C702 C 0.983250 0.332950 1.070750
C703 C 1.121500 0.311150 0.846000
C704 C 1.112750 0.330000 0.805750
C705 C 1.101000 0.348250 0.842500
C706 C 1.093000 0.365200 0.801000
C707 C 1.097750 0.365150 0.720750
C708 C 1.117000 0.347150 0.684000
C709 C 1.120750 0.329800 0.724250
C710 C 0.647000 0.338400 0.785500
C711 C 0.755000 0.348500 0.749000
C712 C 0.731500 0.367100 0.715500
C713 C 0.604250 0.374800 0.716750
C714 C 0.496750 0.364850 0.749250
C715 C 0.521250 0.346200 0.781750
C716 C 0.551500 0.305500 0.927500
C717 C 0.512250 0.322150 0.972750
C718 C 0.421500 0.320800 1.034000
C719 C 0.361750 0.303150 1.053250
C720 C 0.398250 0.286550 1.011250
C721 C 0.488250 0.287500 0.948250
C722 C 0.572750 0.289600 0.745250
C723 C 0.430250 0.289600 0.742250
C724 C 0.358500 0.277300 0.691000
C725 C 0.427750 0.265100 0.641250
C726 C 0.568750 0.264650 0.642250
C727 C 0.641000 0.276700 0.693500
H728 H 0.919970 0.297600 0.779670
H729 H 0.781300 0.266800 0.834800
H730 H 1.011400 0.254300 0.787700
H731 H 1.187270 0.265450 0.876730
H732 H 1.073180 0.284450 0.986970
H733 H 0.880920 0.262000 0.967330
H734 H 0.819500 0.283150 0.966500
H735 H 0.897830 0.328650 1.093980
H736 H 0.972930 0.345900 1.051520
H737 H 1.051700 0.332950 1.112050
H738 H 1.146400 0.301650 0.808600
H739 H 1.193300 0.312450 0.884350
H740 H 1.097850 0.348800 0.898800
H741 H 1.083400 0.377350 0.828950
H742 H 1.088900 0.377050 0.692300
H743 H 1.128750 0.346900 0.629750
H744 H 1.127750 0.317650 0.697850
H745 H 0.844900 0.342850 0.748750
H746 H 0.804770 0.374250 0.692270
H747 H 0.588850 0.387500 0.695750
H748 H 0.406830 0.370450 0.750720
H749 H 0.445780 0.338850 0.802630
H750 H 0.550600 0.334700 0.961000
H751 H 0.400350 0.332300 1.064450
H752 H 0.296300 0.302350 1.095500
H753 H 0.360950 0.274050 1.027100
H754 H 0.507280 0.275950 0.919420
H755 H 0.380720 0.298200 0.776820
H756 H 0.260280 0.277300 0.692470
H757 H 0.378150 0.257050 0.606450
H758 H 0.617500 0.256000 0.608850
H759 H 0.739020 0.276400 0.694330
Sn760 Sn 0.322000 0.691170 0.827000
O761 O 0.166250 0.672660 0.942750
O762 O -0.023250 0.680350 1.009750
C763 C 0.118500 0.703400 0.830000
C764 C 0.136500 0.726900 0.851500
C765 C 0.002000 0.736700 0.829000
C766 C -0.092750 0.730900 0.877250
C767 C -0.026250 0.717000 0.937250
C768 C 0.005750 0.697450 0.890750
C769 C 0.116250 0.725450 0.941250
C770 C 0.060000 0.682100 0.950000
C771 C 0.016750 0.667050 1.070750
C772 C -0.121500 0.688850 0.846000
C773 C -0.112750 0.670000 0.805750
C774 C -0.101000 0.651750 0.842500
C775 C -0.093000 0.634800 0.801000
C776 C -0.097750 0.634850 0.720750
C777 C -0.117000 0.652850 0.684000
C778 C -0.120750 0.670200 0.724250
C779 C 0.353000 0.661600 0.785500
C780 C 0.245000 0.651500 0.749000
C781 C 0.268500 0.632900 0.715500
C782 C 0.395750 0.625200 0.716750
C783 C 0.503250 0.635150 0.749250
C784 C 0.478750 0.653800 0.781750
C785 C 0.448500 0.694500 0.927500
C786 C 0.487750 0.677850 0.972750
C787 C 0.578500 0.679200 1.034000
C788 C 0.638250 0.696850 1.053250
C789 C 0.601750 0.713450 1.011250
C790 C 0.511750 0.712500 0.948250
C791 C 0.427250 0.710400 0.745250
C792 C 0.569750 0.710400 0.742250
C793 C 0.641500 0.722700 0.691000
C794 C 0.572250 0.734900 0.641250
C795 C 0.431250 0.735350 0.642250
C796 C 0.359000 0.723300 0.693500
H797 H 0.080030 0.702400 0.779670
H798 H 0.218700 0.733200 0.834800
H799 H -0.011400 0.745700 0.787700
H800 H -0.187270 0.734550 0.876730
H801 H -0.073180 0.715550 0.986970
H802 H 0.119080 0.738000 0.967330
H803 H 0.180500 0.716850 0.966500
H804 H 0.102170 0.671350 1.093980
H805 H 0.027070 0.654100 1.051520
H806 H -0.051700 0.667050 1.112050
H807 H -0.146400 0.698350 0.808600
H808 H -0.193300 0.687550 0.884350
H809 H -0.097850 0.651200 0.898800
H810 H -0.083400 0.622650 0.828950
H811 H -0.088900 0.622950 0.692300
H812 H -0.128750 0.653100 0.629750
H813 H -0.127750 0.682350 0.697850
H814 H 0.155100 0.657150 0.748750
H815 H 0.195230 0.625750 0.692270
H816 H 0.411150 0.612500 0.695750
H817 H 0.593170 0.629550 0.750720
H818 H 0.554220 0.661150 0.802630
H819 H 0.449400 0.665300 0.961000
H820 H 0.599650 0.667700 1.064450
H821 H 0.703700 0.697650 1.095500
H822 H 0.639050 0.725950 1.027100
H823 H 0.492720 0.724050 0.919420
H824 H 0.619280 0.701800 0.776820
H825 H 0.739720 0.722700 0.692470
H826 H 0.621850 0.742950 0.606450
H827 H 0.382500 0.744000 0.608850
H828 H 0.260980 0.723600 0.694330
Sn829 Sn 0.572000 0.558830 0.077000
O830 O 0.416250 0.577340 0.192750
O831 O 0.226750 0.569650 0.259750
C832 C 0.368500 0.546600 0.080000
C833 C 0.386500 0.523100 0.101500
C834 C 0.252000 0.513300 0.079000
C835 C 0.157250 0.519100 0.127250
C836 C 0.223750 0.533000 0.187250
C837 C 0.255750 0.552550 0.140750
C838 C 0.366250 0.524550 0.191250
C839 C 0.310000 0.567900 0.200000
C840 C 0.266750 0.582950 0.320750
C841 C 0.128500 0.561150 0.096000
C842 C 0.137250 0.580000 0.055750
C843 C 0.149000 0.598250 0.092500
C844 C 0.157000 0.615200 0.051000
C845 C 0.152250 0.615150 -0.029250
C846 C 0.133000 0.597150 -0.066000
C847 C 0.129250 0.579800 -0.025750
C848 C 0.603000 0.588400 0.035500
C849 C 0.495000 0.598500 -0.001000
C850 C 0.518500 0.617100 -0.034500
C851 C 0.645750 0.624800 -0.033250
C852 C 0.753250 0.614850 -0.000750
C853 C 0.728750 0.596200 0.031750
C854 C 0.698500 0.555500 0.177500
C855 C 0.737750 0.572150 0.222750
C856 C 0.828500 0.570800 0.284000
C857 C 0.888250 0.553150 0.303250
C858 C 0.851750 0.536550 0.261250
C859 C 0.761750 0.537500 0.198250
C860 C 0.677250 0.539600 -0.004750
C861 C 0.819750 0.539600 -0.007750
C862 C 0.891500 0.527300 -0.059000
C863 C 0.822250 0.515100 -0.108750
C864 C 0.681250 0.514650 -0.107750
C865 C 0.609000 0.526700 -0.056500
H866 H 0.330030 0.547600 0.029670
H867 H 0.468700 0.516800 0.084800
H868 H 0.238600 0.504300 0.037700
H869 H 0.062730 0.515450 0.126730
H870 H 0.176820 0.534450 0.236970
H871 H 0.369080 0.512000 0.217330
H872 H 0.430500 0.533150 0.216500
H873 H 0.352170 0.578650 0.343980
H874 H 0.277070 0.595900 0.301520
H875 H 0.198300 0.582950 0.362050
H876 H 0.103600 0.551650 0.058600
H877 H 0.056700 0.562450 0.134350
H878 H 0.152150 0.598800 0.148800
H879 H 0.166600 0.627350 0.078950
H880 H 0.161100 0.627050 -0.057700
H881 H 0.121250 0.596900 -0.120250
H882 H 0.122250 0.567650 -0.052150
H883 H 0.405100 0.592850 -0.001250
H884 H 0.445230 0.624250 -0.057730
H885 H 0.661150 0.637500 -0.054250
H886 H 0.843170 0.620450 0.000720
H887 H 0.804220 0.588850 0.052630
H888 H 0.699400 0.584700 0.211000
H889 H 0.849650 0.582300 0.314450
H890 H 0.953700 0.552350 0.345500
H891 H 0.889050 0.524050 0.277100
H892 H 0.742720 0.525950 0.169420
H893 H 0.869280 0.548200 0.026820
H894 H 0.989720 0.527300 -0.057530
H895 H 0.871850 0.507050 -0.143550
H896 H 0.632500 0.506000 -0.141150
H897 H 0.510980 0.526400 -0.055670
Sn898 Sn 0.428000 0.441170 0.077000
O899 O 0.583750 0.422660 0.192750
O900 O 0.773250 0.430350 0.259750
C901 C 0.631500 0.453400 0.080000
C902 C 0.613500 0.476900 0.101500
C903 C 0.748000 0.486700 0.079000
C904 C 0.842750 0.480900 0.127250
C905 C 0.776250 0.467000 0.187250
C906 C 0.744250 0.447450 0.140750
C907 C 0.633750 0.475450 0.191250
C908 C 0.690000 0.432100 0.200000
C909 C 0.733250 0.417050 0.320750
C910 C 0.871500 0.438850 0.096000
C911 C 0.862750 0.420000 0.055750
C912 C 0.851000 0.401750 0.092500
C913 C 0.843000 0.384800 0.051000
C914 C 0.847750 0.384850 -0.029250
C915 C 0.867000 0.402850 -0.066000
C916 C 0.870750 0.420200 -0.025750
C917 C 0.397000 0.411600 0.035500
C918 C 0.505000 0.401500 -0.001000
C919 C 0.481500 0.382900 -0.034500
C920 C 0.354250 0.375200 -0.033250
C921 C 0.246750 0.385150 -0.000750
C922 C 0.271250 0.403800 0.031750
C923 C 0.301500 0.444500 0.177500
C924 C 0.262250 0.427850 0.222750
C925 C 0.171500 0.429200 0.284000
C926 C 0.111750 0.446850 0.303250
C927 C 0.148250 0.463450 0.261250
C928 C 0.238250 0.462500 0.198250
C929 C 0.322750 0.460400 -0.004750
C930 C 0.180250 0.460400 -0.007750
C931 C 0.108500 0.472700 -0.059000
C932 C 0.177750 0.484900 -0.108750
C933 C 0.318750 0.485350 -0.107750
C934 C 0.391000 0.473300 -0.056500
H935 H 0.669970 0.452400 0.029670
H936 H 0.531300 0.483200 0.084800
H937 H 0.761400 0.495700 0.037700
H938 H 0.937270 0.484550 0.126730
H939 H 0.823180 0.465550 0.236970
H940 H 0.630920 0.488000 0.217330
H941 H 0.569500 0.466850 0.216500
H942 H 0.647830 0.421350 0.343980
H943 H 0.722930 0.404100 0.301520
H944 H 0.801700 0.417050 0.362050
H945 H 0.896400 0.448350 0.058600
H946 H 0.943300 0.437550 0.134350
H947 H 0.847850 0.401200 0.148800
H948 H 0.833400 0.372650 0.078950
H949 H 0.838900 0.372950 -0.057700
H950 H 0.878750 0.403100 -0.120250
H951 H 0.877750 0.432350 -0.052150
H952 H 0.594900 0.407150 -0.001250
H953 H 0.554770 0.375750 -0.057730
H954 H 0.338850 0.362500 -0.054250
H955 H 0.156830 0.379550 0.000720
H956 H 0.195780 0.411150 0.052630
H957 H 0.300600 0.415300 0.211000
H958 H 0.150350 0.417700 0.314450
H959 H 0.046300 0.447650 0.345500
H960 H 0.110950 0.475950 0.277100
H961 H 0.257280 0.474050 0.169420
H962 H 0.130720 0.451800 0.026820
H963 H 0.010280 0.472700 -0.057530
H964 H 0.128150 0.492950 -0.143550
H965 H 0.367500 0.494000 -0.141150
H966 H 0.489020 0.473600 -0.055670
Sn967 Sn 0.678000 0.808830 0.327000
O968 O 0.833750 0.827340 0.442750
O969 O 1.023250 0.819650 0.509750
C970 C 0.881500 0.796600 0.330000
C971 C 0.863500 0.773100 0.351500
C972 C 0.998000 0.763300 0.329000
C973 C 1.092750 0.769100 0.377250
C974 C 1.026250 0.783000 0.437250
C975 C 0.994250 0.802550 0.390750
C976 C 0.883750 0.774550 0.441250
C977 C 0.940000 0.817900 0.450000
C978 C 0.983250 0.832950 0.570750
C979 C 1.121500 0.811150 0.346000
C980 C 1.112750 0.830000 0.305750
C981 C 1.101000 0.848250 0.342500
C982 C 1.093000 0.865200 0.301000
C983 C 1.097750 0.865150 0.220750
C984 C 1.117000 0.847150 0.184000
C985 C 1.120750 0.829800 0.224250
C986 C 0.647000 0.838400 0.285500
C987 C 0.755000 0.848500 0.249000
C988 C 0.731500 0.867100 0.215500
C989 C 0.604250 0.874800 0.216750
C990 C 0.496750 0.864850 0.249250
C991 C 0.521250 0.846200 0.281750
C992 C 0.551500 0.805500 0.427500
C993 C 0.512250 0.822150 0.472750
C994 C 0.421500 0.820800 0.534000
C995 C 0.361750 0.803150 0.553250
C996 C 0.398250 0.786550 0.511250
C997 C 0.488250 0.787500 0.448250
C998 C 0.572750 0.789600 0.245250
C999 C 0.430250 0.789600 0.242250
C1000 C 0.358500 0.777300 0.191000
C1001 C 0.427750 0.765100 0.141250
C1002 C 0.568750 0.764650 0.142250
C1003 C 0.641000 0.776700 0.193500
H1004 H 0.919970 0.797600 0.279670
H1005 H 0.781300 0.766800 0.334800
H1006 H 1.011400 0.754300 0.287700
H1007 H 1.187270 0.765450 0.376730
H1008 H 1.073180 0.784450 0.486970
H1009 H 0.880920 0.762000 0.467330
H1010 H 0.819500 0.783150 0.466500
H1011 H 0.897830 0.828650 0.593980
H1012 H 0.972930 0.845900 0.551520
H1013 H 1.051700 0.832950 0.612050
H1014 H 1.146400 0.801650 0.308600
H1015 H 1.193300 0.812450 0.384350
H1016 H 1.097850 0.848800 0.398800
H1017 H 1.083400 0.877350 0.328950
H1018 H 1.088900 0.877050 0.192300
H1019 H 1.128750 0.846900 0.129750
H1020 H 1.127750 0.817650 0.197850
H1021 H 0.844900 0.842850 0.248750
H1022 H 0.804770 0.874250 0.192270
H1023 H 0.588850 0.887500 0.195750
H1024 H 0.406830 0.870450 0.250720
H1025 H 0.445780 0.838850 0.302630
H1026 H 0.550600 0.834700 0.461000
H1027 H 0.400350 0.832300 0.564450
H1028 H 0.296300 0.802350 0.595500
H1029 H 0.360950 0.774050 0.527100
H1030 H 0.507280 0.775950 0.419420
H1031 H 0.380720 0.798200 0.276820
H1032 H 0.260280 0.777300 0.192470
H1033 H 0.378150 0.757050 0.106450
H1034 H 0.617500 0.756000 0.108850
H1035 H 0.739020 0.776400 0.194330
Sn1036 Sn 0.322000 0.191170 0.327000
O1037 O 0.166250 0.172660 0.442750
O1038 O -0.023250 0.180350 0.509750
C1039 C 0.118500 0.203400 0.330000
C1040 C 0.136500 0.226900 0.351500
C1041 C 0.002000 0.236700 0.329000
C1042 C -0.092750 0.230900 0.377250
C1043 C -0.026250 0.217000 0.437250
C1044 C 0.005750 0.197450 0.390750
C1045 C 0.116250 0.225450 0.441250
C1046 C 0.060000 0.182100 0.450000
C1047 C 0.016750 0.167050 0.570750
C1048 C -0.121500 0.188850 0.346000
C1049 C -0.112750 0.170000 0.305750
C1050 C -0.101000 0.151750 0.342500
C1051 C -0.093000 0.134800 0.301000
C1052 C -0.097750 0.134850 0.220750
C1053 C -0.117000 0.152850 0.184000
C1054 C -0.120750 0.170200 0.224250
C1055 C 0.353000 0.161600 0.285500
C1056 C 0.245000 0.151500 0.249000
C1057 C 0.268500 0.132900 0.215500
C1058 C 0.395750 0.125200 0.216750
C1059 C 0.503250 0.135150 0.249250
C1060 C 0.478750 0.153800 0.281750
C1061 C 0.448500 0.194500 0.427500
C1062 C 0.487750 0.177850 0.472750
C1063 C 0.578500 0.179200 0.534000
C1064 C 0.638250 0.196850 0.553250
C1065 C 0.601750 0.213450 0.511250
C1066 C 0.511750 0.212500 0.448250
C1067 C 0.427250 0.210400 0.245250
C1068 C 0.569750 0.210400 0.242250
C1069 C 0.641500 0.222700 0.191000
C1070 C 0.572250 0.234900 0.141250
C1071 C 0.431250 0.235350 0.142250
C1072 C 0.359000 0.223300 0.193500
H1073 H 0.080030 0.202400 0.279670
H1074 H 0.218700 0.233200 0.334800
H1075 H -0.011400 0.245700 0.287700
H1076 H -0.187270 0.234550 0.376730
H1077 H -0.073180 0.215550 0.486970
H1078 H 0.119080 0.238000 0.467330
H1079 H 0.180500 0.216850 0.466500
H1080 H 0.102170 0.171350 0.593980
H1081 H 0.027070 0.154100 0.551520
H1082 H -0.051700 0.167050 0.612050
H1083 H -0.146400 0.198350 0.308600
H1084 H -0.193300 0.187550 0.384350
H1085 H -0.097850 0.151200 0.398800
H1086 H -0.083400 0.122650 0.328950
H1087 H -0.088900 0.122950 0.192300
H1088 H -0.128750 0.153100 0.129750
H1089 H -0.127750 0.182350 0.197850
H1090 H 0.155100 0.157150 0.248750
H1091 H 0.195230 0.125750 0.192270
H1092 H 0.411150 0.112500 0.195750
H1093 H 0.593170 0.129550 0.250720
H1094 H 0.554220 0.161150 0.302630
H1095 H 0.449400 0.165300 0.461000
H1096 H 0.599650 0.167700 0.564450
H1097 H 0.703700 0.197650 0.595500
H1098 H 0.639050 0.225950 0.527100
H1099 H 0.492720 0.224050 0.419420
H1100 H 0.619280 0.201800 0.276820
H1101 H 0.739720 0.222700 0.192470
H1102 H 0.621850 0.242950 0.106450
H1103 H 0.382500 0.244000 0.108850
H1104 H 0.260980 0.223600 0.194330

#END
