
#######################################################################
#
#                 Cambridge Crystallographic Data Centre
#                                CCDC 
#
#######################################################################
#
# If this CIF has been generated from an entry in the Cambridge 
# Structural Database, then it will include bibliographic, chemical, 
# crystal, experimental, refinement or atomic coordinate data resulting 
# from the CCDC's data processing and validation procedures.
#
#######################################################################

data_ACUKIS01
_symmetry_cell_setting           orthorhombic
_symmetry_space_group_name_H-M   'F d d 2'
_symmetry_Int_Tables_number      43
_space_group_name_Hall           'F 2 -2d'
loop_
_symmetry_equiv_pos_site_id
_symmetry_equiv_pos_as_xyz
1 x,y,z
2 -x,-y,z
3 1/4-x,1/4+y,1/4+z
4 3/4+x,3/4-y,1/4+z
5 x,1/2+y,1/2+z
6 -x,1/2-y,1/2+z
7 1/4-x,3/4+y,3/4+z
8 3/4+x,1/4-y,3/4+z
9 1/2+x,y,1/2+z
10 1/2-x,-y,1/2+z
11 3/4-x,1/4+y,3/4+z
12 1/4+x,3/4-y,3/4+z
13 1/2+x,1/2+y,z
14 1/2-x,1/2-y,z
15 3/4-x,3/4+y,1/4+z
16 1/4+x,1/4-y,1/4+z
_cell_length_a                   9.6920
_cell_length_b                   67.5700
_cell_length_c                   17.0280
_cell_angle_alpha                90
_cell_angle_beta                 90
_cell_angle_gamma                90
_cell_volume                     11151.4
loop_
_atom_site_label
_atom_site_type_symbol
_atom_site_fract_x
_atom_site_fract_y
_atom_site_fract_z
Sn1 Sn 1.07200 0.05883 0.07700
O1 O 0.91625 0.07734 0.19275
O2 O 0.72675 0.06965 0.25975
C1 C 0.86850 0.04660 0.08000
C2 C 0.88650 0.02310 0.10150
C3 C 0.75200 0.01330 0.07900
C4 C 0.65725 0.01910 0.12725
C5 C 0.72375 0.03300 0.18725
C6 C 0.75575 0.05255 0.14075
C7 C 0.86625 0.02455 0.19125
C8 C 0.81000 0.06790 0.20000
C9 C 0.76675 0.08295 0.32075
C10 C 0.62850 0.06115 0.09600
C11 C 0.63725 0.08000 0.05575
C12 C 0.64900 0.09825 0.09250
C13 C 0.65700 0.11520 0.05100
C14 C 0.65225 0.11515 -0.02925
C15 C 0.63300 0.09715 -0.06600
C16 C 0.62925 0.07980 -0.02575
C17 C 1.10300 0.08840 0.03550
C18 C 0.99500 0.09850 -0.00100
C19 C 1.01850 0.11710 -0.03450
C20 C 1.14575 0.12480 -0.03325
C21 C 1.25325 0.11485 -0.00075
C22 C 1.22875 0.09620 0.03175
C23 C 1.19850 0.05550 0.17750
C24 C 1.23775 0.07215 0.22275
C25 C 1.32850 0.07080 0.28400
C26 C 1.38825 0.05315 0.30325
C27 C 1.35175 0.03655 0.26125
C28 C 1.26175 0.03750 0.19825
C29 C 1.17725 0.03960 -0.00475
C30 C 1.31975 0.03960 -0.00775
C31 C 1.39150 0.02730 -0.05900
C32 C 1.32225 0.01510 -0.10875
C33 C 1.18125 0.01465 -0.10775
C34 C 1.10900 0.02670 -0.05650
H1 H 0.83003 0.04760 0.02967
H2 H 0.96870 0.01680 0.08480
H3 H 0.73860 0.00430 0.03770
H4 H 0.56273 0.01545 0.12673
H5 H 0.67682 0.03445 0.23697
H6 H 0.86908 0.01200 0.21733
H7 H 0.93050 0.03315 0.21650
H8 H 0.85217 0.07865 0.34398
H9 H 0.77707 0.09590 0.30152
H10 H 0.69830 0.08295 0.36205
H11 H 0.60360 0.05165 0.05860
H12 H 0.55670 0.06245 0.13435
H13 H 0.65215 0.09880 0.14880
H14 H 0.66660 0.12735 0.07895
H15 H 0.66110 0.12705 -0.05770
H16 H 0.62125 0.09690 -0.12025
H17 H 0.62225 0.06765 -0.05215
H18 H 0.90510 0.09285 -0.00125
H19 H 0.94523 0.12425 -0.05773
H20 H 1.16115 0.13750 -0.05425
H21 H 1.34317 0.12045 0.00072
H22 H 1.30422 0.08885 0.05263
H23 H 1.19940 0.08470 0.21100
H24 H 1.34965 0.08230 0.31445
H25 H 1.45370 0.05235 0.34550
H26 H 1.38905 0.02405 0.27710
H27 H 1.24272 0.02595 0.16942
H28 H 1.36928 0.04820 0.02682
H29 H 1.48972 0.02730 -0.05753
H30 H 1.37185 0.00705 -0.14355
H31 H 1.13250 0.00600 -0.14115
H32 H 1.01098 0.02640 -0.05567
Sn1 Sn -0.07200 0.94117 0.07700
O1 O 0.08375 0.92266 0.19275
O2 O 0.27325 0.93035 0.25975
C1 C 0.13150 0.95340 0.08000
C2 C 0.11350 0.97690 0.10150
C3 C 0.24800 0.98670 0.07900
C4 C 0.34275 0.98090 0.12725
C5 C 0.27625 0.96700 0.18725
C6 C 0.24425 0.94745 0.14075
C7 C 0.13375 0.97545 0.19125
C8 C 0.19000 0.93210 0.20000
C9 C 0.23325 0.91705 0.32075
C10 C 0.37150 0.93885 0.09600
C11 C 0.36275 0.92000 0.05575
C12 C 0.35100 0.90175 0.09250
C13 C 0.34300 0.88480 0.05100
C14 C 0.34775 0.88485 -0.02925
C15 C 0.36700 0.90285 -0.06600
C16 C 0.37075 0.92020 -0.02575
C17 C -0.10300 0.91160 0.03550
C18 C 0.00500 0.90150 -0.00100
C19 C -0.01850 0.88290 -0.03450
C20 C -0.14575 0.87520 -0.03325
C21 C -0.25325 0.88515 -0.00075
C22 C -0.22875 0.90380 0.03175
C23 C -0.19850 0.94450 0.17750
C24 C -0.23775 0.92785 0.22275
C25 C -0.32850 0.92920 0.28400
C26 C -0.38825 0.94685 0.30325
C27 C -0.35175 0.96345 0.26125
C28 C -0.26175 0.96250 0.19825
C29 C -0.17725 0.96040 -0.00475
C30 C -0.31975 0.96040 -0.00775
C31 C -0.39150 0.97270 -0.05900
C32 C -0.32225 0.98490 -0.10875
C33 C -0.18125 0.98535 -0.10775
C34 C -0.10900 0.97330 -0.05650
H1 H 0.16997 0.95240 0.02967
H2 H 0.03130 0.98320 0.08480
H3 H 0.26140 0.99570 0.03770
H4 H 0.43727 0.98455 0.12673
H5 H 0.32318 0.96555 0.23697
H6 H 0.13092 0.98800 0.21733
H7 H 0.06950 0.96685 0.21650
H8 H 0.14783 0.92135 0.34398
H9 H 0.22293 0.90410 0.30152
H10 H 0.30170 0.91705 0.36205
H11 H 0.39640 0.94835 0.05860
H12 H 0.44330 0.93755 0.13435
H13 H 0.34785 0.90120 0.14880
H14 H 0.33340 0.87265 0.07895
H15 H 0.33890 0.87295 -0.05770
H16 H 0.37875 0.90310 -0.12025
H17 H 0.37775 0.93235 -0.05215
H18 H 0.09490 0.90715 -0.00125
H19 H 0.05477 0.87575 -0.05773
H20 H -0.16115 0.86250 -0.05425
H21 H -0.34317 0.87955 0.00072
H22 H -0.30422 0.91115 0.05263
H23 H -0.19940 0.91530 0.21100
H24 H -0.34965 0.91770 0.31445
H25 H -0.45370 0.94765 0.34550
H26 H -0.38905 0.97595 0.27710
H27 H -0.24272 0.97405 0.16942
H28 H -0.36928 0.95180 0.02682
H29 H -0.48972 0.97270 -0.05753
H30 H -0.37185 0.99295 -0.14355
H31 H -0.13250 0.99400 -0.14115
H32 H -0.01098 0.97360 -0.05567
Sn1 Sn 0.17800 0.30883 0.32700
O1 O 0.33375 0.32734 0.44275
O2 O 0.52325 0.31965 0.50975
C1 C 0.38150 0.29660 0.33000
C2 C 0.36350 0.27310 0.35150
C3 C 0.49800 0.26330 0.32900
C4 C 0.59275 0.26910 0.37725
C5 C 0.52625 0.28300 0.43725
C6 C 0.49425 0.30255 0.39075
C7 C 0.38375 0.27455 0.44125
C8 C 0.44000 0.31790 0.45000
C9 C 0.48325 0.33295 0.57075
C10 C 0.62150 0.31115 0.34600
C11 C 0.61275 0.33000 0.30575
C12 C 0.60100 0.34825 0.34250
C13 C 0.59300 0.36520 0.30100
C14 C 0.59775 0.36515 0.22075
C15 C 0.61700 0.34715 0.18400
C16 C 0.62075 0.32980 0.22425
C17 C 0.14700 0.33840 0.28550
C18 C 0.25500 0.34850 0.24900
C19 C 0.23150 0.36710 0.21550
C20 C 0.10425 0.37480 0.21675
C21 C -0.00325 0.36485 0.24925
C22 C 0.02125 0.34620 0.28175
C23 C 0.05150 0.30550 0.42750
C24 C 0.01225 0.32215 0.47275
C25 C -0.07850 0.32080 0.53400
C26 C -0.13825 0.30315 0.55325
C27 C -0.10175 0.28655 0.51125
C28 C -0.01175 0.28750 0.44825
C29 C 0.07275 0.28960 0.24525
C30 C -0.06975 0.28960 0.24225
C31 C -0.14150 0.27730 0.19100
C32 C -0.07225 0.26510 0.14125
C33 C 0.06875 0.26465 0.14225
C34 C 0.14100 0.27670 0.19350
H1 H 0.41997 0.29760 0.27967
H2 H 0.28130 0.26680 0.33480
H3 H 0.51140 0.25430 0.28770
H4 H 0.68727 0.26545 0.37673
H5 H 0.57318 0.28445 0.48697
H6 H 0.38092 0.26200 0.46733
H7 H 0.31950 0.28315 0.46650
H8 H 0.39783 0.32865 0.59398
H9 H 0.47293 0.34590 0.55152
H10 H 0.55170 0.33295 0.61205
H11 H 0.64640 0.30165 0.30860
H12 H 0.69330 0.31245 0.38435
H13 H 0.59785 0.34880 0.39880
H14 H 0.58340 0.37735 0.32895
H15 H 0.58890 0.37705 0.19230
H16 H 0.62875 0.34690 0.12975
H17 H 0.62775 0.31765 0.19785
H18 H 0.34490 0.34285 0.24875
H19 H 0.30477 0.37425 0.19227
H20 H 0.08885 0.38750 0.19575
H21 H -0.09317 0.37045 0.25072
H22 H -0.05422 0.33885 0.30263
H23 H 0.05060 0.33470 0.46100
H24 H -0.09965 0.33230 0.56445
H25 H -0.20370 0.30235 0.59550
H26 H -0.13905 0.27405 0.52710
H27 H 0.00728 0.27595 0.41942
H28 H -0.11928 0.29820 0.27682
H29 H -0.23972 0.27730 0.19247
H30 H -0.12185 0.25705 0.10645
H31 H 0.11750 0.25600 0.10885
H32 H 0.23902 0.27640 0.19433
Sn1 Sn 0.82200 0.69117 0.32700
O1 O 0.66625 0.67266 0.44275
O2 O 0.47675 0.68035 0.50975
C1 C 0.61850 0.70340 0.33000
C2 C 0.63650 0.72690 0.35150
C3 C 0.50200 0.73670 0.32900
C4 C 0.40725 0.73090 0.37725
C5 C 0.47375 0.71700 0.43725
C6 C 0.50575 0.69745 0.39075
C7 C 0.61625 0.72545 0.44125
C8 C 0.56000 0.68210 0.45000
C9 C 0.51675 0.66705 0.57075
C10 C 0.37850 0.68885 0.34600
C11 C 0.38725 0.67000 0.30575
C12 C 0.39900 0.65175 0.34250
C13 C 0.40700 0.63480 0.30100
C14 C 0.40225 0.63485 0.22075
C15 C 0.38300 0.65285 0.18400
C16 C 0.37925 0.67020 0.22425
C17 C 0.85300 0.66160 0.28550
C18 C 0.74500 0.65150 0.24900
C19 C 0.76850 0.63290 0.21550
C20 C 0.89575 0.62520 0.21675
C21 C 1.00325 0.63515 0.24925
C22 C 0.97875 0.65380 0.28175
C23 C 0.94850 0.69450 0.42750
C24 C 0.98775 0.67785 0.47275
C25 C 1.07850 0.67920 0.53400
C26 C 1.13825 0.69685 0.55325
C27 C 1.10175 0.71345 0.51125
C28 C 1.01175 0.71250 0.44825
C29 C 0.92725 0.71040 0.24525
C30 C 1.06975 0.71040 0.24225
C31 C 1.14150 0.72270 0.19100
C32 C 1.07225 0.73490 0.14125
C33 C 0.93125 0.73535 0.14225
C34 C 0.85900 0.72330 0.19350
H1 H 0.58003 0.70240 0.27967
H2 H 0.71870 0.73320 0.33480
H3 H 0.48860 0.74570 0.28770
H4 H 0.31273 0.73455 0.37673
H5 H 0.42682 0.71555 0.48697
H6 H 0.61908 0.73800 0.46733
H7 H 0.68050 0.71685 0.46650
H8 H 0.60217 0.67135 0.59398
H9 H 0.52707 0.65410 0.55152
H10 H 0.44830 0.66705 0.61205
H11 H 0.35360 0.69835 0.30860
H12 H 0.30670 0.68755 0.38435
H13 H 0.40215 0.65120 0.39880
H14 H 0.41660 0.62265 0.32895
H15 H 0.41110 0.62295 0.19230
H16 H 0.37125 0.65310 0.12975
H17 H 0.37225 0.68235 0.19785
H18 H 0.65510 0.65715 0.24875
H19 H 0.69523 0.62575 0.19227
H20 H 0.91115 0.61250 0.19575
H21 H 1.09317 0.62955 0.25072
H22 H 1.05422 0.66115 0.30263
H23 H 0.94940 0.66530 0.46100
H24 H 1.09965 0.66770 0.56445
H25 H 1.20370 0.69765 0.59550
H26 H 1.13905 0.72595 0.52710
H27 H 0.99272 0.72405 0.41942
H28 H 1.11928 0.70180 0.27682
H29 H 1.23972 0.72270 0.19247
H30 H 1.12185 0.74295 0.10645
H31 H 0.88250 0.74400 0.10885
H32 H 0.76098 0.72360 0.19433
Sn1 Sn 1.07200 0.55883 0.57700
O1 O 0.91625 0.57734 0.69275
O2 O 0.72675 0.56965 0.75975
C1 C 0.86850 0.54660 0.58000
C2 C 0.88650 0.52310 0.60150
C3 C 0.75200 0.51330 0.57900
C4 C 0.65725 0.51910 0.62725
C5 C 0.72375 0.53300 0.68725
C6 C 0.75575 0.55255 0.64075
C7 C 0.86625 0.52455 0.69125
C8 C 0.81000 0.56790 0.70000
C9 C 0.76675 0.58295 0.82075
C10 C 0.62850 0.56115 0.59600
C11 C 0.63725 0.58000 0.55575
C12 C 0.64900 0.59825 0.59250
C13 C 0.65700 0.61520 0.55100
C14 C 0.65225 0.61515 0.47075
C15 C 0.63300 0.59715 0.43400
C16 C 0.62925 0.57980 0.47425
C17 C 1.10300 0.58840 0.53550
C18 C 0.99500 0.59850 0.49900
C19 C 1.01850 0.61710 0.46550
C20 C 1.14575 0.62480 0.46675
C21 C 1.25325 0.61485 0.49925
C22 C 1.22875 0.59620 0.53175
C23 C 1.19850 0.55550 0.67750
C24 C 1.23775 0.57215 0.72275
C25 C 1.32850 0.57080 0.78400
C26 C 1.38825 0.55315 0.80325
C27 C 1.35175 0.53655 0.76125
C28 C 1.26175 0.53750 0.69825
C29 C 1.17725 0.53960 0.49525
C30 C 1.31975 0.53960 0.49225
C31 C 1.39150 0.52730 0.44100
C32 C 1.32225 0.51510 0.39125
C33 C 1.18125 0.51465 0.39225
C34 C 1.10900 0.52670 0.44350
H1 H 0.83003 0.54760 0.52967
H2 H 0.96870 0.51680 0.58480
H3 H 0.73860 0.50430 0.53770
H4 H 0.56273 0.51545 0.62673
H5 H 0.67682 0.53445 0.73697
H6 H 0.86908 0.51200 0.71733
H7 H 0.93050 0.53315 0.71650
H8 H 0.85217 0.57865 0.84398
H9 H 0.77707 0.59590 0.80152
H10 H 0.69830 0.58295 0.86205
H11 H 0.60360 0.55165 0.55860
H12 H 0.55670 0.56245 0.63435
H13 H 0.65215 0.59880 0.64880
H14 H 0.66660 0.62735 0.57895
H15 H 0.66110 0.62705 0.44230
H16 H 0.62125 0.59690 0.37975
H17 H 0.62225 0.56765 0.44785
H18 H 0.90510 0.59285 0.49875
H19 H 0.94523 0.62425 0.44227
H20 H 1.16115 0.63750 0.44575
H21 H 1.34317 0.62045 0.50072
H22 H 1.30422 0.58885 0.55263
H23 H 1.19940 0.58470 0.71100
H24 H 1.34965 0.58230 0.81445
H25 H 1.45370 0.55235 0.84550
H26 H 1.38905 0.52405 0.77710
H27 H 1.24272 0.52595 0.66942
H28 H 1.36928 0.54820 0.52682
H29 H 1.48972 0.52730 0.44247
H30 H 1.37185 0.50705 0.35645
H31 H 1.13250 0.50600 0.35885
H32 H 1.01098 0.52640 0.44433
Sn1 Sn -0.07200 0.44117 0.57700
O1 O 0.08375 0.42266 0.69275
O2 O 0.27325 0.43035 0.75975
C1 C 0.13150 0.45340 0.58000
C2 C 0.11350 0.47690 0.60150
C3 C 0.24800 0.48670 0.57900
C4 C 0.34275 0.48090 0.62725
C5 C 0.27625 0.46700 0.68725
C6 C 0.24425 0.44745 0.64075
C7 C 0.13375 0.47545 0.69125
C8 C 0.19000 0.43210 0.70000
C9 C 0.23325 0.41705 0.82075
C10 C 0.37150 0.43885 0.59600
C11 C 0.36275 0.42000 0.55575
C12 C 0.35100 0.40175 0.59250
C13 C 0.34300 0.38480 0.55100
C14 C 0.34775 0.38485 0.47075
C15 C 0.36700 0.40285 0.43400
C16 C 0.37075 0.42020 0.47425
C17 C -0.10300 0.41160 0.53550
C18 C 0.00500 0.40150 0.49900
C19 C -0.01850 0.38290 0.46550
C20 C -0.14575 0.37520 0.46675
C21 C -0.25325 0.38515 0.49925
C22 C -0.22875 0.40380 0.53175
C23 C -0.19850 0.44450 0.67750
C24 C -0.23775 0.42785 0.72275
C25 C -0.32850 0.42920 0.78400
C26 C -0.38825 0.44685 0.80325
C27 C -0.35175 0.46345 0.76125
C28 C -0.26175 0.46250 0.69825
C29 C -0.17725 0.46040 0.49525
C30 C -0.31975 0.46040 0.49225
C31 C -0.39150 0.47270 0.44100
C32 C -0.32225 0.48490 0.39125
C33 C -0.18125 0.48535 0.39225
C34 C -0.10900 0.47330 0.44350
H1 H 0.16997 0.45240 0.52967
H2 H 0.03130 0.48320 0.58480
H3 H 0.26140 0.49570 0.53770
H4 H 0.43727 0.48455 0.62673
H5 H 0.32318 0.46555 0.73697
H6 H 0.13092 0.48800 0.71733
H7 H 0.06950 0.46685 0.71650
H8 H 0.14783 0.42135 0.84398
H9 H 0.22293 0.40410 0.80152
H10 H 0.30170 0.41705 0.86205
H11 H 0.39640 0.44835 0.55860
H12 H 0.44330 0.43755 0.63435
H13 H 0.34785 0.40120 0.64880
H14 H 0.33340 0.37265 0.57895
H15 H 0.33890 0.37295 0.44230
H16 H 0.37875 0.40310 0.37975
H17 H 0.37775 0.43235 0.44785
H18 H 0.09490 0.40715 0.49875
H19 H 0.05477 0.37575 0.44227
H20 H -0.16115 0.36250 0.44575
H21 H -0.34317 0.37955 0.50072
H22 H -0.30422 0.41115 0.55263
H23 H -0.19940 0.41530 0.71100
H24 H -0.34965 0.41770 0.81445
H25 H -0.45370 0.44765 0.84550
H26 H -0.38905 0.47595 0.77710
H27 H -0.24272 0.47405 0.66942
H28 H -0.36928 0.45180 0.52682
H29 H -0.48972 0.47270 0.44247
H30 H -0.37185 0.49295 0.35645
H31 H -0.13250 0.49400 0.35885
H32 H -0.01098 0.47360 0.44433
Sn1 Sn 0.17800 0.80883 0.82700
O1 O 0.33375 0.82734 0.94275
O2 O 0.52325 0.81965 1.00975
C1 C 0.38150 0.79660 0.83000
C2 C 0.36350 0.77310 0.85150
C3 C 0.49800 0.76330 0.82900
C4 C 0.59275 0.76910 0.87725
C5 C 0.52625 0.78300 0.93725
C6 C 0.49425 0.80255 0.89075
C7 C 0.38375 0.77455 0.94125
C8 C 0.44000 0.81790 0.95000
C9 C 0.48325 0.83295 1.07075
C10 C 0.62150 0.81115 0.84600
C11 C 0.61275 0.83000 0.80575
C12 C 0.60100 0.84825 0.84250
C13 C 0.59300 0.86520 0.80100
C14 C 0.59775 0.86515 0.72075
C15 C 0.61700 0.84715 0.68400
C16 C 0.62075 0.82980 0.72425
C17 C 0.14700 0.83840 0.78550
C18 C 0.25500 0.84850 0.74900
C19 C 0.23150 0.86710 0.71550
C20 C 0.10425 0.87480 0.71675
C21 C -0.00325 0.86485 0.74925
C22 C 0.02125 0.84620 0.78175
C23 C 0.05150 0.80550 0.92750
C24 C 0.01225 0.82215 0.97275
C25 C -0.07850 0.82080 1.03400
C26 C -0.13825 0.80315 1.05325
C27 C -0.10175 0.78655 1.01125
C28 C -0.01175 0.78750 0.94825
C29 C 0.07275 0.78960 0.74525
C30 C -0.06975 0.78960 0.74225
C31 C -0.14150 0.77730 0.69100
C32 C -0.07225 0.76510 0.64125
C33 C 0.06875 0.76465 0.64225
C34 C 0.14100 0.77670 0.69350
H1 H 0.41997 0.79760 0.77967
H2 H 0.28130 0.76680 0.83480
H3 H 0.51140 0.75430 0.78770
H4 H 0.68727 0.76545 0.87673
H5 H 0.57318 0.78445 0.98697
H6 H 0.38092 0.76200 0.96733
H7 H 0.31950 0.78315 0.96650
H8 H 0.39783 0.82865 1.09398
H9 H 0.47293 0.84590 1.05152
H10 H 0.55170 0.83295 1.11205
H11 H 0.64640 0.80165 0.80860
H12 H 0.69330 0.81245 0.88435
H13 H 0.59785 0.84880 0.89880
H14 H 0.58340 0.87735 0.82895
H15 H 0.58890 0.87705 0.69230
H16 H 0.62875 0.84690 0.62975
H17 H 0.62775 0.81765 0.69785
H18 H 0.34490 0.84285 0.74875
H19 H 0.30477 0.87425 0.69227
H20 H 0.08885 0.88750 0.69575
H21 H -0.09317 0.87045 0.75072
H22 H -0.05422 0.83885 0.80263
H23 H 0.05060 0.83470 0.96100
H24 H -0.09965 0.83230 1.06445
H25 H -0.20370 0.80235 1.09550
H26 H -0.13905 0.77405 1.02710
H27 H 0.00728 0.77595 0.91942
H28 H -0.11928 0.79820 0.77682
H29 H -0.23972 0.77730 0.69247
H30 H -0.12185 0.75705 0.60645
H31 H 0.11750 0.75600 0.60885
H32 H 0.23902 0.77640 0.69433
Sn1 Sn 0.82200 0.19117 0.82700
O1 O 0.66625 0.17266 0.94275
O2 O 0.47675 0.18035 1.00975
C1 C 0.61850 0.20340 0.83000
C2 C 0.63650 0.22690 0.85150
C3 C 0.50200 0.23670 0.82900
C4 C 0.40725 0.23090 0.87725
C5 C 0.47375 0.21700 0.93725
C6 C 0.50575 0.19745 0.89075
C7 C 0.61625 0.22545 0.94125
C8 C 0.56000 0.18210 0.95000
C9 C 0.51675 0.16705 1.07075
C10 C 0.37850 0.18885 0.84600
C11 C 0.38725 0.17000 0.80575
C12 C 0.39900 0.15175 0.84250
C13 C 0.40700 0.13480 0.80100
C14 C 0.40225 0.13485 0.72075
C15 C 0.38300 0.15285 0.68400
C16 C 0.37925 0.17020 0.72425
C17 C 0.85300 0.16160 0.78550
C18 C 0.74500 0.15150 0.74900
C19 C 0.76850 0.13290 0.71550
C20 C 0.89575 0.12520 0.71675
C21 C 1.00325 0.13515 0.74925
C22 C 0.97875 0.15380 0.78175
C23 C 0.94850 0.19450 0.92750
C24 C 0.98775 0.17785 0.97275
C25 C 1.07850 0.17920 1.03400
C26 C 1.13825 0.19685 1.05325
C27 C 1.10175 0.21345 1.01125
C28 C 1.01175 0.21250 0.94825
C29 C 0.92725 0.21040 0.74525
C30 C 1.06975 0.21040 0.74225
C31 C 1.14150 0.22270 0.69100
C32 C 1.07225 0.23490 0.64125
C33 C 0.93125 0.23535 0.64225
C34 C 0.85900 0.22330 0.69350
H1 H 0.58003 0.20240 0.77967
H2 H 0.71870 0.23320 0.83480
H3 H 0.48860 0.24570 0.78770
H4 H 0.31273 0.23455 0.87673
H5 H 0.42682 0.21555 0.98697
H6 H 0.61908 0.23800 0.96733
H7 H 0.68050 0.21685 0.96650
H8 H 0.60217 0.17135 1.09398
H9 H 0.52707 0.15410 1.05152
H10 H 0.44830 0.16705 1.11205
H11 H 0.35360 0.19835 0.80860
H12 H 0.30670 0.18755 0.88435
H13 H 0.40215 0.15120 0.89880
H14 H 0.41660 0.12265 0.82895
H15 H 0.41110 0.12295 0.69230
H16 H 0.37125 0.15310 0.62975
H17 H 0.37225 0.18235 0.69785
H18 H 0.65510 0.15715 0.74875
H19 H 0.69523 0.12575 0.69227
H20 H 0.91115 0.11250 0.69575
H21 H 1.09317 0.12955 0.75072
H22 H 1.05422 0.16115 0.80263
H23 H 0.94940 0.16530 0.96100
H24 H 1.09965 0.16770 1.06445
H25 H 1.20370 0.19765 1.09550
H26 H 1.13905 0.22595 1.02710
H27 H 0.99272 0.22405 0.91942
H28 H 1.11928 0.20180 0.77682
H29 H 1.23972 0.22270 0.69247
H30 H 1.12185 0.24295 0.60645
H31 H 0.88250 0.24400 0.60885
H32 H 0.76098 0.22360 0.69433
Sn1 Sn 0.57200 0.05883 0.57700
O1 O 0.41625 0.07734 0.69275
O2 O 0.22675 0.06965 0.75975
C1 C 0.36850 0.04660 0.58000
C2 C 0.38650 0.02310 0.60150
C3 C 0.25200 0.01330 0.57900
C4 C 0.15725 0.01910 0.62725
C5 C 0.22375 0.03300 0.68725
C6 C 0.25575 0.05255 0.64075
C7 C 0.36625 0.02455 0.69125
C8 C 0.31000 0.06790 0.70000
C9 C 0.26675 0.08295 0.82075
C10 C 0.12850 0.06115 0.59600
C11 C 0.13725 0.08000 0.55575
C12 C 0.14900 0.09825 0.59250
C13 C 0.15700 0.11520 0.55100
C14 C 0.15225 0.11515 0.47075
C15 C 0.13300 0.09715 0.43400
C16 C 0.12925 0.07980 0.47425
C17 C 0.60300 0.08840 0.53550
C18 C 0.49500 0.09850 0.49900
C19 C 0.51850 0.11710 0.46550
C20 C 0.64575 0.12480 0.46675
C21 C 0.75325 0.11485 0.49925
C22 C 0.72875 0.09620 0.53175
C23 C 0.69850 0.05550 0.67750
C24 C 0.73775 0.07215 0.72275
C25 C 0.82850 0.07080 0.78400
C26 C 0.88825 0.05315 0.80325
C27 C 0.85175 0.03655 0.76125
C28 C 0.76175 0.03750 0.69825
C29 C 0.67725 0.03960 0.49525
C30 C 0.81975 0.03960 0.49225
C31 C 0.89150 0.02730 0.44100
C32 C 0.82225 0.01510 0.39125
C33 C 0.68125 0.01465 0.39225
C34 C 0.60900 0.02670 0.44350
H1 H 0.33003 0.04760 0.52967
H2 H 0.46870 0.01680 0.58480
H3 H 0.23860 0.00430 0.53770
H4 H 0.06273 0.01545 0.62673
H5 H 0.17682 0.03445 0.73697
H6 H 0.36908 0.01200 0.71733
H7 H 0.43050 0.03315 0.71650
H8 H 0.35217 0.07865 0.84398
H9 H 0.27707 0.09590 0.80152
H10 H 0.19830 0.08295 0.86205
H11 H 0.10360 0.05165 0.55860
H12 H 0.05670 0.06245 0.63435
H13 H 0.15215 0.09880 0.64880
H14 H 0.16660 0.12735 0.57895
H15 H 0.16110 0.12705 0.44230
H16 H 0.12125 0.09690 0.37975
H17 H 0.12225 0.06765 0.44785
H18 H 0.40510 0.09285 0.49875
H19 H 0.44523 0.12425 0.44227
H20 H 0.66115 0.13750 0.44575
H21 H 0.84317 0.12045 0.50072
H22 H 0.80422 0.08885 0.55263
H23 H 0.69940 0.08470 0.71100
H24 H 0.84965 0.08230 0.81445
H25 H 0.95370 0.05235 0.84550
H26 H 0.88905 0.02405 0.77710
H27 H 0.74272 0.02595 0.66942
H28 H 0.86928 0.04820 0.52682
H29 H 0.98972 0.02730 0.44247
H30 H 0.87185 0.00705 0.35645
H31 H 0.63250 0.00600 0.35885
H32 H 0.51098 0.02640 0.44433
Sn1 Sn 0.42800 0.94117 0.57700
O1 O 0.58375 0.92266 0.69275
O2 O 0.77325 0.93035 0.75975
C1 C 0.63150 0.95340 0.58000
C2 C 0.61350 0.97690 0.60150
C3 C 0.74800 0.98670 0.57900
C4 C 0.84275 0.98090 0.62725
C5 C 0.77625 0.96700 0.68725
C6 C 0.74425 0.94745 0.64075
C7 C 0.63375 0.97545 0.69125
C8 C 0.69000 0.93210 0.70000
C9 C 0.73325 0.91705 0.82075
C10 C 0.87150 0.93885 0.59600
C11 C 0.86275 0.92000 0.55575
C12 C 0.85100 0.90175 0.59250
C13 C 0.84300 0.88480 0.55100
C14 C 0.84775 0.88485 0.47075
C15 C 0.86700 0.90285 0.43400
C16 C 0.87075 0.92020 0.47425
C17 C 0.39700 0.91160 0.53550
C18 C 0.50500 0.90150 0.49900
C19 C 0.48150 0.88290 0.46550
C20 C 0.35425 0.87520 0.46675
C21 C 0.24675 0.88515 0.49925
C22 C 0.27125 0.90380 0.53175
C23 C 0.30150 0.94450 0.67750
C24 C 0.26225 0.92785 0.72275
C25 C 0.17150 0.92920 0.78400
C26 C 0.11175 0.94685 0.80325
C27 C 0.14825 0.96345 0.76125
C28 C 0.23825 0.96250 0.69825
C29 C 0.32275 0.96040 0.49525
C30 C 0.18025 0.96040 0.49225
C31 C 0.10850 0.97270 0.44100
C32 C 0.17775 0.98490 0.39125
C33 C 0.31875 0.98535 0.39225
C34 C 0.39100 0.97330 0.44350
H1 H 0.66997 0.95240 0.52967
H2 H 0.53130 0.98320 0.58480
H3 H 0.76140 0.99570 0.53770
H4 H 0.93727 0.98455 0.62673
H5 H 0.82318 0.96555 0.73697
H6 H 0.63092 0.98800 0.71733
H7 H 0.56950 0.96685 0.71650
H8 H 0.64783 0.92135 0.84398
H9 H 0.72293 0.90410 0.80152
H10 H 0.80170 0.91705 0.86205
H11 H 0.89640 0.94835 0.55860
H12 H 0.94330 0.93755 0.63435
H13 H 0.84785 0.90120 0.64880
H14 H 0.83340 0.87265 0.57895
H15 H 0.83890 0.87295 0.44230
H16 H 0.87875 0.90310 0.37975
H17 H 0.87775 0.93235 0.44785
H18 H 0.59490 0.90715 0.49875
H19 H 0.55477 0.87575 0.44227
H20 H 0.33885 0.86250 0.44575
H21 H 0.15683 0.87955 0.50072
H22 H 0.19578 0.91115 0.55263
H23 H 0.30060 0.91530 0.71100
H24 H 0.15035 0.91770 0.81445
H25 H 0.04630 0.94765 0.84550
H26 H 0.11095 0.97595 0.77710
H27 H 0.25728 0.97405 0.66942
H28 H 0.13072 0.95180 0.52682
H29 H 0.01028 0.97270 0.44247
H30 H 0.12815 0.99295 0.35645
H31 H 0.36750 0.99400 0.35885
H32 H 0.48902 0.97360 0.44433
Sn1 Sn 0.67800 0.30883 0.82700
O1 O 0.83375 0.32734 0.94275
O2 O 1.02325 0.31965 1.00975
C1 C 0.88150 0.29660 0.83000
C2 C 0.86350 0.27310 0.85150
C3 C 0.99800 0.26330 0.82900
C4 C 1.09275 0.26910 0.87725
C5 C 1.02625 0.28300 0.93725
C6 C 0.99425 0.30255 0.89075
C7 C 0.88375 0.27455 0.94125
C8 C 0.94000 0.31790 0.95000
C9 C 0.98325 0.33295 1.07075
C10 C 1.12150 0.31115 0.84600
C11 C 1.11275 0.33000 0.80575
C12 C 1.10100 0.34825 0.84250
C13 C 1.09300 0.36520 0.80100
C14 C 1.09775 0.36515 0.72075
C15 C 1.11700 0.34715 0.68400
C16 C 1.12075 0.32980 0.72425
C17 C 0.64700 0.33840 0.78550
C18 C 0.75500 0.34850 0.74900
C19 C 0.73150 0.36710 0.71550
C20 C 0.60425 0.37480 0.71675
C21 C 0.49675 0.36485 0.74925
C22 C 0.52125 0.34620 0.78175
C23 C 0.55150 0.30550 0.92750
C24 C 0.51225 0.32215 0.97275
C25 C 0.42150 0.32080 1.03400
C26 C 0.36175 0.30315 1.05325
C27 C 0.39825 0.28655 1.01125
C28 C 0.48825 0.28750 0.94825
C29 C 0.57275 0.28960 0.74525
C30 C 0.43025 0.28960 0.74225
C31 C 0.35850 0.27730 0.69100
C32 C 0.42775 0.26510 0.64125
C33 C 0.56875 0.26465 0.64225
C34 C 0.64100 0.27670 0.69350
H1 H 0.91997 0.29760 0.77967
H2 H 0.78130 0.26680 0.83480
H3 H 1.01140 0.25430 0.78770
H4 H 1.18727 0.26545 0.87673
H5 H 1.07318 0.28445 0.98697
H6 H 0.88092 0.26200 0.96733
H7 H 0.81950 0.28315 0.96650
H8 H 0.89783 0.32865 1.09398
H9 H 0.97293 0.34590 1.05152
H10 H 1.05170 0.33295 1.11205
H11 H 1.14640 0.30165 0.80860
H12 H 1.19330 0.31245 0.88435
H13 H 1.09785 0.34880 0.89880
H14 H 1.08340 0.37735 0.82895
H15 H 1.08890 0.37705 0.69230
H16 H 1.12875 0.34690 0.62975
H17 H 1.12775 0.31765 0.69785
H18 H 0.84490 0.34285 0.74875
H19 H 0.80477 0.37425 0.69227
H20 H 0.58885 0.38750 0.69575
H21 H 0.40683 0.37045 0.75072
H22 H 0.44578 0.33885 0.80263
H23 H 0.55060 0.33470 0.96100
H24 H 0.40035 0.33230 1.06445
H25 H 0.29630 0.30235 1.09550
H26 H 0.36095 0.27405 1.02710
H27 H 0.50728 0.27595 0.91942
H28 H 0.38072 0.29820 0.77682
H29 H 0.26028 0.27730 0.69247
H30 H 0.37815 0.25705 0.60645
H31 H 0.61750 0.25600 0.60885
H32 H 0.73902 0.27640 0.69433
Sn1 Sn 0.32200 0.69117 0.82700
O1 O 0.16625 0.67266 0.94275
O2 O -0.02325 0.68035 1.00975
C1 C 0.11850 0.70340 0.83000
C2 C 0.13650 0.72690 0.85150
C3 C 0.00200 0.73670 0.82900
C4 C -0.09275 0.73090 0.87725
C5 C -0.02625 0.71700 0.93725
C6 C 0.00575 0.69745 0.89075
C7 C 0.11625 0.72545 0.94125
C8 C 0.06000 0.68210 0.95000
C9 C 0.01675 0.66705 1.07075
C10 C -0.12150 0.68885 0.84600
C11 C -0.11275 0.67000 0.80575
C12 C -0.10100 0.65175 0.84250
C13 C -0.09300 0.63480 0.80100
C14 C -0.09775 0.63485 0.72075
C15 C -0.11700 0.65285 0.68400
C16 C -0.12075 0.67020 0.72425
C17 C 0.35300 0.66160 0.78550
C18 C 0.24500 0.65150 0.74900
C19 C 0.26850 0.63290 0.71550
C20 C 0.39575 0.62520 0.71675
C21 C 0.50325 0.63515 0.74925
C22 C 0.47875 0.65380 0.78175
C23 C 0.44850 0.69450 0.92750
C24 C 0.48775 0.67785 0.97275
C25 C 0.57850 0.67920 1.03400
C26 C 0.63825 0.69685 1.05325
C27 C 0.60175 0.71345 1.01125
C28 C 0.51175 0.71250 0.94825
C29 C 0.42725 0.71040 0.74525
C30 C 0.56975 0.71040 0.74225
C31 C 0.64150 0.72270 0.69100
C32 C 0.57225 0.73490 0.64125
C33 C 0.43125 0.73535 0.64225
C34 C 0.35900 0.72330 0.69350
H1 H 0.08003 0.70240 0.77967
H2 H 0.21870 0.73320 0.83480
H3 H -0.01140 0.74570 0.78770
H4 H -0.18727 0.73455 0.87673
H5 H -0.07318 0.71555 0.98697
H6 H 0.11908 0.73800 0.96733
H7 H 0.18050 0.71685 0.96650
H8 H 0.10217 0.67135 1.09398
H9 H 0.02707 0.65410 1.05152
H10 H -0.05170 0.66705 1.11205
H11 H -0.14640 0.69835 0.80860
H12 H -0.19330 0.68755 0.88435
H13 H -0.09785 0.65120 0.89880
H14 H -0.08340 0.62265 0.82895
H15 H -0.08890 0.62295 0.69230
H16 H -0.12875 0.65310 0.62975
H17 H -0.12775 0.68235 0.69785
H18 H 0.15510 0.65715 0.74875
H19 H 0.19523 0.62575 0.69227
H20 H 0.41115 0.61250 0.69575
H21 H 0.59317 0.62955 0.75072
H22 H 0.55422 0.66115 0.80263
H23 H 0.44940 0.66530 0.96100
H24 H 0.59965 0.66770 1.06445
H25 H 0.70370 0.69765 1.09550
H26 H 0.63905 0.72595 1.02710
H27 H 0.49272 0.72405 0.91942
H28 H 0.61928 0.70180 0.77682
H29 H 0.73972 0.72270 0.69247
H30 H 0.62185 0.74295 0.60645
H31 H 0.38250 0.74400 0.60885
H32 H 0.26098 0.72360 0.69433
Sn1 Sn 0.57200 0.55883 0.07700
O1 O 0.41625 0.57734 0.19275
O2 O 0.22675 0.56965 0.25975
C1 C 0.36850 0.54660 0.08000
C2 C 0.38650 0.52310 0.10150
C3 C 0.25200 0.51330 0.07900
C4 C 0.15725 0.51910 0.12725
C5 C 0.22375 0.53300 0.18725
C6 C 0.25575 0.55255 0.14075
C7 C 0.36625 0.52455 0.19125
C8 C 0.31000 0.56790 0.20000
C9 C 0.26675 0.58295 0.32075
C10 C 0.12850 0.56115 0.09600
C11 C 0.13725 0.58000 0.05575
C12 C 0.14900 0.59825 0.09250
C13 C 0.15700 0.61520 0.05100
C14 C 0.15225 0.61515 -0.02925
C15 C 0.13300 0.59715 -0.06600
C16 C 0.12925 0.57980 -0.02575
C17 C 0.60300 0.58840 0.03550
C18 C 0.49500 0.59850 -0.00100
C19 C 0.51850 0.61710 -0.03450
C20 C 0.64575 0.62480 -0.03325
C21 C 0.75325 0.61485 -0.00075
C22 C 0.72875 0.59620 0.03175
C23 C 0.69850 0.55550 0.17750
C24 C 0.73775 0.57215 0.22275
C25 C 0.82850 0.57080 0.28400
C26 C 0.88825 0.55315 0.30325
C27 C 0.85175 0.53655 0.26125
C28 C 0.76175 0.53750 0.19825
C29 C 0.67725 0.53960 -0.00475
C30 C 0.81975 0.53960 -0.00775
C31 C 0.89150 0.52730 -0.05900
C32 C 0.82225 0.51510 -0.10875
C33 C 0.68125 0.51465 -0.10775
C34 C 0.60900 0.52670 -0.05650
H1 H 0.33003 0.54760 0.02967
H2 H 0.46870 0.51680 0.08480
H3 H 0.23860 0.50430 0.03770
H4 H 0.06273 0.51545 0.12673
H5 H 0.17682 0.53445 0.23697
H6 H 0.36908 0.51200 0.21733
H7 H 0.43050 0.53315 0.21650
H8 H 0.35217 0.57865 0.34398
H9 H 0.27707 0.59590 0.30152
H10 H 0.19830 0.58295 0.36205
H11 H 0.10360 0.55165 0.05860
H12 H 0.05670 0.56245 0.13435
H13 H 0.15215 0.59880 0.14880
H14 H 0.16660 0.62735 0.07895
H15 H 0.16110 0.62705 -0.05770
H16 H 0.12125 0.59690 -0.12025
H17 H 0.12225 0.56765 -0.05215
H18 H 0.40510 0.59285 -0.00125
H19 H 0.44523 0.62425 -0.05773
H20 H 0.66115 0.63750 -0.05425
H21 H 0.84317 0.62045 0.00072
H22 H 0.80422 0.58885 0.05263
H23 H 0.69940 0.58470 0.21100
H24 H 0.84965 0.58230 0.31445
H25 H 0.95370 0.55235 0.34550
H26 H 0.88905 0.52405 0.27710
H27 H 0.74272 0.52595 0.16942
H28 H 0.86928 0.54820 0.02682
H29 H 0.98972 0.52730 -0.05753
H30 H 0.87185 0.50705 -0.14355
H31 H 0.63250 0.50600 -0.14115
H32 H 0.51098 0.52640 -0.05567
Sn1 Sn 0.42800 0.44117 0.07700
O1 O 0.58375 0.42266 0.19275
O2 O 0.77325 0.43035 0.25975
C1 C 0.63150 0.45340 0.08000
C2 C 0.61350 0.47690 0.10150
C3 C 0.74800 0.48670 0.07900
C4 C 0.84275 0.48090 0.12725
C5 C 0.77625 0.46700 0.18725
C6 C 0.74425 0.44745 0.14075
C7 C 0.63375 0.47545 0.19125
C8 C 0.69000 0.43210 0.20000
C9 C 0.73325 0.41705 0.32075
C10 C 0.87150 0.43885 0.09600
C11 C 0.86275 0.42000 0.05575
C12 C 0.85100 0.40175 0.09250
C13 C 0.84300 0.38480 0.05100
C14 C 0.84775 0.38485 -0.02925
C15 C 0.86700 0.40285 -0.06600
C16 C 0.87075 0.42020 -0.02575
C17 C 0.39700 0.41160 0.03550
C18 C 0.50500 0.40150 -0.00100
C19 C 0.48150 0.38290 -0.03450
C20 C 0.35425 0.37520 -0.03325
C21 C 0.24675 0.38515 -0.00075
C22 C 0.27125 0.40380 0.03175
C23 C 0.30150 0.44450 0.17750
C24 C 0.26225 0.42785 0.22275
C25 C 0.17150 0.42920 0.28400
C26 C 0.11175 0.44685 0.30325
C27 C 0.14825 0.46345 0.26125
C28 C 0.23825 0.46250 0.19825
C29 C 0.32275 0.46040 -0.00475
C30 C 0.18025 0.46040 -0.00775
C31 C 0.10850 0.47270 -0.05900
C32 C 0.17775 0.48490 -0.10875
C33 C 0.31875 0.48535 -0.10775
C34 C 0.39100 0.47330 -0.05650
H1 H 0.66997 0.45240 0.02967
H2 H 0.53130 0.48320 0.08480
H3 H 0.76140 0.49570 0.03770
H4 H 0.93727 0.48455 0.12673
H5 H 0.82318 0.46555 0.23697
H6 H 0.63092 0.48800 0.21733
H7 H 0.56950 0.46685 0.21650
H8 H 0.64783 0.42135 0.34398
H9 H 0.72293 0.40410 0.30152
H10 H 0.80170 0.41705 0.36205
H11 H 0.89640 0.44835 0.05860
H12 H 0.94330 0.43755 0.13435
H13 H 0.84785 0.40120 0.14880
H14 H 0.83340 0.37265 0.07895
H15 H 0.83890 0.37295 -0.05770
H16 H 0.87875 0.40310 -0.12025
H17 H 0.87775 0.43235 -0.05215
H18 H 0.59490 0.40715 -0.00125
H19 H 0.55477 0.37575 -0.05773
H20 H 0.33885 0.36250 -0.05425
H21 H 0.15683 0.37955 0.00072
H22 H 0.19578 0.41115 0.05263
H23 H 0.30060 0.41530 0.21100
H24 H 0.15035 0.41770 0.31445
H25 H 0.04630 0.44765 0.34550
H26 H 0.11095 0.47595 0.27710
H27 H 0.25728 0.47405 0.16942
H28 H 0.13072 0.45180 0.02682
H29 H 0.01028 0.47270 -0.05753
H30 H 0.12815 0.49295 -0.14355
H31 H 0.36750 0.49400 -0.14115
H32 H 0.48902 0.47360 -0.05567
Sn1 Sn 0.67800 0.80883 0.32700
O1 O 0.83375 0.82734 0.44275
O2 O 1.02325 0.81965 0.50975
C1 C 0.88150 0.79660 0.33000
C2 C 0.86350 0.77310 0.35150
C3 C 0.99800 0.76330 0.32900
C4 C 1.09275 0.76910 0.37725
C5 C 1.02625 0.78300 0.43725
C6 C 0.99425 0.80255 0.39075
C7 C 0.88375 0.77455 0.44125
C8 C 0.94000 0.81790 0.45000
C9 C 0.98325 0.83295 0.57075
C10 C 1.12150 0.81115 0.34600
C11 C 1.11275 0.83000 0.30575
C12 C 1.10100 0.84825 0.34250
C13 C 1.09300 0.86520 0.30100
C14 C 1.09775 0.86515 0.22075
C15 C 1.11700 0.84715 0.18400
C16 C 1.12075 0.82980 0.22425
C17 C 0.64700 0.83840 0.28550
C18 C 0.75500 0.84850 0.24900
C19 C 0.73150 0.86710 0.21550
C20 C 0.60425 0.87480 0.21675
C21 C 0.49675 0.86485 0.24925
C22 C 0.52125 0.84620 0.28175
C23 C 0.55150 0.80550 0.42750
C24 C 0.51225 0.82215 0.47275
C25 C 0.42150 0.82080 0.53400
C26 C 0.36175 0.80315 0.55325
C27 C 0.39825 0.78655 0.51125
C28 C 0.48825 0.78750 0.44825
C29 C 0.57275 0.78960 0.24525
C30 C 0.43025 0.78960 0.24225
C31 C 0.35850 0.77730 0.19100
C32 C 0.42775 0.76510 0.14125
C33 C 0.56875 0.76465 0.14225
C34 C 0.64100 0.77670 0.19350
H1 H 0.91997 0.79760 0.27967
H2 H 0.78130 0.76680 0.33480
H3 H 1.01140 0.75430 0.28770
H4 H 1.18727 0.76545 0.37673
H5 H 1.07318 0.78445 0.48697
H6 H 0.88092 0.76200 0.46733
H7 H 0.81950 0.78315 0.46650
H8 H 0.89783 0.82865 0.59398
H9 H 0.97293 0.84590 0.55152
H10 H 1.05170 0.83295 0.61205
H11 H 1.14640 0.80165 0.30860
H12 H 1.19330 0.81245 0.38435
H13 H 1.09785 0.84880 0.39880
H14 H 1.08340 0.87735 0.32895
H15 H 1.08890 0.87705 0.19230
H16 H 1.12875 0.84690 0.12975
H17 H 1.12775 0.81765 0.19785
H18 H 0.84490 0.84285 0.24875
H19 H 0.80477 0.87425 0.19227
H20 H 0.58885 0.88750 0.19575
H21 H 0.40683 0.87045 0.25072
H22 H 0.44578 0.83885 0.30263
H23 H 0.55060 0.83470 0.46100
H24 H 0.40035 0.83230 0.56445
H25 H 0.29630 0.80235 0.59550
H26 H 0.36095 0.77405 0.52710
H27 H 0.50728 0.77595 0.41942
H28 H 0.38072 0.79820 0.27682
H29 H 0.26028 0.77730 0.19247
H30 H 0.37815 0.75705 0.10645
H31 H 0.61750 0.75600 0.10885
H32 H 0.73902 0.77640 0.19433
Sn1 Sn 0.32200 0.19117 0.32700
O1 O 0.16625 0.17266 0.44275
O2 O -0.02325 0.18035 0.50975
C1 C 0.11850 0.20340 0.33000
C2 C 0.13650 0.22690 0.35150
C3 C 0.00200 0.23670 0.32900
C4 C -0.09275 0.23090 0.37725
C5 C -0.02625 0.21700 0.43725
C6 C 0.00575 0.19745 0.39075
C7 C 0.11625 0.22545 0.44125
C8 C 0.06000 0.18210 0.45000
C9 C 0.01675 0.16705 0.57075
C10 C -0.12150 0.18885 0.34600
C11 C -0.11275 0.17000 0.30575
C12 C -0.10100 0.15175 0.34250
C13 C -0.09300 0.13480 0.30100
C14 C -0.09775 0.13485 0.22075
C15 C -0.11700 0.15285 0.18400
C16 C -0.12075 0.17020 0.22425
C17 C 0.35300 0.16160 0.28550
C18 C 0.24500 0.15150 0.24900
C19 C 0.26850 0.13290 0.21550
C20 C 0.39575 0.12520 0.21675
C21 C 0.50325 0.13515 0.24925
C22 C 0.47875 0.15380 0.28175
C23 C 0.44850 0.19450 0.42750
C24 C 0.48775 0.17785 0.47275
C25 C 0.57850 0.17920 0.53400
C26 C 0.63825 0.19685 0.55325
C27 C 0.60175 0.21345 0.51125
C28 C 0.51175 0.21250 0.44825
C29 C 0.42725 0.21040 0.24525
C30 C 0.56975 0.21040 0.24225
C31 C 0.64150 0.22270 0.19100
C32 C 0.57225 0.23490 0.14125
C33 C 0.43125 0.23535 0.14225
C34 C 0.35900 0.22330 0.19350
H1 H 0.08003 0.20240 0.27967
H2 H 0.21870 0.23320 0.33480
H3 H -0.01140 0.24570 0.28770
H4 H -0.18727 0.23455 0.37673
H5 H -0.07318 0.21555 0.48697
H6 H 0.11908 0.23800 0.46733
H7 H 0.18050 0.21685 0.46650
H8 H 0.10217 0.17135 0.59398
H9 H 0.02707 0.15410 0.55152
H10 H -0.05170 0.16705 0.61205
H11 H -0.14640 0.19835 0.30860
H12 H -0.19330 0.18755 0.38435
H13 H -0.09785 0.15120 0.39880
H14 H -0.08340 0.12265 0.32895
H15 H -0.08890 0.12295 0.19230
H16 H -0.12875 0.15310 0.12975
H17 H -0.12775 0.18235 0.19785
H18 H 0.15510 0.15715 0.24875
H19 H 0.19523 0.12575 0.19227
H20 H 0.41115 0.11250 0.19575
H21 H 0.59317 0.12955 0.25072
H22 H 0.55422 0.16115 0.30263
H23 H 0.44940 0.16530 0.46100
H24 H 0.59965 0.16770 0.56445
H25 H 0.70370 0.19765 0.59550
H26 H 0.63905 0.22595 0.52710
H27 H 0.49272 0.22405 0.41942
H28 H 0.61928 0.20180 0.27682
H29 H 0.73972 0.22270 0.19247
H30 H 0.62185 0.24295 0.10645
H31 H 0.38250 0.24400 0.10885
H32 H 0.26098 0.22360 0.19433

#END
