
#######################################################################
#
#                 Cambridge Crystallographic Data Centre
#                                CCDC 
#
#######################################################################
#
# If this CIF has been generated from an entry in the Cambridge 
# Structural Database, then it will include bibliographic, chemical, 
# crystal, experimental, refinement or atomic coordinate data resulting 
# from the CCDC's data processing and validation procedures.
#
#######################################################################

data_ACULIV01
_symmetry_cell_setting           monoclinic
_symmetry_space_group_name_H-M   'P 21/c'
_symmetry_Int_Tables_number      14
_space_group_name_Hall           '-P 2ybc'
loop_
_symmetry_equiv_pos_site_id
_symmetry_equiv_pos_as_xyz
1 x,y,z
2 -x,1/2+y,1/2-z
3 -x,-y,-z
4 x,1/2-y,1/2+z
_cell_length_a                   13.518(2)
_cell_length_b                   15.067(2)
_cell_length_c                   7.419(1)
_cell_angle_alpha                90
_cell_angle_beta                 90.58(2)
_cell_angle_gamma                90
_cell_volume                     1510.99
loop_
_atom_site_label
_atom_site_type_symbol
_atom_site_fract_x
_atom_site_fract_y
_atom_site_fract_z
N1 N 1.0189(3) 0.6451(4) -0.1643(5)
N2 N 1.1474(3) 0.6226(3) 0.3589(6)
N3 N 0.3677(2) 0.6244(3) -0.2140(5)
C1 C 0.7163(3) 0.6304(2) 0.2161(4)
C2 C 0.8027(3) 0.5974(2) 0.1451(4)
C3 C 0.8006(3) 0.5547(3) -0.0272(5)
C4 C 0.7147(3) 0.5483(3) -0.1238(5)
C5 C 0.6261(3) 0.5862(2) -0.0615(4)
C6 C 0.5390(3) 0.5855(3) -0.1671(5)
C7 C 0.4525(3) 0.6233(3) -0.1096(5)
C8 C 0.4528(3) 0.6635(3) 0.0662(6)
C9 C 0.5365(3) 0.6644(3) 0.1707(5)
C10 C 0.6269(3) 0.6268(2) 0.1133(4)
C11 C 0.8954(3) 0.6039(2) 0.2464(5)
C12 C 0.8833(4) 0.6054(4) 0.4472(5)
C13 C 0.8144(4) 0.6810(4) 0.4916(5)
C14 C 0.7150(4) 0.6708(3) 0.4030(5)
C15 C 0.9851(3) 0.6160(3) 0.1717(5)
C16 C 1.0019(3) 0.6312(3) -0.0159(6)
C17 C 1.0746(3) 0.6201(3) 0.2801(6)
C18 C 0.3695(4) 0.5860(4) -0.3914(7)
C19 C 0.2776(4) 0.6647(5) -0.1566(10)
H1 H 0.868(3) 0.531(2) -0.074(5)
H2 H 0.712(3) 0.514(3) -0.242(5)
H3 H 0.544(3) 0.550(3) -0.290(5)
H4 H 0.395(3) 0.688(3) 0.113(6)
H5 H 0.536(3) 0.697(3) 0.294(6)
H6 H 0.943(3) 0.609(3) 0.492(6)
H7 H 0.852(3) 0.545(3) 0.484(6)
H8 H 0.859(3) 0.738(3) 0.457(6)
H9 H 0.803(3) 0.680(3) 0.623(7)
H10 H 0.672(3) 0.633(3) 0.473(6)
H11 H 0.676(3) 0.726(3) 0.386(6)
H12 H 0.427(4) 0.612(3) -0.459(6)
H13 H 0.395(4) 0.527(4) -0.387(6)
H14 H 0.299(4) 0.591(3) -0.438(6)
H15 H 0.253(4) 0.643(4) -0.042(8)
H16 H 0.230(5) 0.651(4) -0.221(8)
H17 H 0.281(4) 0.716(4) -0.094(8)
N1 N -0.0189(3) 0.1451(4) 0.6643(5)
N2 N -0.1474(3) 0.1226(3) 0.1411(6)
N3 N 0.6323(2) 0.1244(3) 0.7140(5)
C1 C 0.2837(3) 0.1304(2) 0.2839(4)
C2 C 0.1973(3) 0.0974(2) 0.3549(4)
C3 C 0.1994(3) 0.0547(3) 0.5272(5)
C4 C 0.2853(3) 0.0483(3) 0.6238(5)
C5 C 0.3739(3) 0.0862(2) 0.5615(4)
C6 C 0.4610(3) 0.0855(3) 0.6671(5)
C7 C 0.5475(3) 0.1233(3) 0.6096(5)
C8 C 0.5472(3) 0.1635(3) 0.4338(6)
C9 C 0.4635(3) 0.1644(3) 0.3293(5)
C10 C 0.3731(3) 0.1268(2) 0.3867(4)
C11 C 0.1046(3) 0.1039(2) 0.2536(5)
C12 C 0.1167(4) 0.1054(4) 0.0528(5)
C13 C 0.1856(4) 0.1810(4) 0.0084(5)
C14 C 0.2850(4) 0.1708(3) 0.0970(5)
C15 C 0.0149(3) 0.1160(3) 0.3283(5)
C16 C -0.0019(3) 0.1312(3) 0.5159(6)
C17 C -0.0746(3) 0.1201(3) 0.2199(6)
C18 C 0.6305(4) 0.0860(4) 0.8914(7)
C19 C 0.7224(4) 0.1647(5) 0.6566(10)
H1 H 0.132(3) 0.031(2) 0.574(5)
H2 H 0.288(3) 0.014(3) 0.742(5)
H3 H 0.456(3) 0.050(3) 0.790(5)
H4 H 0.605(3) 0.188(3) 0.387(6)
H5 H 0.464(3) 0.197(3) 0.206(6)
H6 H 0.057(3) 0.109(3) 0.008(6)
H7 H 0.148(3) 0.045(3) 0.016(6)
H8 H 0.141(3) 0.238(3) 0.043(6)
H9 H 0.197(3) 0.180(3) -0.123(7)
H10 H 0.328(3) 0.133(3) 0.027(6)
H11 H 0.324(3) 0.226(3) 0.114(6)
H12 H 0.573(4) 0.112(3) 0.959(6)
H13 H 0.605(4) 0.027(4) 0.887(6)
H14 H 0.701(4) 0.091(3) 0.938(6)
H15 H 0.747(4) 0.143(4) 0.542(8)
H16 H 0.770(5) 0.151(4) 0.721(8)
H17 H 0.719(4) 0.216(4) 0.594(8)
N1 N -0.0189(3) 0.3549(4) 1.1643(5)
N2 N -0.1474(3) 0.3774(3) 0.6411(6)
N3 N 0.6323(2) 0.3756(3) 1.2140(5)
C1 C 0.2837(3) 0.3696(2) 0.7839(4)
C2 C 0.1973(3) 0.4026(2) 0.8549(4)
C3 C 0.1994(3) 0.4453(3) 1.0272(5)
C4 C 0.2853(3) 0.4517(3) 1.1238(5)
C5 C 0.3739(3) 0.4138(2) 1.0615(4)
C6 C 0.4610(3) 0.4145(3) 1.1671(5)
C7 C 0.5475(3) 0.3767(3) 1.1096(5)
C8 C 0.5472(3) 0.3365(3) 0.9338(6)
C9 C 0.4635(3) 0.3356(3) 0.8293(5)
C10 C 0.3731(3) 0.3732(2) 0.8867(4)
C11 C 0.1046(3) 0.3961(2) 0.7536(5)
C12 C 0.1167(4) 0.3946(4) 0.5528(5)
C13 C 0.1856(4) 0.3190(4) 0.5084(5)
C14 C 0.2850(4) 0.3292(3) 0.5970(5)
C15 C 0.0149(3) 0.3840(3) 0.8283(5)
C16 C -0.0019(3) 0.3688(3) 1.0159(6)
C17 C -0.0746(3) 0.3799(3) 0.7199(6)
C18 C 0.6305(4) 0.4140(4) 1.3914(7)
C19 C 0.7224(4) 0.3353(5) 1.1566(10)
H1 H 0.132(3) 0.469(2) 1.074(5)
H2 H 0.288(3) 0.486(3) 1.242(5)
H3 H 0.456(3) 0.450(3) 1.290(5)
H4 H 0.605(3) 0.312(3) 0.887(6)
H5 H 0.464(3) 0.303(3) 0.706(6)
H6 H 0.057(3) 0.391(3) 0.508(6)
H7 H 0.148(3) 0.455(3) 0.516(6)
H8 H 0.141(3) 0.262(3) 0.543(6)
H9 H 0.197(3) 0.320(3) 0.377(7)
H10 H 0.328(3) 0.367(3) 0.527(6)
H11 H 0.324(3) 0.274(3) 0.614(6)
H12 H 0.573(4) 0.388(3) 1.459(6)
H13 H 0.605(4) 0.473(4) 1.387(6)
H14 H 0.701(4) 0.409(3) 1.438(6)
H15 H 0.747(4) 0.357(4) 1.042(8)
H16 H 0.770(5) 0.349(4) 1.221(8)
H17 H 0.719(4) 0.284(4) 1.094(8)
N1 N 1.0189(3) 0.8549(4) 0.3357(5)
N2 N 1.1474(3) 0.8774(3) 0.8589(6)
N3 N 0.3677(2) 0.8756(3) 0.2860(5)
C1 C 0.7163(3) 0.8696(2) 0.7161(4)
C2 C 0.8027(3) 0.9026(2) 0.6451(4)
C3 C 0.8006(3) 0.9453(3) 0.4728(5)
C4 C 0.7147(3) 0.9517(3) 0.3762(5)
C5 C 0.6261(3) 0.9138(2) 0.4385(4)
C6 C 0.5390(3) 0.9145(3) 0.3329(5)
C7 C 0.4525(3) 0.8767(3) 0.3904(5)
C8 C 0.4528(3) 0.8365(3) 0.5662(6)
C9 C 0.5365(3) 0.8356(3) 0.6707(5)
C10 C 0.6269(3) 0.8732(2) 0.6133(4)
C11 C 0.8954(3) 0.8961(2) 0.7464(5)
C12 C 0.8833(4) 0.8946(4) 0.9472(5)
C13 C 0.8144(4) 0.8190(4) 0.9916(5)
C14 C 0.7150(4) 0.8292(3) 0.9030(5)
C15 C 0.9851(3) 0.8840(3) 0.6717(5)
C16 C 1.0019(3) 0.8688(3) 0.4841(6)
C17 C 1.0746(3) 0.8799(3) 0.7801(6)
C18 C 0.3695(4) 0.9140(4) 0.1086(7)
C19 C 0.2776(4) 0.8353(5) 0.3434(10)
H1 H 0.868(3) 0.969(2) 0.426(5)
H2 H 0.712(3) 0.986(3) 0.258(5)
H3 H 0.544(3) 0.950(3) 0.210(5)
H4 H 0.395(3) 0.812(3) 0.613(6)
H5 H 0.536(3) 0.803(3) 0.794(6)
H6 H 0.943(3) 0.891(3) 0.992(6)
H7 H 0.852(3) 0.955(3) 0.984(6)
H8 H 0.859(3) 0.762(3) 0.957(6)
H9 H 0.803(3) 0.820(3) 1.123(7)
H10 H 0.672(3) 0.867(3) 0.973(6)
H11 H 0.676(3) 0.774(3) 0.886(6)
H12 H 0.427(4) 0.888(3) 0.041(6)
H13 H 0.395(4) 0.973(4) 0.113(6)
H14 H 0.299(4) 0.909(3) 0.062(6)
H15 H 0.253(4) 0.857(4) 0.458(8)
H16 H 0.230(5) 0.849(4) 0.279(8)
H17 H 0.281(4) 0.784(4) 0.406(8)

#END
