./ACULIV_from_xyz.cif_generated_by_CrystalShift
_symmetry_cell_setting triclinic
_symmetry_space_group_name_H-M 'P 1'
loop_
_symmetry_equiv_pos_site_id
_symmetry_equiv_pos_as_xyz
1 x,y,z
_cell_length_a 9.514000
_cell_length_b 10.470000
_cell_length_c 14.923000
_cell_angle_alpha 90.000000
_cell_angle_beta 90.680000
_cell_angle_gamma 90.000000
_cell_volume 1486.398917
loop_
_atom_site_label
_atom_site_type_symbol
_atom_site_fract_x
_atom_site_fract_y
_atom_site_fract_z
N1 N -0.189900 0.946200 0.615870
N2 N -0.305300 1.031600 0.348670
N3 N 0.473850 0.288360 0.602740
C4 C 0.104590 0.617990 0.413030
C5 C 0.038090 0.718220 0.458560
C6 C 0.069700 0.734300 0.551960
C7 C 0.158800 0.655360 0.596260
C8 C 0.224490 0.551610 0.552820
C9 C 0.316940 0.470290 0.599360
C10 C 0.385460 0.369590 0.557850
C11 C 0.355900 0.352300 0.464910
C12 C 0.266200 0.429330 0.419180
C13 C 0.196140 0.533930 0.459670
C14 C -0.059080 0.802810 0.411980
C15 C -0.070200 0.791100 0.310720
C16 C 0.052300 0.726000 0.268570
C17 C 0.080000 0.600700 0.313580
C18 C -0.145890 0.891780 0.450000
C19 C -0.166800 0.918660 0.543110
C20 C -0.234900 0.969400 0.393300
C21 C 0.508100 0.311500 0.695770
C22 C 0.554900 0.191400 0.557000
H23 H 0.029000 0.805000 0.583100
H24 H 0.181000 0.671000 0.659800
H25 H 0.330000 0.487000 0.661600
H26 H 0.400000 0.281000 0.434800
H27 H 0.250000 0.415000 0.357800
H28 H -0.087000 0.876000 0.288400
H29 H -0.157000 0.734000 0.297000
H30 H 0.136000 0.782000 0.274100
H31 H 0.033000 0.712000 0.204300
H32 H 0.162000 0.559000 0.286500
H33 H -0.003000 0.543000 0.304200
H34 H 0.560000 0.241000 0.717000
H35 H 0.425000 0.323000 0.733000
H36 H 0.565000 0.397000 0.701000
H37 H 0.615000 0.224000 0.511000
H38 H 0.493000 0.137000 0.518000
H39 H 0.595000 0.133000 0.600000
N40 N 0.689900 0.446200 -0.115870
N41 N 0.805300 0.531600 0.151330
N42 N 0.026150 -0.211640 -0.102740
C43 C 0.395410 0.117990 0.086970
C44 C 0.461910 0.218220 0.041440
C45 C 0.430300 0.234300 -0.051960
C46 C 0.341200 0.155360 -0.096260
C47 C 0.275510 0.051610 -0.052820
C48 C 0.183060 -0.029710 -0.099360
C49 C 0.114540 -0.130410 -0.057850
C50 C 0.144100 -0.147700 0.035090
C51 C 0.233800 -0.070670 0.080820
C52 C 0.303860 0.033930 0.040330
C53 C 0.559080 0.302810 0.088020
C54 C 0.570200 0.291100 0.189280
C55 C 0.447700 0.226000 0.231430
C56 C 0.420000 0.100700 0.186420
C57 C 0.645890 0.391780 0.050000
C58 C 0.666800 0.418660 -0.043110
C59 C 0.734900 0.469400 0.106700
C60 C -0.008100 -0.188500 -0.195770
C61 C -0.054900 -0.308600 -0.057000
H62 H 0.471000 0.305000 -0.083100
H63 H 0.319000 0.171000 -0.159800
H64 H 0.170000 -0.013000 -0.161600
H65 H 0.100000 -0.219000 0.065200
H66 H 0.250000 -0.085000 0.142200
H67 H 0.587000 0.376000 0.211600
H68 H 0.657000 0.234000 0.203000
H69 H 0.364000 0.282000 0.225900
H70 H 0.467000 0.212000 0.295700
H71 H 0.338000 0.059000 0.213500
H72 H 0.503000 0.043000 0.195800
H73 H -0.060000 -0.259000 -0.217000
H74 H 0.075000 -0.177000 -0.233000
H75 H -0.065000 -0.103000 -0.201000
H76 H -0.115000 -0.276000 -0.011000
H77 H 0.007000 -0.363000 -0.018000
H78 H -0.095000 -0.367000 -0.100000
N79 N 1.189900 0.053800 0.384130
N80 N 1.305300 -0.031600 0.651330
N81 N 0.526150 0.711640 0.397260
C82 C 0.895410 0.382010 0.586970
C83 C 0.961910 0.281780 0.541440
C84 C 0.930300 0.265700 0.448040
C85 C 0.841200 0.344640 0.403740
C86 C 0.775510 0.448390 0.447180
C87 C 0.683060 0.529710 0.400640
C88 C 0.614540 0.630410 0.442150
C89 C 0.644100 0.647700 0.535090
C90 C 0.733800 0.570670 0.580820
C91 C 0.803860 0.466070 0.540330
C92 C 1.059080 0.197190 0.588020
C93 C 1.070200 0.208900 0.689280
C94 C 0.947700 0.274000 0.731430
C95 C 0.920000 0.399300 0.686420
C96 C 1.145890 0.108220 0.550000
C97 C 1.166800 0.081340 0.456890
C98 C 1.234900 0.030600 0.606700
C99 C 0.491900 0.688500 0.304230
C100 C 0.445100 0.808600 0.443000
H101 H 0.971000 0.195000 0.416900
H102 H 0.819000 0.329000 0.340200
H103 H 0.670000 0.513000 0.338400
H104 H 0.600000 0.719000 0.565200
H105 H 0.750000 0.585000 0.642200
H106 H 1.087000 0.124000 0.711600
H107 H 1.157000 0.266000 0.703000
H108 H 0.864000 0.218000 0.725900
H109 H 0.967000 0.288000 0.795700
H110 H 0.838000 0.441000 0.713500
H111 H 1.003000 0.457000 0.695800
H112 H 0.440000 0.759000 0.283000
H113 H 0.575000 0.677000 0.267000
H114 H 0.435000 0.603000 0.299000
H115 H 0.385000 0.776000 0.489000
H116 H 0.507000 0.863000 0.482000
H117 H 0.405000 0.867000 0.400000
N118 N 0.310100 0.553800 1.115870
N119 N 0.194700 0.468400 0.848670
N120 N 0.973850 1.211640 1.102740
C121 C 0.604590 0.882010 0.913030
C122 C 0.538090 0.781780 0.958560
C123 C 0.569700 0.765700 1.051960
C124 C 0.658800 0.844640 1.096260
C125 C 0.724490 0.948390 1.052820
C126 C 0.816940 1.029710 1.099360
C127 C 0.885460 1.130410 1.057850
C128 C 0.855900 1.147700 0.964910
C129 C 0.766200 1.070670 0.919180
C130 C 0.696140 0.966070 0.959670
C131 C 0.440920 0.697190 0.911980
C132 C 0.429800 0.708900 0.810720
C133 C 0.552300 0.774000 0.768570
C134 C 0.580000 0.899300 0.813580
C135 C 0.354110 0.608220 0.950000
C136 C 0.333200 0.581340 1.043110
C137 C 0.265100 0.530600 0.893300
C138 C 1.008100 1.188500 1.195770
C139 C 1.054900 1.308600 1.057000
H140 H 0.529000 0.695000 1.083100
H141 H 0.681000 0.829000 1.159800
H142 H 0.830000 1.013000 1.161600
H143 H 0.900000 1.219000 0.934800
H144 H 0.750000 1.085000 0.857800
H145 H 0.413000 0.624000 0.788400
H146 H 0.343000 0.766000 0.797000
H147 H 0.636000 0.718000 0.774100
H148 H 0.533000 0.788000 0.704300
H149 H 0.662000 0.941000 0.786500
H150 H 0.497000 0.957000 0.804200
H151 H 1.060000 1.259000 1.217000
H152 H 0.925000 1.177000 1.233000
H153 H 1.065000 1.103000 1.201000
H154 H 1.115000 1.276000 1.011000
H155 H 0.993000 1.363000 1.018000
H156 H 1.095000 1.367000 1.100000

#END
