
#######################################################################
#
#                 Cambridge Crystallographic Data Centre
#                                CCDC 
#
#######################################################################
#
# If this CIF has been generated from an entry in the Cambridge 
# Structural Database, then it will include bibliographic, chemical, 
# crystal, experimental, refinement or atomic coordinate data resulting 
# from the CCDC's data processing and validation procedures.
#
#######################################################################

data_ACULIV
_symmetry_cell_setting           monoclinic
_symmetry_space_group_name_H-M   'P 21/n'
_symmetry_Int_Tables_number      14
_space_group_name_Hall           '-P 2yn'
loop_
_symmetry_equiv_pos_site_id
_symmetry_equiv_pos_as_xyz
1 x,y,z
2 1/2-x,1/2+y,1/2-z
3 -x,-y,-z
4 1/2+x,1/2-y,1/2+z
_cell_length_a                   9.514(1)
_cell_length_b                   10.470(2)
_cell_length_c                   14.923(2)
_cell_angle_alpha                90
_cell_angle_beta                 90.68(1)
_cell_angle_gamma                90
_cell_volume                     1486.4
loop_
_atom_site_label
_atom_site_type_symbol
_atom_site_fract_x
_atom_site_fract_y
_atom_site_fract_z
N1 N -0.1899(2) 0.9462(2) 0.61587(13)
N2 N -0.3053(2) 1.0316(2) 0.34867(15)
N3 N 0.47385(18) 0.28836(17) 0.60274(12)
C1 C 0.10459(17) 0.61799(17) 0.41303(9)
C2 C 0.03809(16) 0.71822(16) 0.45856(10)
C3 C 0.0697(2) 0.7343(2) 0.55196(11)
C4 C 0.1588(2) 0.65536(18) 0.59626(11)
C5 C 0.22449(16) 0.55161(16) 0.55282(9)
C6 C 0.31694(18) 0.47029(17) 0.59936(11)
C7 C 0.38546(18) 0.36959(16) 0.55785(11)
C8 C 0.3559(2) 0.3523(2) 0.46491(13)
C9 C 0.2662(2) 0.42933(19) 0.41918(11)
C10 C 0.19614(17) 0.53393(16) 0.45967(9)
C11 C -0.05908(18) 0.80281(18) 0.41198(11)
C12 C -0.0702(3) 0.7911(3) 0.31072(12)
C13 C 0.0523(3) 0.7260(3) 0.26857(13)
C14 C 0.0800(2) 0.6007(2) 0.31358(11)
C15 C -0.14589(18) 0.89178(18) 0.45000(12)
C16 C -0.1668(2) 0.91866(19) 0.54311(14)
C17 C -0.2349(2) 0.9694(2) 0.39330(15)
C18 C 0.5081(3) 0.3115(3) 0.69577(16)
C19 C 0.5549(3) 0.1914(3) 0.5570(2)
H1 H 0.029(2) 0.805(2) 0.5831(14)
H2 H 0.181(2) 0.671(2) 0.6598(15)
H3 H 0.330(2) 0.487(2) 0.6616(14)
H4 H 0.400(2) 0.281(2) 0.4348(16)
H5 H 0.250(2) 0.415(2) 0.3578(15)
H6 H -0.087(3) 0.876(3) 0.2884(19)
H7 H -0.157(3) 0.734(3) 0.297(2)
H8 H 0.136(3) 0.782(2) 0.2741(16)
H9 H 0.033(3) 0.712(2) 0.2043(18)
H10 H 0.162(3) 0.559(2) 0.2865(16)
H11 H -0.003(3) 0.543(3) 0.3042(16)
H12 H 0.560(3) 0.241(3) 0.717(2)
H13 H 0.425(3) 0.323(3) 0.733(2)
H14 H 0.565(4) 0.397(4) 0.701(2)
H15 H 0.615(4) 0.224(3) 0.511(2)
H16 H 0.493(3) 0.137(3) 0.518(2)
H17 H 0.595(5) 0.133(4) 0.600(3)
N1 N 0.6899(2) 0.4462(2) -0.11587(13)
N2 N 0.8053(2) 0.5316(2) 0.15133(15)
N3 N 0.02615(18) -0.21164(17) -0.10274(12)
C1 C 0.39541(17) 0.11799(17) 0.08697(9)
C2 C 0.46191(16) 0.21822(16) 0.04144(10)
C3 C 0.4303(2) 0.2343(2) -0.05196(11)
C4 C 0.3412(2) 0.15536(18) -0.09626(11)
C5 C 0.27551(16) 0.05161(16) -0.05282(9)
C6 C 0.18306(18) -0.02971(17) -0.09936(11)
C7 C 0.11454(18) -0.13041(16) -0.05785(11)
C8 C 0.1441(2) -0.1477(2) 0.03509(13)
C9 C 0.2338(2) -0.07067(19) 0.08082(11)
C10 C 0.30386(17) 0.03393(16) 0.04033(9)
C11 C 0.55908(18) 0.30281(18) 0.08802(11)
C12 C 0.5702(3) 0.2911(3) 0.18928(12)
C13 C 0.4477(3) 0.2260(3) 0.23143(13)
C14 C 0.4200(2) 0.1007(2) 0.18642(11)
C15 C 0.64589(18) 0.39178(18) 0.05000(12)
C16 C 0.6668(2) 0.41866(19) -0.04311(14)
C17 C 0.7349(2) 0.4694(2) 0.10670(15)
C18 C -0.0081(3) -0.1885(3) -0.19577(16)
C19 C -0.0549(3) -0.3086(3) -0.0570(2)
H1 H 0.471(2) 0.305(2) -0.0831(14)
H2 H 0.319(2) 0.171(2) -0.1598(15)
H3 H 0.170(2) -0.013(2) -0.1616(14)
H4 H 0.100(2) -0.219(2) 0.0652(16)
H5 H 0.250(2) -0.085(2) 0.1422(15)
H6 H 0.587(3) 0.376(3) 0.2116(19)
H7 H 0.657(3) 0.234(3) 0.203(2)
H8 H 0.364(3) 0.282(2) 0.2259(16)
H9 H 0.467(3) 0.212(2) 0.2957(18)
H10 H 0.338(3) 0.059(2) 0.2135(16)
H11 H 0.503(3) 0.043(3) 0.1958(16)
H12 H -0.060(3) -0.259(3) -0.217(2)
H13 H 0.075(3) -0.177(3) -0.233(2)
H14 H -0.065(4) -0.103(4) -0.201(2)
H15 H -0.115(4) -0.276(3) -0.011(2)
H16 H 0.007(3) -0.363(3) -0.018(2)
H17 H -0.095(5) -0.367(4) -0.100(3)
N1 N 1.1899(2) 0.0538(2) 0.38413(13)
N2 N 1.3053(2) -0.0316(2) 0.65133(15)
N3 N 0.52615(18) 0.71164(17) 0.39726(12)
C1 C 0.89541(17) 0.38201(17) 0.58697(9)
C2 C 0.96191(16) 0.28178(16) 0.54144(10)
C3 C 0.9303(2) 0.2657(2) 0.44804(11)
C4 C 0.8412(2) 0.34464(18) 0.40374(11)
C5 C 0.77551(16) 0.44839(16) 0.44718(9)
C6 C 0.68306(18) 0.52971(17) 0.40064(11)
C7 C 0.61454(18) 0.63041(16) 0.44215(11)
C8 C 0.6441(2) 0.6477(2) 0.53509(13)
C9 C 0.7338(2) 0.57067(19) 0.58082(11)
C10 C 0.80386(17) 0.46607(16) 0.54033(9)
C11 C 1.05908(18) 0.19719(18) 0.58802(11)
C12 C 1.0702(3) 0.2089(3) 0.68928(12)
C13 C 0.9477(3) 0.2740(3) 0.73143(13)
C14 C 0.9200(2) 0.3993(2) 0.68642(11)
C15 C 1.14589(18) 0.10822(18) 0.55000(12)
C16 C 1.1668(2) 0.08134(19) 0.45689(14)
C17 C 1.2349(2) 0.0306(2) 0.60670(15)
C18 C 0.4919(3) 0.6885(3) 0.30423(16)
C19 C 0.4451(3) 0.8086(3) 0.4430(2)
H1 H 0.971(2) 0.195(2) 0.4169(14)
H2 H 0.819(2) 0.329(2) 0.3402(15)
H3 H 0.670(2) 0.513(2) 0.3384(14)
H4 H 0.600(2) 0.719(2) 0.5652(16)
H5 H 0.750(2) 0.585(2) 0.6422(15)
H6 H 1.087(3) 0.124(3) 0.7116(19)
H7 H 1.157(3) 0.266(3) 0.703(2)
H8 H 0.864(3) 0.218(2) 0.7259(16)
H9 H 0.967(3) 0.288(2) 0.7957(18)
H10 H 0.838(3) 0.441(2) 0.7135(16)
H11 H 1.003(3) 0.457(3) 0.6958(16)
H12 H 0.440(3) 0.759(3) 0.283(2)
H13 H 0.575(3) 0.677(3) 0.267(2)
H14 H 0.435(4) 0.603(4) 0.299(2)
H15 H 0.385(4) 0.776(3) 0.489(2)
H16 H 0.507(3) 0.863(3) 0.482(2)
H17 H 0.405(5) 0.867(4) 0.400(3)
N1 N 0.3101(2) 0.5538(2) 1.11587(13)
N2 N 0.1947(2) 0.4684(2) 0.84867(15)
N3 N 0.97385(18) 1.21164(17) 1.10274(12)
C1 C 0.60459(17) 0.88201(17) 0.91303(9)
C2 C 0.53809(16) 0.78178(16) 0.95856(10)
C3 C 0.5697(2) 0.7657(2) 1.05196(11)
C4 C 0.6588(2) 0.84464(18) 1.09626(11)
C5 C 0.72449(16) 0.94839(16) 1.05282(9)
C6 C 0.81694(18) 1.02971(17) 1.09936(11)
C7 C 0.88546(18) 1.13041(16) 1.05785(11)
C8 C 0.8559(2) 1.1477(2) 0.96491(13)
C9 C 0.7662(2) 1.07067(19) 0.91918(11)
C10 C 0.69614(17) 0.96607(16) 0.95967(9)
C11 C 0.44092(18) 0.69719(18) 0.91198(11)
C12 C 0.4298(3) 0.7089(3) 0.81072(12)
C13 C 0.5523(3) 0.7740(3) 0.76857(13)
C14 C 0.5800(2) 0.8993(2) 0.81358(11)
C15 C 0.35411(18) 0.60822(18) 0.95000(12)
C16 C 0.3332(2) 0.58134(19) 1.04311(14)
C17 C 0.2651(2) 0.5306(2) 0.89330(15)
C18 C 1.0081(3) 1.1885(3) 1.19577(16)
C19 C 1.0549(3) 1.3086(3) 1.0570(2)
H1 H 0.529(2) 0.695(2) 1.0831(14)
H2 H 0.681(2) 0.829(2) 1.1598(15)
H3 H 0.830(2) 1.013(2) 1.1616(14)
H4 H 0.900(2) 1.219(2) 0.9348(16)
H5 H 0.750(2) 1.085(2) 0.8578(15)
H6 H 0.413(3) 0.624(3) 0.7884(19)
H7 H 0.343(3) 0.766(3) 0.797(2)
H8 H 0.636(3) 0.718(2) 0.7741(16)
H9 H 0.533(3) 0.788(2) 0.7043(18)
H10 H 0.662(3) 0.941(2) 0.7865(16)
H11 H 0.497(3) 0.957(3) 0.8042(16)
H12 H 1.060(3) 1.259(3) 1.217(2)
H13 H 0.925(3) 1.177(3) 1.233(2)
H14 H 1.065(4) 1.103(4) 1.201(2)
H15 H 1.115(4) 1.276(3) 1.011(2)
H16 H 0.993(3) 1.363(3) 1.018(2)
H17 H 1.095(5) 1.367(4) 1.100(3)

#END
