./ACUPUL_from_xyz.cif_generated_by_CrystalShift
_symmetry_cell_setting triclinic
_symmetry_space_group_name_H-M 'P 1'
loop_
_symmetry_equiv_pos_site_id
_symmetry_equiv_pos_as_xyz
1 x,y,z
_cell_length_a 8.877600
_cell_length_b 9.163000
_cell_length_c 22.990400
_cell_angle_alpha 90.000000
_cell_angle_beta 90.000000
_cell_angle_gamma 90.000000
_cell_volume 1870.164406
loop_
_atom_site_label
_atom_site_type_symbol
_atom_site_fract_x
_atom_site_fract_y
_atom_site_fract_z
O1 O 0.538400 0.509000 0.786360
O2 O 0.649330 0.680080 0.839030
O3 O 0.901910 0.847280 0.741270
H4 H 0.949000 0.771400 0.746400
O5 O 0.955860 0.598010 0.786970
H6 H 0.998200 0.520900 0.779200
C7 C 0.610310 0.619200 0.788080
C8 C 0.665400 0.708600 0.738590
H9 H 0.581300 0.746400 0.716300
H10 H 0.728300 0.650400 0.713100
C11 C 0.755550 0.832800 0.764870
H12 H 0.701200 0.923500 0.756500
C13 C 0.746990 0.806990 0.831970
C14 C 0.894370 0.773180 0.865400
H15 H 0.959100 0.859600 0.862900
C16 C 0.989440 0.638420 0.845810
C17 C 0.943500 0.518100 0.888140
H18 H 0.847400 0.475900 0.877200
H19 H 1.018800 0.441400 0.889400
C20 C 0.932300 0.595800 0.946550
H21 H 1.034600 0.612700 0.961200
C22 C 0.862100 0.743600 0.931090
H23 H 0.752800 0.733200 0.935300
C24 C 0.662900 0.936800 0.858930
H25 H 0.565600 0.946100 0.840100
H26 H 0.644800 0.916200 0.899700
C27 C 0.746200 1.082300 0.854020
H28 H 0.687100 1.157900 0.871800
H29 H 0.762200 1.105200 0.813700
H30 H 0.841600 1.075200 0.873500
C31 C 1.159600 0.670900 0.851330
H32 H 1.180100 0.698600 0.891300
H33 H 1.214300 0.581300 0.843800
C34 C 1.222500 0.788900 0.811810
H35 H 1.328400 0.800100 0.819000
H36 H 1.171900 0.879400 0.819500
H37 H 1.206900 0.761600 0.771900
C38 C 0.911400 0.864900 0.972060
H39 H 0.887900 0.838100 1.011400
H40 H 0.859300 0.953400 0.962200
H41 H 1.018000 0.879900 0.968400
C42 C 0.843700 0.515200 0.993050
H43 H 0.743300 0.495500 0.978300
H44 H 0.833500 0.578200 1.026700
C45 C 0.914200 0.372600 1.012130
H46 H 0.909500 0.303200 0.980300
H47 H 1.019500 0.388800 1.021400
C48 C 0.835200 0.308700 1.064830
H49 H 0.845900 0.376200 1.097100
H50 H 0.728600 0.300200 1.056200
C51 C 0.890300 0.168400 1.082730
H52 H 0.835600 0.136300 1.116400
H53 H 0.995400 0.175600 1.092000
H54 H 0.876500 0.099500 1.051700
O55 O 0.961600 0.491000 0.286360
O56 O 0.850670 0.319920 0.339030
O57 O 0.598090 0.152720 0.241270
H58 H 0.551000 0.228600 0.246400
O59 O 0.544140 0.401990 0.286970
H60 H 0.501800 0.479100 0.279200
C61 C 0.889690 0.380800 0.288080
C62 C 0.834600 0.291400 0.238590
H63 H 0.918700 0.253600 0.216300
H64 H 0.771700 0.349600 0.213100
C65 C 0.744450 0.167200 0.264870
H66 H 0.798800 0.076500 0.256500
C67 C 0.753010 0.193010 0.331970
C68 C 0.605630 0.226820 0.365400
H69 H 0.540900 0.140400 0.362900
C70 C 0.510560 0.361580 0.345810
C71 C 0.556500 0.481900 0.388140
H72 H 0.652600 0.524100 0.377200
H73 H 0.481200 0.558600 0.389400
C74 C 0.567700 0.404200 0.446550
H75 H 0.465400 0.387300 0.461200
C76 C 0.637900 0.256400 0.431090
H77 H 0.747200 0.266800 0.435300
C78 C 0.837100 0.063200 0.358930
H79 H 0.934400 0.053900 0.340100
H80 H 0.855200 0.083800 0.399700
C81 C 0.753800 -0.082300 0.354020
H82 H 0.812900 -0.157900 0.371800
H83 H 0.737800 -0.105200 0.313700
H84 H 0.658400 -0.075200 0.373500
C85 C 0.340400 0.329100 0.351330
H86 H 0.319900 0.301400 0.391300
H87 H 0.285700 0.418700 0.343800
C88 C 0.277500 0.211100 0.311810
H89 H 0.171600 0.199900 0.319000
H90 H 0.328100 0.120600 0.319500
H91 H 0.293100 0.238400 0.271900
C92 C 0.588600 0.135100 0.472060
H93 H 0.612100 0.161900 0.511400
H94 H 0.640700 0.046600 0.462200
H95 H 0.482000 0.120100 0.468400
C96 C 0.656300 0.484800 0.493050
H97 H 0.756700 0.504500 0.478300
H98 H 0.666500 0.421800 0.526700
C99 C 0.585800 0.627400 0.512130
H100 H 0.590500 0.696800 0.480300
H101 H 0.480500 0.611200 0.521400
C102 C 0.664800 0.691300 0.564830
H103 H 0.654100 0.623800 0.597100
H104 H 0.771400 0.699800 0.556200
C105 C 0.609700 0.831600 0.582730
H106 H 0.664400 0.863700 0.616400
H107 H 0.504600 0.824400 0.592000
H108 H 0.623500 0.900500 0.551700
O109 O 0.461600 0.009000 0.713640
O110 O 0.350670 0.180080 0.660970
O111 O 0.098090 0.347280 0.758730
H112 H 0.051000 0.271400 0.753600
O113 O 0.044140 0.098010 0.713030
H114 H 0.001800 0.020900 0.720800
C115 C 0.389690 0.119200 0.711920
C116 C 0.334600 0.208600 0.761410
H117 H 0.418700 0.246400 0.783700
H118 H 0.271700 0.150400 0.786900
C119 C 0.244450 0.332800 0.735130
H120 H 0.298800 0.423500 0.743500
C121 C 0.253010 0.306990 0.668030
C122 C 0.105630 0.273180 0.634600
H123 H 0.040900 0.359600 0.637100
C124 C 0.010560 0.138420 0.654190
C125 C 0.056500 0.018100 0.611860
H126 H 0.152600 -0.024100 0.622800
H127 H -0.018800 -0.058600 0.610600
C128 C 0.067700 0.095800 0.553450
H129 H -0.034600 0.112700 0.538800
C130 C 0.137900 0.243600 0.568910
H131 H 0.247200 0.233200 0.564700
C132 C 0.337100 0.436800 0.641070
H133 H 0.434400 0.446100 0.659900
H134 H 0.355200 0.416200 0.600300
C135 C 0.253800 0.582300 0.645980
H136 H 0.312900 0.657900 0.628200
H137 H 0.237800 0.605200 0.686300
H138 H 0.158400 0.575200 0.626500
C139 C -0.159600 0.170900 0.648670
H140 H -0.180100 0.198600 0.608700
H141 H -0.214300 0.081300 0.656200
C142 C -0.222500 0.288900 0.688190
H143 H -0.328400 0.300100 0.681000
H144 H -0.171900 0.379400 0.680500
H145 H -0.206900 0.261600 0.728100
C146 C 0.088600 0.364900 0.527940
H147 H 0.112100 0.338100 0.488600
H148 H 0.140700 0.453400 0.537800
H149 H -0.018000 0.379900 0.531600
C150 C 0.156300 0.015200 0.506950
H151 H 0.256700 -0.004500 0.521700
H152 H 0.166500 0.078200 0.473300
C153 C 0.085800 -0.127400 0.487870
H154 H 0.090500 -0.196800 0.519700
H155 H -0.019500 -0.111200 0.478600
C156 C 0.164800 -0.191300 0.435170
H157 H 0.154100 -0.123800 0.402900
H158 H 0.271400 -0.199800 0.443800
C159 C 0.109700 -0.331600 0.417270
H160 H 0.164400 -0.363700 0.383600
H161 H 0.004600 -0.324400 0.408000
H162 H 0.123500 -0.400500 0.448300
O163 O 0.038400 0.991000 0.213640
O164 O 0.149330 0.819920 0.160970
O165 O 0.401910 0.652720 0.258730
H166 H 0.449000 0.728600 0.253600
O167 O 0.455860 0.901990 0.213030
H168 H 0.498200 0.979100 0.220800
C169 C 0.110310 0.880800 0.211920
C170 C 0.165400 0.791400 0.261410
H171 H 0.081300 0.753600 0.283700
H172 H 0.228300 0.849600 0.286900
C173 C 0.255550 0.667200 0.235130
H174 H 0.201200 0.576500 0.243500
C175 C 0.246990 0.693010 0.168030
C176 C 0.394370 0.726820 0.134600
H177 H 0.459100 0.640400 0.137100
C178 C 0.489440 0.861580 0.154190
C179 C 0.443500 0.981900 0.111860
H180 H 0.347400 1.024100 0.122800
H181 H 0.518800 1.058600 0.110600
C182 C 0.432300 0.904200 0.053450
H183 H 0.534600 0.887300 0.038800
C184 C 0.362100 0.756400 0.068910
H185 H 0.252800 0.766800 0.064700
C186 C 0.162900 0.563200 0.141070
H187 H 0.065600 0.553900 0.159900
H188 H 0.144800 0.583800 0.100300
C189 C 0.246200 0.417700 0.145980
H190 H 0.187100 0.342100 0.128200
H191 H 0.262200 0.394800 0.186300
H192 H 0.341600 0.424800 0.126500
C193 C 0.659600 0.829100 0.148670
H194 H 0.680100 0.801400 0.108700
H195 H 0.714300 0.918700 0.156200
C196 C 0.722500 0.711100 0.188190
H197 H 0.828400 0.699900 0.181000
H198 H 0.671900 0.620600 0.180500
H199 H 0.706900 0.738400 0.228100
C200 C 0.411400 0.635100 0.027940
H201 H 0.387900 0.661900 -0.011400
H202 H 0.359300 0.546600 0.037800
H203 H 0.518000 0.620100 0.031600
C204 C 0.343700 0.984800 0.006950
H205 H 0.243300 1.004500 0.021700
H206 H 0.333500 0.921800 -0.026700
C207 C 0.414200 1.127400 -0.012130
H208 H 0.409500 1.196800 0.019700
H209 H 0.519500 1.111200 -0.021400
C210 C 0.335200 1.191300 -0.064830
H211 H 0.345900 1.123800 -0.097100
H212 H 0.228600 1.199800 -0.056200
C213 C 0.390300 1.331600 -0.082730
H214 H 0.335600 1.363700 -0.116400
H215 H 0.495400 1.324400 -0.092000
H216 H 0.376500 1.400500 -0.051700

#END
