./ACUQAS_from_xyz.cif_generated_by_CrystalShift
_symmetry_cell_setting triclinic
_symmetry_space_group_name_H-M 'P 1'
loop_
_symmetry_equiv_pos_site_id
_symmetry_equiv_pos_as_xyz
1 x,y,z
_cell_length_a 8.024800
_cell_length_b 12.443800
_cell_length_c 20.584700
_cell_angle_alpha 90.000000
_cell_angle_beta 90.000000
_cell_angle_gamma 90.000000
_cell_volume 2055.567686
loop_
_atom_site_label
_atom_site_type_symbol
_atom_site_fract_x
_atom_site_fract_y
_atom_site_fract_z
C1 C 0.395000 0.510800 0.350650
H2 H 0.407600 0.517600 0.397800
C3 C 0.242050 0.440200 0.339360
H4 H 0.245000 0.380700 0.369800
H5 H 0.142800 0.482000 0.348600
C6 C 0.228730 0.395320 0.270780
H7 H 0.137400 0.343100 0.269500
C8 C 0.390300 0.338200 0.252870
H9 H 0.382900 0.315200 0.207900
H10 H 0.400200 0.274100 0.279400
C11 C 0.549720 0.405370 0.261120
H12 H 0.642900 0.354500 0.261100
C13 C 0.656400 0.296540 0.410800
C14 C 0.725740 0.207450 0.380610
H15 H 0.786600 0.215400 0.342500
C16 C 0.703600 0.106570 0.407660
H17 H 0.749600 0.046900 0.387300
C18 C 0.613800 0.093130 0.464830
C19 C 0.546200 0.183690 0.494500
H20 H 0.486400 0.175900 0.532900
C21 C 0.566100 0.285150 0.468010
H22 H 0.519700 0.344900 0.488200
C23 C 0.590400 -0.017040 0.493390
H24 H 0.690000 -0.038100 0.515900
H25 H 0.567700 -0.067500 0.459200
H26 H 0.498600 -0.015900 0.523300
C27 C 0.381600 0.626330 0.323590
H28 H 0.490500 0.660100 0.325200
H29 H 0.347100 0.623200 0.278500
C30 C 0.259100 0.694100 0.361230
C31 C 0.308500 0.744810 0.418000
H32 H 0.418100 0.737800 0.432000
C33 C 0.197600 0.805780 0.454310
H34 H 0.233000 0.839400 0.492200
C35 C 0.034500 0.816290 0.433910
H36 H -0.040400 0.857100 0.458000
C37 C -0.017500 0.765740 0.377350
H38 H -0.127400 0.772400 0.363700
C39 C 0.094200 0.705230 0.341110
H40 H 0.058800 0.671900 0.303100
C41 C 0.582730 0.484760 0.205130
H42 H 0.525800 0.458500 0.166700
H43 H 0.532900 0.553300 0.216500
C44 C 0.765310 0.504190 0.187640
H45 H 0.818700 0.434600 0.179600
C46 C 0.784100 0.573170 0.127630
H47 H 0.731800 0.641500 0.134800
H48 H 0.732100 0.538100 0.091400
H49 H 0.900300 0.583700 0.118600
N50 N 0.549710 0.458210 0.326410
O51 O 0.846470 0.417570 0.342750
O52 O 0.681690 0.501060 0.431400
O53 O 0.197280 0.476780 0.223180
H54 H 0.101500 0.498800 0.227100
O55 O 0.855950 0.558860 0.237980
H56 H 0.852700 0.523200 0.271400
S57 S 0.692680 0.426130 0.378701
C58 C 0.895000 -0.010800 0.649350
H59 H 0.907600 -0.017600 0.602200
C60 C 0.742050 0.059800 0.660640
H61 H 0.745000 0.119300 0.630200
H62 H 0.642800 0.018000 0.651400
C63 C 0.728730 0.104680 0.729220
H64 H 0.637400 0.156900 0.730500
C65 C 0.890300 0.161800 0.747130
H66 H 0.882900 0.184800 0.792100
H67 H 0.900200 0.225900 0.720600
C68 C 1.049720 0.094630 0.738880
H69 H 1.142900 0.145500 0.738900
C70 C 1.156400 0.203460 0.589200
C71 C 1.225740 0.292550 0.619390
H72 H 1.286600 0.284600 0.657500
C73 C 1.203600 0.393430 0.592340
H74 H 1.249600 0.453100 0.612700
C75 C 1.113800 0.406870 0.535170
C76 C 1.046200 0.316310 0.505500
H77 H 0.986400 0.324100 0.467100
C78 C 1.066100 0.214850 0.531990
H79 H 1.019700 0.155100 0.511800
C80 C 1.090400 0.517040 0.506610
H81 H 1.190000 0.538100 0.484100
H82 H 1.067700 0.567500 0.540800
H83 H 0.998600 0.515900 0.476700
C84 C 0.881600 -0.126330 0.676410
H85 H 0.990500 -0.160100 0.674800
H86 H 0.847100 -0.123200 0.721500
C87 C 0.759100 -0.194100 0.638770
C88 C 0.808500 -0.244810 0.582000
H89 H 0.918100 -0.237800 0.568000
C90 C 0.697600 -0.305780 0.545690
H91 H 0.733000 -0.339400 0.507800
C92 C 0.534500 -0.316290 0.566090
H93 H 0.459600 -0.357100 0.542000
C94 C 0.482500 -0.265740 0.622650
H95 H 0.372600 -0.272400 0.636300
C96 C 0.594200 -0.205230 0.658890
H97 H 0.558800 -0.171900 0.696900
C98 C 1.082730 0.015240 0.794870
H99 H 1.025800 0.041500 0.833300
H100 H 1.032900 -0.053300 0.783500
C101 C 1.265310 -0.004190 0.812360
H102 H 1.318700 0.065400 0.820400
C103 C 1.284100 -0.073170 0.872370
H104 H 1.231800 -0.141500 0.865200
H105 H 1.232100 -0.038100 0.908600
H106 H 1.400300 -0.083700 0.881400
N107 N 1.049710 0.041790 0.673590
O108 O 1.346470 0.082430 0.657250
O109 O 1.181690 -0.001060 0.568600
O110 O 0.697280 0.023220 0.776820
H111 H 0.601500 0.001200 0.772900
O112 O 1.355950 -0.058860 0.762020
H113 H 1.352700 -0.023200 0.728600
S114 S 1.192680 0.073870 0.621299
C115 C 0.605000 1.010800 0.149350
H116 H 0.592400 1.017600 0.102200
C117 C 0.757950 0.940200 0.160640
H118 H 0.755000 0.880700 0.130200
H119 H 0.857200 0.982000 0.151400
C120 C 0.771270 0.895320 0.229220
H121 H 0.862600 0.843100 0.230500
C122 C 0.609700 0.838200 0.247130
H123 H 0.617100 0.815200 0.292100
H124 H 0.599800 0.774100 0.220600
C125 C 0.450280 0.905370 0.238880
H126 H 0.357100 0.854500 0.238900
C127 C 0.343600 0.796540 0.089200
C128 C 0.274260 0.707450 0.119390
H129 H 0.213400 0.715400 0.157500
C130 C 0.296400 0.606570 0.092340
H131 H 0.250400 0.546900 0.112700
C132 C 0.386200 0.593130 0.035170
C133 C 0.453800 0.683690 0.005500
H134 H 0.513600 0.675900 -0.032900
C135 C 0.433900 0.785150 0.031990
H136 H 0.480300 0.844900 0.011800
C137 C 0.409600 0.482960 0.006610
H138 H 0.310000 0.461900 -0.015900
H139 H 0.432300 0.432500 0.040800
H140 H 0.501400 0.484100 -0.023300
C141 C 0.618400 1.126330 0.176410
H142 H 0.509500 1.160100 0.174800
H143 H 0.652900 1.123200 0.221500
C144 C 0.740900 1.194100 0.138770
C145 C 0.691500 1.244810 0.082000
H146 H 0.581900 1.237800 0.068000
C147 C 0.802400 1.305780 0.045690
H148 H 0.767000 1.339400 0.007800
C149 C 0.965500 1.316290 0.066090
H150 H 1.040400 1.357100 0.042000
C151 C 1.017500 1.265740 0.122650
H152 H 1.127400 1.272400 0.136300
C153 C 0.905800 1.205230 0.158890
H154 H 0.941200 1.171900 0.196900
C155 C 0.417270 0.984760 0.294870
H156 H 0.474200 0.958500 0.333300
H157 H 0.467100 1.053300 0.283500
C158 C 0.234690 1.004190 0.312360
H159 H 0.181300 0.934600 0.320400
C160 C 0.215900 1.073170 0.372370
H161 H 0.268200 1.141500 0.365200
H162 H 0.267900 1.038100 0.408600
H163 H 0.099700 1.083700 0.381400
N164 N 0.450290 0.958210 0.173590
O165 O 0.153530 0.917570 0.157250
O166 O 0.318310 1.001060 0.068600
O167 O 0.802720 0.976780 0.276820
H168 H 0.898500 0.998800 0.272900
O169 O 0.144050 1.058860 0.262020
H170 H 0.147300 1.023200 0.228600
S171 S 0.307320 0.926130 0.121299
C172 C 0.105000 0.489200 0.850650
H173 H 0.092400 0.482400 0.897800
C174 C 0.257950 0.559800 0.839360
H175 H 0.255000 0.619300 0.869800
H176 H 0.357200 0.518000 0.848600
C177 C 0.271270 0.604680 0.770780
H178 H 0.362600 0.656900 0.769500
C179 C 0.109700 0.661800 0.752870
H180 H 0.117100 0.684800 0.707900
H181 H 0.099800 0.725900 0.779400
C182 C -0.049720 0.594630 0.761120
H183 H -0.142900 0.645500 0.761100
C184 C -0.156400 0.703460 0.910800
C185 C -0.225740 0.792550 0.880610
H186 H -0.286600 0.784600 0.842500
C187 C -0.203600 0.893430 0.907660
H188 H -0.249600 0.953100 0.887300
C189 C -0.113800 0.906870 0.964830
C190 C -0.046200 0.816310 0.994500
H191 H 0.013600 0.824100 1.032900
C192 C -0.066100 0.714850 0.968010
H193 H -0.019700 0.655100 0.988200
C194 C -0.090400 1.017040 0.993390
H195 H -0.190000 1.038100 1.015900
H196 H -0.067700 1.067500 0.959200
H197 H 0.001400 1.015900 1.023300
C198 C 0.118400 0.373670 0.823590
H199 H 0.009500 0.339900 0.825200
H200 H 0.152900 0.376800 0.778500
C201 C 0.240900 0.305900 0.861230
C202 C 0.191500 0.255190 0.918000
H203 H 0.081900 0.262200 0.932000
C204 C 0.302400 0.194220 0.954310
H205 H 0.267000 0.160600 0.992200
C206 C 0.465500 0.183710 0.933910
H207 H 0.540400 0.142900 0.958000
C208 C 0.517500 0.234260 0.877350
H209 H 0.627400 0.227600 0.863700
C210 C 0.405800 0.294770 0.841110
H211 H 0.441200 0.328100 0.803100
C212 C -0.082730 0.515240 0.705130
H213 H -0.025800 0.541500 0.666700
H214 H -0.032900 0.446700 0.716500
C215 C -0.265310 0.495810 0.687640
H216 H -0.318700 0.565400 0.679600
C217 C -0.284100 0.426830 0.627630
H218 H -0.231800 0.358500 0.634800
H219 H -0.232100 0.461900 0.591400
H220 H -0.400300 0.416300 0.618600
N221 N -0.049710 0.541790 0.826410
O222 O -0.346470 0.582430 0.842750
O223 O -0.181690 0.498940 0.931400
O224 O 0.302720 0.523220 0.723180
H225 H 0.398500 0.501200 0.727100
O226 O -0.355950 0.441140 0.737980
H227 H -0.352700 0.476800 0.771400
S228 S -0.192680 0.573870 0.878701

#END
