./ACUTOJ_from_xyz.cif_generated_by_CrystalShift
_symmetry_cell_setting triclinic
_symmetry_space_group_name_H-M 'P 1'
loop_
_symmetry_equiv_pos_site_id
_symmetry_equiv_pos_as_xyz
1 x,y,z
_cell_length_a 9.807000
_cell_length_b 23.295000
_cell_length_c 21.312000
_cell_angle_alpha 90.000000
_cell_angle_beta 90.032000
_cell_angle_gamma 90.000000
_cell_volume 4868.812348
loop_
_atom_site_label
_atom_site_type_symbol
_atom_site_fract_x
_atom_site_fract_y
_atom_site_fract_z
O1 O 0.441200 0.086540 0.255940
O2 O 0.433500 0.182150 0.276030
N3 N 0.279700 0.140680 0.209880
C4 C 0.958400 -0.038400 0.413700
H5 H 0.898400 -0.009700 0.432800
H6 H 1.041100 -0.042500 0.439200
H7 H 0.910900 -0.075400 0.411700
C8 C 0.996600 -0.019600 0.348610
H9 H 1.064500 -0.046700 0.331300
H10 H 1.039800 0.018700 0.350900
C11 C 0.873600 -0.016630 0.303830
H12 H 0.907000 -0.011000 0.260400
H13 H 0.824300 -0.053700 0.305200
C14 C 0.774800 0.031390 0.319880
H15 H 0.823800 0.068500 0.316900
H16 H 0.745200 0.026600 0.364000
C17 C 0.645700 0.034310 0.277400
H18 H 0.594500 -0.002500 0.282200
C19 C 0.683400 0.041080 0.209110
C20 C 0.665000 -0.003630 0.166560
H21 H 0.627700 -0.038900 0.181100
C22 C 0.699000 0.001600 0.104100
H23 H 0.684600 -0.029600 0.076100
C24 C 0.754400 0.052600 0.082400
H25 H 0.780200 0.056400 0.039600
C26 C 0.771700 0.097800 0.123400
H27 H 0.807200 0.133200 0.108400
C28 C 0.738100 0.092150 0.185620
H29 H 0.752400 0.123600 0.213300
C30 C 0.555000 0.083000 0.300840
H31 H 0.607700 0.119700 0.299400
C32 C 0.499300 0.075000 0.365650
C33 C 0.552400 0.106200 0.416100
H34 H 0.622600 0.133500 0.409000
C35 C 0.503900 0.097800 0.476300
H36 H 0.540900 0.119300 0.510200
C37 C 0.401700 0.058200 0.487400
H38 H 0.369000 0.052300 0.528800
C39 C 0.347600 0.027600 0.438300
H40 H 0.276300 0.000800 0.445800
C41 C 0.396800 0.035550 0.377900
H42 H 0.359700 0.013600 0.344400
C43 C 0.388700 0.139900 0.249800
C44 C 0.246500 0.091630 0.172730
C45 C 0.333600 0.071530 0.126730
H46 H 0.419100 0.089800 0.120600
C47 C 0.298200 0.025270 0.089560
H48 H 0.360400 0.010800 0.059300
C49 C 0.171400 0.000200 0.096760
H50 H 0.144700 -0.030200 0.069800
C51 C 0.083800 0.019010 0.142610
H52 H -0.002200 0.000900 0.147900
C53 C 0.120600 0.064350 0.181180
H54 H 0.060500 0.076900 0.213300
C55 C 0.219700 0.197500 0.194000
H56 H 0.249200 0.224600 0.227800
C57 C 0.066000 0.197200 0.194700
H58 H 0.032100 0.172400 0.161000
H59 H 0.032100 0.236400 0.188300
H60 H 0.033800 0.182800 0.235300
C61 C 0.276200 0.220600 0.133800
H62 H 0.376000 0.219800 0.135400
H63 H 0.245200 0.260300 0.128000
H64 H 0.244200 0.197000 0.098700
O65 O 1.058800 0.586540 0.244060
O66 O 1.066500 0.682150 0.223970
N67 N 1.220300 0.640680 0.290120
C68 C 0.541600 0.461600 0.086300
H69 H 0.601600 0.490300 0.067200
H70 H 0.458900 0.457500 0.060800
H71 H 0.589100 0.424600 0.088300
C72 C 0.503400 0.480400 0.151390
H73 H 0.435500 0.453300 0.168700
H74 H 0.460200 0.518700 0.149100
C75 C 0.626400 0.483370 0.196170
H76 H 0.593000 0.489000 0.239600
H77 H 0.675700 0.446300 0.194800
C78 C 0.725200 0.531390 0.180120
H79 H 0.676200 0.568500 0.183100
H80 H 0.754800 0.526600 0.136000
C81 C 0.854300 0.534310 0.222600
H82 H 0.905500 0.497500 0.217800
C83 C 0.816600 0.541080 0.290890
C84 C 0.835000 0.496370 0.333440
H85 H 0.872300 0.461100 0.318900
C86 C 0.801000 0.501600 0.395900
H87 H 0.815400 0.470400 0.423900
C88 C 0.745600 0.552600 0.417600
H89 H 0.719800 0.556400 0.460400
C90 C 0.728300 0.597800 0.376600
H91 H 0.692800 0.633200 0.391600
C92 C 0.761900 0.592150 0.314380
H93 H 0.747600 0.623600 0.286700
C94 C 0.945000 0.583000 0.199160
H95 H 0.892300 0.619700 0.200600
C96 C 1.000700 0.575000 0.134350
C97 C 0.947600 0.606200 0.083900
H98 H 0.877400 0.633500 0.091000
C99 C 0.996100 0.597800 0.023700
H100 H 0.959100 0.619300 -0.010200
C101 C 1.098300 0.558200 0.012600
H102 H 1.131000 0.552300 -0.028800
C103 C 1.152400 0.527600 0.061700
H104 H 1.223700 0.500800 0.054200
C105 C 1.103200 0.535550 0.122100
H106 H 1.140300 0.513600 0.155600
C107 C 1.111300 0.639900 0.250200
C108 C 1.253500 0.591630 0.327270
C109 C 1.166400 0.571530 0.373270
H110 H 1.080900 0.589800 0.379400
C111 C 1.201800 0.525270 0.410440
H112 H 1.139600 0.510800 0.440700
C113 C 1.328600 0.500200 0.403240
H114 H 1.355300 0.469800 0.430200
C115 C 1.416200 0.519010 0.357390
H116 H 1.502200 0.500900 0.352100
C117 C 1.379400 0.564350 0.318820
H118 H 1.439500 0.576900 0.286700
C119 C 1.280300 0.697500 0.306000
H120 H 1.250800 0.724600 0.272200
C121 C 1.434000 0.697200 0.305300
H122 H 1.467900 0.672400 0.339000
H123 H 1.467900 0.736400 0.311700
H124 H 1.466200 0.682800 0.264700
C125 C 1.223800 0.720600 0.366200
H126 H 1.124000 0.719800 0.364600
H127 H 1.254800 0.760300 0.372000
H128 H 1.255800 0.697000 0.401300
O129 O 0.558800 0.913460 0.744060
O130 O 0.566500 0.817850 0.723970
N131 N 0.720300 0.859320 0.790120
C132 C 0.041600 1.038400 0.586300
H133 H 0.101600 1.009700 0.567200
H134 H -0.041100 1.042500 0.560800
H135 H 0.089100 1.075400 0.588300
C136 C 0.003400 1.019600 0.651390
H137 H -0.064500 1.046700 0.668700
H138 H -0.039800 0.981300 0.649100
C139 C 0.126400 1.016630 0.696170
H140 H 0.093000 1.011000 0.739600
H141 H 0.175700 1.053700 0.694800
C142 C 0.225200 0.968610 0.680120
H143 H 0.176200 0.931500 0.683100
H144 H 0.254800 0.973400 0.636000
C145 C 0.354300 0.965690 0.722600
H146 H 0.405500 1.002500 0.717800
C147 C 0.316600 0.958920 0.790890
C148 C 0.335000 1.003630 0.833440
H149 H 0.372300 1.038900 0.818900
C150 C 0.301000 0.998400 0.895900
H151 H 0.315400 1.029600 0.923900
C152 C 0.245600 0.947400 0.917600
H153 H 0.219800 0.943600 0.960400
C154 C 0.228300 0.902200 0.876600
H155 H 0.192800 0.866800 0.891600
C156 C 0.261900 0.907850 0.814380
H157 H 0.247600 0.876400 0.786700
C158 C 0.445000 0.917000 0.699160
H159 H 0.392300 0.880300 0.700600
C160 C 0.500700 0.925000 0.634350
C161 C 0.447600 0.893800 0.583900
H162 H 0.377400 0.866500 0.591000
C163 C 0.496100 0.902200 0.523700
H164 H 0.459100 0.880700 0.489800
C165 C 0.598300 0.941800 0.512600
H166 H 0.631000 0.947700 0.471200
C167 C 0.652400 0.972400 0.561700
H168 H 0.723700 0.999200 0.554200
C169 C 0.603200 0.964450 0.622100
H170 H 0.640300 0.986400 0.655600
C171 C 0.611300 0.860100 0.750200
C172 C 0.753500 0.908370 0.827270
C173 C 0.666400 0.928470 0.873270
H174 H 0.580900 0.910200 0.879400
C175 C 0.701800 0.974730 0.910440
H176 H 0.639600 0.989200 0.940700
C177 C 0.828600 0.999800 0.903240
H178 H 0.855300 1.030200 0.930200
C179 C 0.916200 0.980990 0.857390
H180 H 1.002200 0.999100 0.852100
C181 C 0.879400 0.935650 0.818820
H182 H 0.939500 0.923100 0.786700
C183 C 0.780300 0.802500 0.806000
H184 H 0.750800 0.775400 0.772200
C185 C 0.934000 0.802800 0.805300
H186 H 0.967900 0.827600 0.839000
H187 H 0.967900 0.763600 0.811700
H188 H 0.966200 0.817200 0.764700
C189 C 0.723800 0.779400 0.866200
H190 H 0.624000 0.780200 0.864600
H191 H 0.754800 0.739700 0.872000
H192 H 0.755800 0.803000 0.901300
O193 O -0.058800 0.413460 0.755940
O194 O -0.066500 0.317850 0.776030
N195 N -0.220300 0.359320 0.709880
C196 C 0.458400 0.538400 0.913700
H197 H 0.398400 0.509700 0.932800
H198 H 0.541100 0.542500 0.939200
H199 H 0.410900 0.575400 0.911700
C200 C 0.496600 0.519600 0.848610
H201 H 0.564500 0.546700 0.831300
H202 H 0.539800 0.481300 0.850900
C203 C 0.373600 0.516630 0.803830
H204 H 0.407000 0.511000 0.760400
H205 H 0.324300 0.553700 0.805200
C206 C 0.274800 0.468610 0.819880
H207 H 0.323800 0.431500 0.816900
H208 H 0.245200 0.473400 0.864000
C209 C 0.145700 0.465690 0.777400
H210 H 0.094500 0.502500 0.782200
C211 C 0.183400 0.458920 0.709110
C212 C 0.165000 0.503630 0.666560
H213 H 0.127700 0.538900 0.681100
C214 C 0.199000 0.498400 0.604100
H215 H 0.184600 0.529600 0.576100
C216 C 0.254400 0.447400 0.582400
H217 H 0.280200 0.443600 0.539600
C218 C 0.271700 0.402200 0.623400
H219 H 0.307200 0.366800 0.608400
C220 C 0.238100 0.407850 0.685620
H221 H 0.252400 0.376400 0.713300
C222 C 0.055000 0.417000 0.800840
H223 H 0.107700 0.380300 0.799400
C224 C -0.000700 0.425000 0.865650
C225 C 0.052400 0.393800 0.916100
H226 H 0.122600 0.366500 0.909000
C227 C 0.003900 0.402200 0.976300
H228 H 0.040900 0.380700 1.010200
C229 C -0.098300 0.441800 0.987400
H230 H -0.131000 0.447700 1.028800
C231 C -0.152400 0.472400 0.938300
H232 H -0.223700 0.499200 0.945800
C233 C -0.103200 0.464450 0.877900
H234 H -0.140300 0.486400 0.844400
C235 C -0.111300 0.360100 0.749800
C236 C -0.253500 0.408370 0.672730
C237 C -0.166400 0.428470 0.626730
H238 H -0.080900 0.410200 0.620600
C239 C -0.201800 0.474730 0.589560
H240 H -0.139600 0.489200 0.559300
C241 C -0.328600 0.499800 0.596760
H242 H -0.355300 0.530200 0.569800
C243 C -0.416200 0.480990 0.642610
H244 H -0.502200 0.499100 0.647900
C245 C -0.379400 0.435650 0.681180
H246 H -0.439500 0.423100 0.713300
C247 C -0.280300 0.302500 0.694000
H248 H -0.250800 0.275400 0.727800
C249 C -0.434000 0.302800 0.694700
H250 H -0.467900 0.327600 0.661000
H251 H -0.467900 0.263600 0.688300
H252 H -0.466200 0.317200 0.735300
C253 C -0.223800 0.279400 0.633800
H254 H -0.124000 0.280200 0.635400
H255 H -0.254800 0.239700 0.628000
H256 H -0.255800 0.303000 0.598700
O257 O 0.807600 0.277020 0.320600
O258 O 0.813000 0.180080 0.309540
N259 N 0.965000 0.226540 0.373530
C260 C 0.138900 0.422550 0.260900
H261 H 0.106400 0.415000 0.303600
H262 H 0.061200 0.423000 0.232000
H263 H 0.185100 0.459800 0.259700
C264 C 0.237700 0.375900 0.241490
H265 H 0.262700 0.381400 0.196900
H266 H 0.192300 0.338100 0.245300
C267 C 0.368000 0.375900 0.281640
H268 H 0.413600 0.413600 0.277600
H269 H 0.342900 0.370600 0.326200
C270 C 0.466100 0.329530 0.262870
H271 H 0.491500 0.335200 0.218400
H272 H 0.419400 0.292000 0.266100
C273 C 0.597900 0.327570 0.302900
H274 H 0.647600 0.364600 0.296700
C275 C 0.565600 0.321760 0.371890
C276 C 0.580800 0.367710 0.413310
H277 H 0.614100 0.403300 0.397900
C278 C 0.548600 0.362800 0.475900
H279 H 0.558300 0.394900 0.502900
C280 C 0.501800 0.310700 0.499600
H281 H 0.481100 0.306900 0.542900
C282 C 0.486000 0.264900 0.459440
H283 H 0.453600 0.229300 0.475100
C284 C 0.516600 0.270300 0.397130
H285 H 0.504400 0.238200 0.370200
C286 C 0.688900 0.279110 0.278750
H287 H 0.638400 0.241900 0.281300
C288 C 0.736300 0.288540 0.212580
C289 C 0.825500 0.332550 0.197810
H290 H 0.863500 0.355200 0.230500
C291 C 0.859600 0.343900 0.136900
H292 H 0.922700 0.373600 0.127700
C293 C 0.803400 0.312600 0.088900
H294 H 0.825000 0.321700 0.046600
C295 C 0.715600 0.267900 0.102100
H296 H 0.677600 0.245700 0.069000
C297 C 0.683100 0.255580 0.164230
H298 H 0.624100 0.224400 0.173600
C299 C 0.857000 0.223980 0.332550
C300 C 0.989900 0.277630 0.408790
C301 C 0.894900 0.297410 0.451320
H302 H 0.812800 0.276500 0.457500
C303 C 0.917000 0.346800 0.484750
H304 H 0.849100 0.360500 0.512700
C305 C 1.038400 0.376800 0.477900
H306 H 1.054800 0.410600 0.501600
C307 C 1.135100 0.356600 0.436000
H308 H 1.218600 0.376800 0.431300
C309 C 1.112300 0.307540 0.401000
H310 H 1.178900 0.294300 0.372000
C311 C 1.026000 0.171000 0.393500
H312 H 1.003300 0.141700 0.360900
C313 C 1.180000 0.174700 0.398100
H314 H 1.217300 0.187400 0.357800
H315 H 1.217000 0.136800 0.408600
H316 H 1.205100 0.202200 0.430900
C317 C 0.963800 0.151400 0.454900
H318 H 0.979800 0.180600 0.487200
H319 H 1.005900 0.115100 0.467800
H320 H 0.865500 0.145800 0.449400
O321 O 0.692400 0.777020 0.179400
O322 O 0.687000 0.680080 0.190460
N323 N 0.535000 0.726540 0.126470
C324 C 1.361100 0.922550 0.239100
H325 H 1.393600 0.915000 0.196400
H326 H 1.438800 0.923000 0.268000
H327 H 1.314900 0.959800 0.240300
C328 C 1.262300 0.875900 0.258510
H329 H 1.237300 0.881400 0.303100
H330 H 1.307700 0.838100 0.254700
C331 C 1.132000 0.875900 0.218360
H332 H 1.086400 0.913600 0.222400
H333 H 1.157100 0.870600 0.173800
C334 C 1.033900 0.829530 0.237130
H335 H 1.008500 0.835200 0.281600
H336 H 1.080600 0.792000 0.233900
C337 C 0.902100 0.827570 0.197100
H338 H 0.852400 0.864600 0.203300
C339 C 0.934400 0.821760 0.128110
C340 C 0.919200 0.867710 0.086690
H341 H 0.885900 0.903300 0.102100
C342 C 0.951400 0.862800 0.024100
H343 H 0.941700 0.894900 -0.002900
C344 C 0.998200 0.810700 0.000400
H345 H 1.018900 0.806900 -0.042900
C346 C 1.014000 0.764900 0.040560
H347 H 1.046400 0.729300 0.024900
C348 C 0.983400 0.770300 0.102870
H349 H 0.995600 0.738200 0.129800
C350 C 0.811100 0.779110 0.221250
H351 H 0.861600 0.741900 0.218700
C352 C 0.763700 0.788540 0.287420
C353 C 0.674500 0.832550 0.302190
H354 H 0.636500 0.855200 0.269500
C355 C 0.640400 0.843900 0.363100
H356 H 0.577300 0.873600 0.372300
C357 C 0.696600 0.812600 0.411100
H358 H 0.675000 0.821700 0.453400
C359 C 0.784400 0.767900 0.397900
H360 H 0.822400 0.745700 0.431000
C361 C 0.816900 0.755580 0.335770
H362 H 0.875900 0.724400 0.326400
C363 C 0.643000 0.723980 0.167450
C364 C 0.510100 0.777630 0.091210
C365 C 0.605100 0.797410 0.048680
H366 H 0.687200 0.776500 0.042500
C367 C 0.583000 0.846800 0.015250
H368 H 0.650900 0.860500 -0.012700
C369 C 0.461600 0.876800 0.022100
H370 H 0.445200 0.910600 -0.001600
C371 C 0.364900 0.856600 0.064000
H372 H 0.281400 0.876800 0.068700
C373 C 0.387700 0.807540 0.099000
H374 H 0.321100 0.794300 0.128000
C375 C 0.474000 0.671000 0.106500
H376 H 0.496700 0.641700 0.139100
C377 C 0.320000 0.674700 0.101900
H378 H 0.282700 0.687400 0.142200
H379 H 0.283000 0.636800 0.091400
H380 H 0.294900 0.702200 0.069100
C381 C 0.536200 0.651400 0.045100
H382 H 0.520200 0.680600 0.012800
H383 H 0.494100 0.615100 0.032200
H384 H 0.634500 0.645800 0.050600
O385 O 0.192400 0.722980 0.679400
O386 O 0.187000 0.819920 0.690460
N387 N 0.035000 0.773460 0.626470
C388 C 0.861100 0.577450 0.739100
H389 H 0.893600 0.585000 0.696400
H390 H 0.938800 0.577000 0.768000
H391 H 0.814900 0.540200 0.740300
C392 C 0.762300 0.624100 0.758510
H393 H 0.737300 0.618600 0.803100
H394 H 0.807700 0.661900 0.754700
C395 C 0.632000 0.624100 0.718360
H396 H 0.586400 0.586400 0.722400
H397 H 0.657100 0.629400 0.673800
C398 C 0.533900 0.670470 0.737130
H399 H 0.508500 0.664800 0.781600
H400 H 0.580600 0.708000 0.733900
C401 C 0.402100 0.672430 0.697100
H402 H 0.352400 0.635400 0.703300
C403 C 0.434400 0.678240 0.628110
C404 C 0.419200 0.632290 0.586690
H405 H 0.385900 0.596700 0.602100
C406 C 0.451400 0.637200 0.524100
H407 H 0.441700 0.605100 0.497100
C408 C 0.498200 0.689300 0.500400
H409 H 0.518900 0.693100 0.457100
C410 C 0.514000 0.735100 0.540560
H411 H 0.546400 0.770700 0.524900
C412 C 0.483400 0.729700 0.602870
H413 H 0.495600 0.761800 0.629800
C414 C 0.311100 0.720890 0.721250
H415 H 0.361600 0.758100 0.718700
C416 C 0.263700 0.711460 0.787420
C417 C 0.174500 0.667450 0.802190
H418 H 0.136500 0.644800 0.769500
C419 C 0.140400 0.656100 0.863100
H420 H 0.077300 0.626400 0.872300
C421 C 0.196600 0.687400 0.911100
H422 H 0.175000 0.678300 0.953400
C423 C 0.284400 0.732100 0.897900
H424 H 0.322400 0.754300 0.931000
C425 C 0.316900 0.744420 0.835770
H426 H 0.375900 0.775600 0.826400
C427 C 0.143000 0.776020 0.667450
C428 C 0.010100 0.722370 0.591210
C429 C 0.105100 0.702590 0.548680
H430 H 0.187200 0.723500 0.542500
C431 C 0.083000 0.653200 0.515250
H432 H 0.150900 0.639500 0.487300
C433 C -0.038400 0.623200 0.522100
H434 H -0.054800 0.589400 0.498400
C435 C -0.135100 0.643400 0.564000
H436 H -0.218600 0.623200 0.568700
C437 C -0.112300 0.692460 0.599000
H438 H -0.178900 0.705700 0.628000
C439 C -0.026000 0.829000 0.606500
H440 H -0.003300 0.858300 0.639100
C441 C -0.180000 0.825300 0.601900
H442 H -0.217300 0.812600 0.642200
H443 H -0.217000 0.863200 0.591400
H444 H -0.205100 0.797800 0.569100
C445 C 0.036200 0.848600 0.545100
H446 H 0.020200 0.819400 0.512800
H447 H -0.005900 0.884900 0.532200
H448 H 0.134500 0.854200 0.550600
O449 O 0.307600 0.222980 0.820600
O450 O 0.313000 0.319920 0.809540
N451 N 0.465000 0.273460 0.873530
C452 C -0.361100 0.077450 0.760900
H453 H -0.393600 0.085000 0.803600
H454 H -0.438800 0.077000 0.732000
H455 H -0.314900 0.040200 0.759700
C456 C -0.262300 0.124100 0.741490
H457 H -0.237300 0.118600 0.696900
H458 H -0.307700 0.161900 0.745300
C459 C -0.132000 0.124100 0.781640
H460 H -0.086400 0.086400 0.777600
H461 H -0.157100 0.129400 0.826200
C462 C -0.033900 0.170470 0.762870
H463 H -0.008500 0.164800 0.718400
H464 H -0.080600 0.208000 0.766100
C465 C 0.097900 0.172430 0.802900
H466 H 0.147600 0.135400 0.796700
C467 C 0.065600 0.178240 0.871890
C468 C 0.080800 0.132290 0.913310
H469 H 0.114100 0.096700 0.897900
C470 C 0.048600 0.137200 0.975900
H471 H 0.058300 0.105100 1.002900
C472 C 0.001800 0.189300 0.999600
H473 H -0.018900 0.193100 1.042900
C474 C -0.014000 0.235100 0.959440
H475 H -0.046400 0.270700 0.975100
C476 C 0.016600 0.229700 0.897130
H477 H 0.004400 0.261800 0.870200
C478 C 0.188900 0.220890 0.778750
H479 H 0.138400 0.258100 0.781300
C480 C 0.236300 0.211460 0.712580
C481 C 0.325500 0.167450 0.697810
H482 H 0.363500 0.144800 0.730500
C483 C 0.359600 0.156100 0.636900
H484 H 0.422700 0.126400 0.627700
C485 C 0.303400 0.187400 0.588900
H486 H 0.325000 0.178300 0.546600
C487 C 0.215600 0.232100 0.602100
H488 H 0.177600 0.254300 0.569000
C489 C 0.183100 0.244420 0.664230
H490 H 0.124100 0.275600 0.673600
C491 C 0.357000 0.276020 0.832550
C492 C 0.489900 0.222370 0.908790
C493 C 0.394900 0.202590 0.951320
H494 H 0.312800 0.223500 0.957500
C495 C 0.417000 0.153200 0.984750
H496 H 0.349100 0.139500 1.012700
C497 C 0.538400 0.123200 0.977900
H498 H 0.554800 0.089400 1.001600
C499 C 0.635100 0.143400 0.936000
H500 H 0.718600 0.123200 0.931300
C501 C 0.612300 0.192460 0.901000
H502 H 0.678900 0.205700 0.872000
C503 C 0.526000 0.329000 0.893500
H504 H 0.503300 0.358300 0.860900
C505 C 0.680000 0.325300 0.898100
H506 H 0.717300 0.312600 0.857800
H507 H 0.717000 0.363200 0.908600
H508 H 0.705100 0.297800 0.930900
C509 C 0.463800 0.348600 0.954900
H510 H 0.479800 0.319400 0.987200
H511 H 0.505900 0.384900 0.967800
H512 H 0.365500 0.354200 0.949400

#END
