
#######################################################################
#
#                 Cambridge Crystallographic Data Centre
#                                CCDC 
#
#######################################################################
#
# If this CIF has been generated from an entry in the Cambridge 
# Structural Database, then it will include bibliographic, chemical, 
# crystal, experimental, refinement or atomic coordinate data resulting 
# from the CCDC's data processing and validation procedures.
#
#######################################################################

data_ACUYII
_symmetry_cell_setting           monoclinic
_symmetry_space_group_name_H-M   'P 21'
_symmetry_Int_Tables_number      4
_space_group_name_Hall           'P 2yb'
loop_
_symmetry_equiv_pos_site_id
_symmetry_equiv_pos_as_xyz
1 x,y,z
2 -x,1/2+y,-z
_cell_length_a                   11.435(6)
_cell_length_b                   6.330(4)
_cell_length_c                   12.887(7)
_cell_angle_alpha                90
_cell_angle_beta                 105.373(11)
_cell_angle_gamma                90
_cell_volume                     899.431
loop_
_atom_site_label
_atom_site_type_symbol
_atom_site_fract_x
_atom_site_fract_y
_atom_site_fract_z
N1 N 0.5134(2) 0.0257(5) 0.8179(2)
N2 N 0.3307(3) 0.9333(6) 0.5430(3)
O1 O 0.7880(2) 0.4104(4) 0.74120(18)
C1 C 0.6356(3) 0.1370(5) 0.7035(2)
H1 H 0.6091 0.0539 0.6372
C2 C 0.6352(3) -0.0144(5) 0.8020(2)
H2 H 0.6397 -0.1615 0.7796
C3 C 0.4653(3) 0.2150(5) 0.7729(2)
C4 C 0.5355(3) 0.2966(5) 0.7050(2)
C5 C 0.5002(3) 0.4795(5) 0.6466(2)
H3 H 0.5458 0.5312 0.6021
C6 C 0.3945(3) 0.5883(6) 0.6545(2)
C7 C 0.3266(3) 0.5081(6) 0.7234(2)
H4 H 0.2576 0.5797 0.7290
C8 C 0.3618(3) 0.3241(6) 0.7827(2)
H5 H 0.3172 0.2740 0.8283
C9 C 0.3575(3) 0.7803(6) 0.5937(3)
C10 C 0.7614(3) 0.2294(5) 0.7080(2)
C11 C 0.8516(3) 0.0896(5) 0.6727(2)
C12 C 0.9690(3) 0.1657(6) 0.6818(2)
H6 H 0.9903 0.2995 0.7104
C13 C 1.0540(3) 0.0450(6) 0.6489(3)
H7 H 1.1319 0.0970 0.6563
C14 C 1.0219(3) -0.1562(6) 0.6044(3)
H8 H 1.0781 -0.2365 0.5810
C15 C 0.9075(3) -0.2345(6) 0.5953(3)
H9 H 0.8868 -0.3682 0.5662
C16 C 0.8220(3) -0.1149(5) 0.6293(3)
H10 H 0.7451 -0.1699 0.6234
C17 C 0.7360(3) 0.0257(5) 0.9053(2)
C18 C 0.8205(3) -0.1328(6) 0.9477(3)
H11 H 0.8168 -0.2611 0.9118
C19 C 0.9105(3) -0.0999(7) 1.0436(3)
H12 H 0.9667 -0.2059 1.0706
C20 C 0.9167(3) 0.0903(7) 1.0989(3)
H13 H 0.9758 0.1105 1.1633
C21 C 0.8338(3) 0.2507(6) 1.0573(2)
H14 H 0.8384 0.3791 1.0933
C22 C 0.7437(3) 0.2181(5) 0.9614(2)
H15 H 0.6881 0.3249 0.9344
C23 C 0.4742(3) -0.0837(7) 0.9031(3)
H16 H 0.3883 -0.0664 0.8915
H17 H 0.5156 -0.0251 0.9717
H18 H 0.4930 -0.2314 0.9019
N1 N 0.4866(2) 0.5257(5) 0.1821(2)
N2 N 0.6693(3) 1.4333(6) 0.4570(3)
O1 O 0.2120(2) 0.9104(4) 0.25880(18)
C1 C 0.3644(3) 0.6370(5) 0.2965(2)
H1 H 0.3909 0.5539 0.3628
C2 C 0.3648(3) 0.4856(5) 0.1980(2)
H2 H 0.3603 0.3385 0.2204
C3 C 0.5347(3) 0.7150(5) 0.2271(2)
C4 C 0.4645(3) 0.7966(5) 0.2950(2)
C5 C 0.4998(3) 0.9795(5) 0.3534(2)
H3 H 0.4542 1.0312 0.3979
C6 C 0.6055(3) 1.0883(6) 0.3455(2)
C7 C 0.6734(3) 1.0081(6) 0.2766(2)
H4 H 0.7424 1.0797 0.2710
C8 C 0.6382(3) 0.8241(6) 0.2173(2)
H5 H 0.6828 0.7740 0.1717
C9 C 0.6425(3) 1.2803(6) 0.4063(3)
C10 C 0.2386(3) 0.7294(5) 0.2920(2)
C11 C 0.1484(3) 0.5896(5) 0.3273(2)
C12 C 0.0310(3) 0.6657(6) 0.3182(2)
H6 H 0.0097 0.7995 0.2896
C13 C -0.0540(3) 0.5450(6) 0.3511(3)
H7 H -0.1319 0.5970 0.3437
C14 C -0.0219(3) 0.3438(6) 0.3956(3)
H8 H -0.0781 0.2635 0.4190
C15 C 0.0925(3) 0.2655(6) 0.4047(3)
H9 H 0.1132 0.1318 0.4338
C16 C 0.1780(3) 0.3851(5) 0.3707(3)
H10 H 0.2549 0.3301 0.3766
C17 C 0.2640(3) 0.5257(5) 0.0947(2)
C18 C 0.1795(3) 0.3672(6) 0.0523(3)
H11 H 0.1832 0.2389 0.0882
C19 C 0.0895(3) 0.4001(7) -0.0436(3)
H12 H 0.0333 0.2941 -0.0706
C20 C 0.0833(3) 0.5903(7) -0.0989(3)
H13 H 0.0242 0.6105 -0.1633
C21 C 0.1662(3) 0.7507(6) -0.0573(2)
H14 H 0.1616 0.8791 -0.0933
C22 C 0.2563(3) 0.7181(5) 0.0386(2)
H15 H 0.3119 0.8249 0.0656
C23 C 0.5258(3) 0.4163(7) 0.0969(3)
H16 H 0.6117 0.4336 0.1085
H17 H 0.4844 0.4749 0.0283
H18 H 0.5070 0.2686 0.0981

#END
