
#######################################################################
#
#                 Cambridge Crystallographic Data Centre
#                                CCDC 
#
#######################################################################
#
# If this CIF has been generated from an entry in the Cambridge 
# Structural Database, then it will include bibliographic, chemical, 
# crystal, experimental, refinement or atomic coordinate data resulting 
# from the CCDC's data processing and validation procedures.
#
#######################################################################

data_ACUZAB
_symmetry_cell_setting           triclinic
_symmetry_space_group_name_H-M   'P -1'
_symmetry_Int_Tables_number      2
_space_group_name_Hall           '-P 1'
loop_
_symmetry_equiv_pos_site_id
_symmetry_equiv_pos_as_xyz
1 x,y,z
2 -x,-y,-z
_cell_length_a                   13.593(3)
_cell_length_b                   14.451(4)
_cell_length_c                   15.435(4)
_cell_angle_alpha                105.313(5)
_cell_angle_beta                 91.450(4)
_cell_angle_gamma                91.371(4)
_cell_volume                     2921.88
loop_
_atom_site_label
_atom_site_type_symbol
_atom_site_fract_x
_atom_site_fract_y
_atom_site_fract_z
Cl1 Cl 0.34123(8) 0.18364(9) 0.38963(7)
Cl2 Cl 0.21213(9) 0.15491(8) 0.23329(7)
Cl3 Cl 0.14019(9) 0.24770(9) 0.40778(8)
C80 C 0.2196(3) 0.1599(3) 0.3486(3)
H27 H 0.1976 0.0961 0.3563
Cl1 Cl 0.65877(8) 0.81636(9) 0.61037(7)
Cl2 Cl 0.78787(9) 0.84509(8) 0.76671(7)
Cl3 Cl 0.85981(9) 0.75230(9) 0.59222(8)
C80 C 0.7804(3) 0.8401(3) 0.6514(3)
H27 H 0.8024 0.9039 0.6437
Cl4 Cl 0.18512(9) 0.42440(10) 0.20724(10)
Cl5 Cl 0.00952(10) 0.30670(9) 0.19528(10)
Cl6 Cl -0.00532(10) 0.51167(9) 0.22865(10)
C81 C 0.0662(3) 0.4185(3) 0.2478(3)
H28 H 0.0715 0.4255 0.3139
Cl4 Cl 0.81488(9) 0.57560(10) 0.79276(10)
Cl5 Cl 0.99048(10) 0.69330(9) 0.80472(10)
Cl6 Cl 1.00532(10) 0.48833(9) 0.77135(10)
C81 C 0.9338(3) 0.5815(3) 0.7522(3)
H28 H 0.9285 0.5745 0.6861
Cl7 Cl 0.0868(6) 0.6175(4) 0.4440(3)
Cl8 Cl 0.1440(4) 0.5751(5) 0.6158(3)
Cl9 Cl 0.25441(16) 0.51298(18) 0.45461(14)
C82 C 0.1782(4) 0.5964(4) 0.5177(4)
H29 H 0.2086 0.6620 0.5430
Cl7 Cl 0.9132(6) 0.3825(4) 0.5560(3)
Cl8 Cl 0.8560(4) 0.4249(5) 0.3842(3)
Cl9 Cl 0.74559(16) 0.48702(18) 0.54539(14)
C82 C 0.8218(4) 0.4036(4) 0.4823(4)
H29 H 0.7914 0.3380 0.4570
O1 O 0.33633(19) 0.83449(17) 0.42894(16)
O2 O 0.3241(2) 0.7796(2) 0.64235(18)
O3 O 0.1181(3) 0.8017(2) 0.6047(2)
O4 O 0.1080(2) 0.9505(2) 0.5076(2)
N1 N 0.4601(2) 0.7729(2) 0.50421(19)
N2 N 0.2523(2) 0.9433(2) 0.36953(19)
C1 C 0.4030(3) 0.8392(3) 0.5001(2)
C2 C 0.3998(2) 0.9359(2) 0.5599(2)
C3 C 0.3338(3) 0.9885(2) 0.5199(2)
C4 C 0.2979(3) 0.9239(2) 0.4344(2)
C5 C 0.4647(3) 0.6847(3) 0.4376(2)
C6 C 0.4095(3) 0.6567(3) 0.3572(3)
H1 H 0.3592 0.6966 0.3453
C7 C 0.4272(3) 0.5707(3) 0.2942(3)
H2 H 0.3891 0.5539 0.2396
C8 C 0.4981(3) 0.5091(3) 0.3081(3)
C9 C 0.5504(4) 0.5363(3) 0.3884(3)
H3 H 0.5993 0.4953 0.4009
C10 C 0.5339(4) 0.6227(3) 0.4524(3)
H4 H 0.5716 0.6387 0.5073
C11 C 0.5165(3) 0.4146(3) 0.2381(3)
C12 C 0.4861(4) 0.4199(3) 0.1431(3)
H5 H 0.5046 0.3611 0.0992
H6 H 0.5196 0.4754 0.1302
H7 H 0.4147 0.4267 0.1392
C13 C 0.4582(4) 0.3330(3) 0.2616(4)
H8 H 0.3879 0.3467 0.2626
H9 H 0.4805 0.3275 0.3209
H10 H 0.4689 0.2725 0.2164
C14 C 0.6268(3) 0.3931(3) 0.2372(3)
H11 H 0.6482 0.3859 0.2961
H12 H 0.6644 0.4462 0.2240
H13 H 0.6380 0.3336 0.1910
C15 C 0.2354(2) 0.8689(2) 0.2886(2)
C16 C 0.2535(3) 0.8911(2) 0.2084(2)
H14 H 0.2733 0.9547 0.2088
C17 C 0.2428(3) 0.8207(3) 0.1270(2)
H15 H 0.2564 0.8373 0.0728
C18 C 0.2127(3) 0.7269(2) 0.1227(2)
C19 C 0.1900(3) 0.7072(3) 0.2046(2)
H16 H 0.1666 0.6447 0.2043
C20 C 0.2008(3) 0.7767(3) 0.2858(2)
H17 H 0.1845 0.7613 0.3399
C21 C 0.2082(3) 0.6468(3) 0.0352(2)
C22 C 0.2132(5) 0.6871(3) -0.0462(3)
H18 H 0.2052 0.6346 -0.1012
H19 H 0.2771 0.7201 -0.0456
H20 H 0.1605 0.7326 -0.0442
C23 C 0.1137(3) 0.5843(3) 0.0259(3)
H21 H 0.1147 0.5322 -0.0297
H22 H 0.0564 0.6236 0.0238
H23 H 0.1096 0.5570 0.0775
C24 C 0.2969(3) 0.5827(3) 0.0358(3)
H24 H 0.2912 0.5517 0.0848
H25 H 0.3579 0.6221 0.0445
H26 H 0.2981 0.5335 -0.0217
C25 C 0.3180(3) 1.0865(2) 0.5605(2)
C26 C 0.2299(3) 1.1470(3) 0.5841(2)
C27 C 0.1345(3) 1.1171(3) 0.5938(2)
C28 C 0.0932(3) 1.0156(3) 0.5723(3)
C29 C 0.0346(3) 1.0102(3) 0.6533(3)
C30 C 0.0381(3) 0.9407(3) 0.6985(3)
C31 C 0.1020(3) 0.8537(3) 0.6769(3)
C32 C 0.1492(3) 0.8530(3) 0.7673(3)
C33 C 0.2467(3) 0.8420(3) 0.7851(3)
C34 C 0.3278(3) 0.8287(2) 0.7186(2)
C35 C 0.4102(3) 0.8974(3) 0.7654(2)
C36 C 0.4663(2) 0.9595(3) 0.7301(2)
C37 C 0.4505(2) 0.9811(2) 0.6416(2)
C38 C 0.4603(2) 1.0825(3) 0.6587(2)
C39 C 0.3950(3) 1.1336(3) 0.6193(2)
C40 C 0.3679(3) 1.2288(3) 0.6678(2)
C41 C 0.2655(3) 1.2379(3) 0.6465(2)
C42 C 0.2074(3) 1.2929(3) 0.7126(2)
C43 C 0.1098(3) 1.2598(3) 0.7222(3)
C44 C 0.0758(3) 1.1723(3) 0.6661(3)
C45 C 0.0166(3) 1.1072(3) 0.7017(3)
C46 C -0.0038(3) 1.1320(3) 0.7931(3)
C47 C 0.0008(3) 1.0585(3) 0.8404(3)
C48 C 0.0248(3) 0.9670(3) 0.7943(3)
C49 C 0.0925(3) 0.9139(3) 0.8361(3)
C50 C 0.1315(3) 0.9547(3) 0.9214(3)
C51 C 0.2337(3) 0.9429(3) 0.9404(3)
C52 C 0.2902(3) 0.8906(3) 0.8712(3)
C53 C 0.3887(3) 0.9236(3) 0.8600(2)
C54 C 0.4271(3) 1.0068(3) 0.9191(2)
C55 C 0.4852(3) 1.0725(3) 0.8852(2)
C56 C 0.5026(2) 1.0495(3) 0.7931(2)
C57 C 0.4990(2) 1.1250(3) 0.7493(2)
C58 C 0.4763(3) 1.2179(3) 0.7944(3)
C59 C 0.4089(3) 1.2715(3) 0.7526(3)
C60 C 0.3481(3) 1.3277(2) 0.8214(3)
C61 C 0.2500(3) 1.3386(2) 0.8019(3)
C62 C 0.0889(3) 1.2843(3) 0.8176(3)
C63 C 0.0335(3) 1.2213(3) 0.8515(3)
C64 C 0.0620(3) 1.2029(3) 0.9365(3)
C65 C 0.0419(3) 1.1025(3) 0.9296(3)
C66 C 0.1062(3) 1.0517(3) 0.9699(3)
C67 C 0.1927(3) 1.0987(3) 1.0182(2)
C68 C 0.2132(3) 1.1954(3) 1.0252(2)
C69 C 0.1465(3) 1.2488(3) 0.9834(2)
C70 C 0.2047(3) 1.3148(3) 0.9477(2)
C71 C 0.1762(3) 1.3323(3) 0.8662(3)
C72 C 0.3783(3) 1.3085(3) 0.9061(2)
C73 C 0.4573(3) 1.2411(3) 0.8887(2)
C74 C 0.4622(3) 1.1700(3) 0.9332(2)
C75 C 0.3888(3) 1.1633(3) 0.9982(2)
C76 C 0.3126(3) 1.2283(3) 1.0151(2)
C77 C 0.3070(3) 1.3021(3) 0.9674(2)
C78 C 0.3673(3) 1.0624(3) 0.9904(2)
C79 C 0.2729(3) 1.0315(3) 1.0005(2)
O1 O 0.66367(19) 0.16551(17) 0.57106(16)
O2 O 0.6759(2) 0.2204(2) 0.35765(18)
O3 O 0.8819(3) 0.1983(2) 0.3953(2)
O4 O 0.8920(2) 0.0495(2) 0.4924(2)
N1 N 0.5399(2) 0.2271(2) 0.49579(19)
N2 N 0.7477(2) 0.0567(2) 0.63047(19)
C1 C 0.5970(3) 0.1608(3) 0.4999(2)
C2 C 0.6002(2) 0.0641(2) 0.4401(2)
C3 C 0.6662(3) 0.0115(2) 0.4801(2)
C4 C 0.7021(3) 0.0761(2) 0.5656(2)
C5 C 0.5353(3) 0.3153(3) 0.5624(2)
C6 C 0.5905(3) 0.3433(3) 0.6428(3)
H1 H 0.6408 0.3034 0.6547
C7 C 0.5728(3) 0.4293(3) 0.7058(3)
H2 H 0.6109 0.4461 0.7604
C8 C 0.5019(3) 0.4909(3) 0.6919(3)
C9 C 0.4496(4) 0.4637(3) 0.6116(3)
H3 H 0.4007 0.5047 0.5991
C10 C 0.4661(4) 0.3773(3) 0.5476(3)
H4 H 0.4284 0.3613 0.4927
C11 C 0.4835(3) 0.5854(3) 0.7619(3)
C12 C 0.5139(4) 0.5801(3) 0.8569(3)
H5 H 0.4954 0.6389 0.9008
H6 H 0.4804 0.5246 0.8698
H7 H 0.5853 0.5733 0.8608
C13 C 0.5418(4) 0.6670(3) 0.7384(4)
H8 H 0.6121 0.6533 0.7374
H9 H 0.5195 0.6725 0.6791
H10 H 0.5311 0.7275 0.7836
C14 C 0.3732(3) 0.6069(3) 0.7628(3)
H11 H 0.3518 0.6141 0.7039
H12 H 0.3356 0.5538 0.7760
H13 H 0.3620 0.6664 0.8090
C15 C 0.7646(2) 0.1311(2) 0.7114(2)
C16 C 0.7465(3) 0.1089(2) 0.7916(2)
H14 H 0.7267 0.0453 0.7912
C17 C 0.7572(3) 0.1793(3) 0.8730(2)
H15 H 0.7436 0.1627 0.9272
C18 C 0.7873(3) 0.2731(2) 0.8773(2)
C19 C 0.8100(3) 0.2928(3) 0.7954(2)
H16 H 0.8334 0.3553 0.7957
C20 C 0.7992(3) 0.2233(3) 0.7142(2)
H17 H 0.8155 0.2387 0.6601
C21 C 0.7918(3) 0.3532(3) 0.9648(2)
C22 C 0.7868(5) 0.3129(3) 1.0462(3)
H18 H 0.7948 0.3654 1.1012
H19 H 0.7229 0.2799 1.0456
H20 H 0.8395 0.2674 1.0442
C23 C 0.8863(3) 0.4157(3) 0.9741(3)
H21 H 0.8853 0.4678 1.0297
H22 H 0.9436 0.3764 0.9762
H23 H 0.8904 0.4430 0.9225
C24 C 0.7031(3) 0.4173(3) 0.9642(3)
H24 H 0.7088 0.4483 0.9152
H25 H 0.6421 0.3779 0.9555
H26 H 0.7019 0.4665 1.0217
C25 C 0.6820(3) -0.0865(2) 0.4395(2)
C26 C 0.7701(3) -0.1470(3) 0.4159(2)
C27 C 0.8655(3) -0.1171(3) 0.4062(2)
C28 C 0.9068(3) -0.0156(3) 0.4277(3)
C29 C 0.9654(3) -0.0102(3) 0.3467(3)
C30 C 0.9619(3) 0.0593(3) 0.3015(3)
C31 C 0.8980(3) 0.1463(3) 0.3231(3)
C32 C 0.8508(3) 0.1470(3) 0.2327(3)
C33 C 0.7533(3) 0.1580(3) 0.2149(3)
C34 C 0.6722(3) 0.1713(2) 0.2814(2)
C35 C 0.5898(3) 0.1026(3) 0.2346(2)
C36 C 0.5337(2) 0.0405(3) 0.2699(2)
C37 C 0.5495(2) 0.0189(2) 0.3584(2)
C38 C 0.5397(2) -0.0825(3) 0.3413(2)
C39 C 0.6050(3) -0.1336(3) 0.3807(2)
C40 C 0.6321(3) -0.2288(3) 0.3322(2)
C41 C 0.7345(3) -0.2379(3) 0.3535(2)
C42 C 0.7926(3) -0.2929(3) 0.2874(2)
C43 C 0.8902(3) -0.2598(3) 0.2778(3)
C44 C 0.9242(3) -0.1723(3) 0.3339(3)
C45 C 0.9834(3) -0.1072(3) 0.2983(3)
C46 C 1.0038(3) -0.1320(3) 0.2069(3)
C47 C 0.9992(3) -0.0585(3) 0.1596(3)
C48 C 0.9752(3) 0.0330(3) 0.2057(3)
C49 C 0.9075(3) 0.0861(3) 0.1639(3)
C50 C 0.8685(3) 0.0453(3) 0.0786(3)
C51 C 0.7663(3) 0.0571(3) 0.0596(3)
C52 C 0.7098(3) 0.1094(3) 0.1288(3)
C53 C 0.6113(3) 0.0764(3) 0.1400(2)
C54 C 0.5729(3) -0.0068(3) 0.0809(2)
C55 C 0.5148(3) -0.0725(3) 0.1148(2)
C56 C 0.4974(2) -0.0495(3) 0.2069(2)
C57 C 0.5010(2) -0.1250(3) 0.2507(2)
C58 C 0.5237(3) -0.2179(3) 0.2056(3)
C59 C 0.5911(3) -0.2715(3) 0.2474(3)
C60 C 0.6519(3) -0.3277(2) 0.1786(3)
C61 C 0.7500(3) -0.3386(2) 0.1981(3)
C62 C 0.9111(3) -0.2843(3) 0.1824(3)
C63 C 0.9665(3) -0.2213(3) 0.1485(3)
C64 C 0.9380(3) -0.2029(3) 0.0635(3)
C65 C 0.9581(3) -0.1025(3) 0.0704(3)
C66 C 0.8938(3) -0.0517(3) 0.0301(3)
C67 C 0.8073(3) -0.0987(3) -0.0182(2)
C68 C 0.7868(3) -0.1954(3) -0.0252(2)
C69 C 0.8535(3) -0.2488(3) 0.0166(2)
C70 C 0.7953(3) -0.3148(3) 0.0523(2)
C71 C 0.8238(3) -0.3323(3) 0.1338(3)
C72 C 0.6217(3) -0.3085(3) 0.0939(2)
C73 C 0.5427(3) -0.2411(3) 0.1113(2)
C74 C 0.5378(3) -0.1700(3) 0.0668(2)
C75 C 0.6112(3) -0.1633(3) 0.0018(2)
C76 C 0.6874(3) -0.2283(3) -0.0151(2)
C77 C 0.6930(3) -0.3021(3) 0.0326(2)
C78 C 0.6327(3) -0.0624(3) 0.0096(2)
C79 C 0.7271(3) -0.0315(3) -0.0005(2)
O5 O 0.2503(17) 0.0893(17) 0.7938(16)
O5 O 0.7497(17) 0.9107(17) 0.2062(16)
Cl10? Cl 0.1505(11) 0.5289(19) 0.6004(10)
Cl11? Cl 0.0542(10) 0.5930(10) 0.4756(15)
Cl10? Cl 0.8495(11) 0.4711(19) 0.3996(10)
Cl11? Cl 0.9458(10) 0.4070(10) 0.5244(15)

#END
