
#######################################################################
#
#                 Cambridge Crystallographic Data Centre
#                                CCDC 
#
#######################################################################
#
# If this CIF has been generated from an entry in the Cambridge 
# Structural Database, then it will include bibliographic, chemical, 
# crystal, experimental, refinement or atomic coordinate data resulting 
# from the CCDC's data processing and validation procedures.
#
#######################################################################

data_ADABAI
_symmetry_cell_setting           orthorhombic
_symmetry_space_group_name_H-M   'P b c a'
_symmetry_Int_Tables_number      61
_space_group_name_Hall           '-P 2ac 2ab'
loop_
_symmetry_equiv_pos_site_id
_symmetry_equiv_pos_as_xyz
1 x,y,z
2 1/2+x,y,1/2-z
3 x,1/2-y,1/2+z
4 1/2-x,1/2+y,z
5 -x,-y,-z
6 1/2-x,-y,1/2+z
7 -x,1/2+y,1/2-z
8 1/2+x,1/2-y,-z
_cell_length_a                   13.1629(9)
_cell_length_b                   7.8003(5)
_cell_length_c                   16.9605(12)
_cell_angle_alpha                90
_cell_angle_beta                 90
_cell_angle_gamma                90
_cell_volume                     1741.41
loop_
_atom_site_label
_atom_site_type_symbol
_atom_site_fract_x
_atom_site_fract_y
_atom_site_fract_z
Cu1 Cu 0.0000 0.0000 0.5000
O1 O 0.02953(8) -0.21567(14) 0.55382(7)
O2 O 0.07304(10) 0.1768(2) 0.60504(7)
O3 O 0.04905(12) 0.0232(2) 0.70973(8)
O4 O 0.14088(11) 0.2501(2) 0.71493(8)
N1 N 0.11639(10) -0.2303(2) 0.59204(8)
N2 N 0.14016(10) -0.00564(14) 0.45463(8)
N3 N 0.08670(10) 0.1493(2) 0.67703(8)
C1 C 0.20121(11) -0.1622(2) 0.56997(10)
H1 H 0.2579(15) -0.1833(24) 0.6058(10)
C2 C 0.1092(2) -0.3421(2) 0.66137(11)
H2 H 0.0949(17) -0.4617(29) 0.6428(13)
H3 H 0.1721(18) -0.3473(27) 0.6858(13)
H4 H 0.0552(17) -0.3008(27) 0.6919(12)
C3 C 0.21904(12) -0.0690(2) 0.49768(8)
C4 C 0.31873(12) -0.0534(2) 0.47240(10)
H5 H 0.3718(15) -0.1019(25) 0.5046(10)
C5 C 0.33890(14) 0.0208(2) 0.40017(11)
H6 H 0.4074(19) 0.0279(26) 0.3789(13)
C6 C 0.25856(13) 0.0772(2) 0.35521(10)
H7 H 0.2685(15) 0.1188(26) 0.3035(12)
C7 C 0.16112(13) 0.0639(2) 0.38455(9)
H8 H 0.1054(14) 0.1084(22) 0.3547(10)
O1D O -0.02953(8) 0.21567(14) 0.44618(7)
N1D N -0.11639(10) 0.2303(2) 0.40796(8)
C1D C -0.20121(11) 0.1622(2) 0.43003(10)
H1D H -0.2579(15) 0.1833(24) 0.3942(10)
C3D C -0.21904(12) 0.0690(2) 0.50232(8)
N2D N -0.14016(10) 0.00564(14) 0.54537(8)
O2D O -0.07304(10) -0.1768(2) 0.39496(7)
N3D N -0.08670(10) -0.1493(2) 0.32297(8)
O3D O -0.04905(12) -0.0232(2) 0.29027(8)
O4D O -0.14088(11) -0.2501(2) 0.28507(8)
C7D C -0.16112(13) -0.0639(2) 0.61545(9)
C6D C -0.25856(13) -0.0772(2) 0.64479(10)
C5D C -0.33890(14) -0.0208(2) 0.59983(11)
C4D C -0.31873(12) 0.0534(2) 0.52760(10)
H5D H -0.3718(15) 0.1019(25) 0.4954(10)
H6D H -0.4074(19) -0.0279(26) 0.6211(13)
H7D H -0.2685(15) -0.1188(26) 0.6965(12)
H8D H -0.1054(14) -0.1084(22) 0.6453(10)
C2D C -0.1092(2) 0.3421(2) 0.33863(11)
H2D H -0.0949(17) 0.4617(29) 0.3572(13)
H3D H -0.1721(18) 0.3473(27) 0.3142(13)
H4D H -0.0552(17) 0.3008(27) 0.3081(12)
Cu1 Cu 0.0000 1.0000 0.5000
O1 O 0.02953(8) 0.78433(14) 0.55382(7)
O2 O 0.07304(10) 1.1768(2) 0.60504(7)
O3 O 0.04905(12) 1.0232(2) 0.70973(8)
O4 O 0.14088(11) 1.2501(2) 0.71493(8)
N1 N 0.11639(10) 0.7697(2) 0.59204(8)
N2 N 0.14016(10) 0.99436(14) 0.45463(8)
N3 N 0.08670(10) 1.1493(2) 0.67703(8)
C1 C 0.20121(11) 0.8378(2) 0.56997(10)
H1 H 0.2579(15) 0.8167(24) 0.6058(10)
C2 C 0.1092(2) 0.6579(2) 0.66137(11)
H2 H 0.0949(17) 0.5383(29) 0.6428(13)
H3 H 0.1721(18) 0.6527(27) 0.6858(13)
H4 H 0.0552(17) 0.6992(27) 0.6919(12)
C3 C 0.21904(12) 0.9310(2) 0.49768(8)
C4 C 0.31873(12) 0.9466(2) 0.47240(10)
H5 H 0.3718(15) 0.8981(25) 0.5046(10)
C5 C 0.33890(14) 1.0208(2) 0.40017(11)
H6 H 0.4074(19) 1.0279(26) 0.3789(13)
C6 C 0.25856(13) 1.0772(2) 0.35521(10)
H7 H 0.2685(15) 1.1188(26) 0.3035(12)
C7 C 0.16112(13) 1.0639(2) 0.38455(9)
H8 H 0.1054(14) 1.1084(22) 0.3547(10)
O1D O -0.02953(8) 1.21567(14) 0.44618(7)
N1D N -0.11639(10) 1.2303(2) 0.40796(8)
C1D C -0.20121(11) 1.1622(2) 0.43003(10)
H1D H -0.2579(15) 1.1833(24) 0.3942(10)
C3D C -0.21904(12) 1.0690(2) 0.50232(8)
N2D N -0.14016(10) 1.00564(14) 0.54537(8)
O2D O -0.07304(10) 0.8232(2) 0.39496(7)
N3D N -0.08670(10) 0.8507(2) 0.32297(8)
O3D O -0.04905(12) 0.9768(2) 0.29027(8)
O4D O -0.14088(11) 0.7499(2) 0.28507(8)
C7D C -0.16112(13) 0.9361(2) 0.61545(9)
C6D C -0.25856(13) 0.9228(2) 0.64479(10)
C5D C -0.33890(14) 0.9792(2) 0.59983(11)
C4D C -0.31873(12) 1.0534(2) 0.52760(10)
H5D H -0.3718(15) 1.1019(25) 0.4954(10)
H6D H -0.4074(19) 0.9721(26) 0.6211(13)
H7D H -0.2685(15) 0.8812(26) 0.6965(12)
H8D H -0.1054(14) 0.8916(22) 0.6453(10)
C2D C -0.1092(2) 1.3421(2) 0.33863(11)
H2D H -0.0949(17) 1.4617(29) 0.3572(13)
H3D H -0.1721(18) 1.3473(27) 0.3142(13)
H4D H -0.0552(17) 1.3008(27) 0.3081(12)
Cu1 Cu 1.0000 0.0000 0.5000
O1 O 1.02953(8) -0.21567(14) 0.55382(7)
O2 O 1.07304(10) 0.1768(2) 0.60504(7)
O3 O 1.04905(12) 0.0232(2) 0.70973(8)
O4 O 1.14088(11) 0.2501(2) 0.71493(8)
N1 N 1.11639(10) -0.2303(2) 0.59204(8)
N2 N 1.14016(10) -0.00564(14) 0.45463(8)
N3 N 1.08670(10) 0.1493(2) 0.67703(8)
C1 C 1.20121(11) -0.1622(2) 0.56997(10)
H1 H 1.2579(15) -0.1833(24) 0.6058(10)
C2 C 1.1092(2) -0.3421(2) 0.66137(11)
H2 H 1.0949(17) -0.4617(29) 0.6428(13)
H3 H 1.1721(18) -0.3473(27) 0.6858(13)
H4 H 1.0552(17) -0.3008(27) 0.6919(12)
C3 C 1.21904(12) -0.0690(2) 0.49768(8)
C4 C 1.31873(12) -0.0534(2) 0.47240(10)
H5 H 1.3718(15) -0.1019(25) 0.5046(10)
C5 C 1.33890(14) 0.0208(2) 0.40017(11)
H6 H 1.4074(19) 0.0279(26) 0.3789(13)
C6 C 1.25856(13) 0.0772(2) 0.35521(10)
H7 H 1.2685(15) 0.1188(26) 0.3035(12)
C7 C 1.16112(13) 0.0639(2) 0.38455(9)
H8 H 1.1054(14) 0.1084(22) 0.3547(10)
O1D O 0.97047(8) 0.21567(14) 0.44618(7)
N1D N 0.88361(10) 0.2303(2) 0.40796(8)
C1D C 0.79879(11) 0.1622(2) 0.43003(10)
H1D H 0.7421(15) 0.1833(24) 0.3942(10)
C3D C 0.78096(12) 0.0690(2) 0.50232(8)
N2D N 0.85984(10) 0.00564(14) 0.54537(8)
O2D O 0.92696(10) -0.1768(2) 0.39496(7)
N3D N 0.91330(10) -0.1493(2) 0.32297(8)
O3D O 0.95095(12) -0.0232(2) 0.29027(8)
O4D O 0.85912(11) -0.2501(2) 0.28507(8)
C7D C 0.83888(13) -0.0639(2) 0.61545(9)
C6D C 0.74144(13) -0.0772(2) 0.64479(10)
C5D C 0.66110(14) -0.0208(2) 0.59983(11)
C4D C 0.68127(12) 0.0534(2) 0.52760(10)
H5D H 0.6282(15) 0.1019(25) 0.4954(10)
H6D H 0.5926(19) -0.0279(26) 0.6211(13)
H7D H 0.7315(15) -0.1188(26) 0.6965(12)
H8D H 0.8946(14) -0.1084(22) 0.6453(10)
C2D C 0.8908(2) 0.3421(2) 0.33863(11)
H2D H 0.9051(17) 0.4617(29) 0.3572(13)
H3D H 0.8279(18) 0.3473(27) 0.3142(13)
H4D H 0.9448(17) 0.3008(27) 0.3081(12)
Cu1 Cu 1.0000 1.0000 0.5000
O1 O 1.02953(8) 0.78433(14) 0.55382(7)
O2 O 1.07304(10) 1.1768(2) 0.60504(7)
O3 O 1.04905(12) 1.0232(2) 0.70973(8)
O4 O 1.14088(11) 1.2501(2) 0.71493(8)
N1 N 1.11639(10) 0.7697(2) 0.59204(8)
N2 N 1.14016(10) 0.99436(14) 0.45463(8)
N3 N 1.08670(10) 1.1493(2) 0.67703(8)
C1 C 1.20121(11) 0.8378(2) 0.56997(10)
H1 H 1.2579(15) 0.8167(24) 0.6058(10)
C2 C 1.1092(2) 0.6579(2) 0.66137(11)
H2 H 1.0949(17) 0.5383(29) 0.6428(13)
H3 H 1.1721(18) 0.6527(27) 0.6858(13)
H4 H 1.0552(17) 0.6992(27) 0.6919(12)
C3 C 1.21904(12) 0.9310(2) 0.49768(8)
C4 C 1.31873(12) 0.9466(2) 0.47240(10)
H5 H 1.3718(15) 0.8981(25) 0.5046(10)
C5 C 1.33890(14) 1.0208(2) 0.40017(11)
H6 H 1.4074(19) 1.0279(26) 0.3789(13)
C6 C 1.25856(13) 1.0772(2) 0.35521(10)
H7 H 1.2685(15) 1.1188(26) 0.3035(12)
C7 C 1.16112(13) 1.0639(2) 0.38455(9)
H8 H 1.1054(14) 1.1084(22) 0.3547(10)
O1D O 0.97047(8) 1.21567(14) 0.44618(7)
N1D N 0.88361(10) 1.2303(2) 0.40796(8)
C1D C 0.79879(11) 1.1622(2) 0.43003(10)
H1D H 0.7421(15) 1.1833(24) 0.3942(10)
C3D C 0.78096(12) 1.0690(2) 0.50232(8)
N2D N 0.85984(10) 1.00564(14) 0.54537(8)
O2D O 0.92696(10) 0.8232(2) 0.39496(7)
N3D N 0.91330(10) 0.8507(2) 0.32297(8)
O3D O 0.95095(12) 0.9768(2) 0.29027(8)
O4D O 0.85912(11) 0.7499(2) 0.28507(8)
C7D C 0.83888(13) 0.9361(2) 0.61545(9)
C6D C 0.74144(13) 0.9228(2) 0.64479(10)
C5D C 0.66110(14) 0.9792(2) 0.59983(11)
C4D C 0.68127(12) 1.0534(2) 0.52760(10)
H5D H 0.6282(15) 1.1019(25) 0.4954(10)
H6D H 0.5926(19) 0.9721(26) 0.6211(13)
H7D H 0.7315(15) 0.8812(26) 0.6965(12)
H8D H 0.8946(14) 0.8916(22) 0.6453(10)
C2D C 0.8908(2) 1.3421(2) 0.33863(11)
H2D H 0.9051(17) 1.4617(29) 0.3572(13)
H3D H 0.8279(18) 1.3473(27) 0.3142(13)
H4D H 0.9448(17) 1.3008(27) 0.3081(12)
Cu1 Cu 0.5000 0.0000 0.0000
O1 O 0.52953(8) -0.21567(14) -0.05382(7)
O2 O 0.57304(10) 0.1768(2) -0.10504(7)
O3 O 0.54905(12) 0.0232(2) -0.20973(8)
O4 O 0.64088(11) 0.2501(2) -0.21493(8)
N1 N 0.61639(10) -0.2303(2) -0.09204(8)
N2 N 0.64016(10) -0.00564(14) 0.04537(8)
N3 N 0.58670(10) 0.1493(2) -0.17703(8)
C1 C 0.70121(11) -0.1622(2) -0.06997(10)
H1 H 0.7579(15) -0.1833(24) -0.1058(10)
C2 C 0.6092(2) -0.3421(2) -0.16137(11)
H2 H 0.5949(17) -0.4617(29) -0.1428(13)
H3 H 0.6721(18) -0.3473(27) -0.1858(13)
H4 H 0.5552(17) -0.3008(27) -0.1919(12)
C3 C 0.71904(12) -0.0690(2) 0.00232(8)
C4 C 0.81873(12) -0.0534(2) 0.02760(10)
H5 H 0.8718(15) -0.1019(25) -0.0046(10)
C5 C 0.83890(14) 0.0208(2) 0.09983(11)
H6 H 0.9074(19) 0.0279(26) 0.1211(13)
C6 C 0.75856(13) 0.0772(2) 0.14479(10)
H7 H 0.7685(15) 0.1188(26) 0.1965(12)
C7 C 0.66112(13) 0.0639(2) 0.11545(9)
H8 H 0.6054(14) 0.1084(22) 0.1453(10)
O1D O 0.47047(8) 0.21567(14) 0.05382(7)
N1D N 0.38361(10) 0.2303(2) 0.09204(8)
C1D C 0.29879(11) 0.1622(2) 0.06997(10)
H1D H 0.2421(15) 0.1833(24) 0.1058(10)
C3D C 0.28096(12) 0.0690(2) -0.00232(8)
N2D N 0.35984(10) 0.00564(14) -0.04537(8)
O2D O 0.42696(10) -0.1768(2) 0.10504(7)
N3D N 0.41330(10) -0.1493(2) 0.17703(8)
O3D O 0.45095(12) -0.0232(2) 0.20973(8)
O4D O 0.35912(11) -0.2501(2) 0.21493(8)
C7D C 0.33888(13) -0.0639(2) -0.11545(9)
C6D C 0.24144(13) -0.0772(2) -0.14479(10)
C5D C 0.16110(14) -0.0208(2) -0.09983(11)
C4D C 0.18127(12) 0.0534(2) -0.02760(10)
H5D H 0.1282(15) 0.1019(25) 0.0046(10)
H6D H 0.0926(19) -0.0279(26) -0.1211(13)
H7D H 0.2315(15) -0.1188(26) -0.1965(12)
H8D H 0.3946(14) -0.1084(22) -0.1453(10)
C2D C 0.3908(2) 0.3421(2) 0.16137(11)
H2D H 0.4051(17) 0.4617(29) 0.1428(13)
H3D H 0.3279(18) 0.3473(27) 0.1858(13)
H4D H 0.4448(17) 0.3008(27) 0.1919(12)
Cu1 Cu 0.5000 0.0000 1.0000
O1 O 0.52953(8) -0.21567(14) 0.94618(7)
O2 O 0.57304(10) 0.1768(2) 0.89496(7)
O3 O 0.54905(12) 0.0232(2) 0.79027(8)
O4 O 0.64088(11) 0.2501(2) 0.78507(8)
N1 N 0.61639(10) -0.2303(2) 0.90796(8)
N2 N 0.64016(10) -0.00564(14) 1.04537(8)
N3 N 0.58670(10) 0.1493(2) 0.82297(8)
C1 C 0.70121(11) -0.1622(2) 0.93003(10)
H1 H 0.7579(15) -0.1833(24) 0.8942(10)
C2 C 0.6092(2) -0.3421(2) 0.83863(11)
H2 H 0.5949(17) -0.4617(29) 0.8572(13)
H3 H 0.6721(18) -0.3473(27) 0.8142(13)
H4 H 0.5552(17) -0.3008(27) 0.8081(12)
C3 C 0.71904(12) -0.0690(2) 1.00232(8)
C4 C 0.81873(12) -0.0534(2) 1.02760(10)
H5 H 0.8718(15) -0.1019(25) 0.9954(10)
C5 C 0.83890(14) 0.0208(2) 1.09983(11)
H6 H 0.9074(19) 0.0279(26) 1.1211(13)
C6 C 0.75856(13) 0.0772(2) 1.14479(10)
H7 H 0.7685(15) 0.1188(26) 1.1965(12)
C7 C 0.66112(13) 0.0639(2) 1.11545(9)
H8 H 0.6054(14) 0.1084(22) 1.1453(10)
O1D O 0.47047(8) 0.21567(14) 1.05382(7)
N1D N 0.38361(10) 0.2303(2) 1.09204(8)
C1D C 0.29879(11) 0.1622(2) 1.06997(10)
H1D H 0.2421(15) 0.1833(24) 1.1058(10)
C3D C 0.28096(12) 0.0690(2) 0.99768(8)
N2D N 0.35984(10) 0.00564(14) 0.95463(8)
O2D O 0.42696(10) -0.1768(2) 1.10504(7)
N3D N 0.41330(10) -0.1493(2) 1.17703(8)
O3D O 0.45095(12) -0.0232(2) 1.20973(8)
O4D O 0.35912(11) -0.2501(2) 1.21493(8)
C7D C 0.33888(13) -0.0639(2) 0.88455(9)
C6D C 0.24144(13) -0.0772(2) 0.85521(10)
C5D C 0.16110(14) -0.0208(2) 0.90017(11)
C4D C 0.18127(12) 0.0534(2) 0.97240(10)
H5D H 0.1282(15) 0.1019(25) 1.0046(10)
H6D H 0.0926(19) -0.0279(26) 0.8789(13)
H7D H 0.2315(15) -0.1188(26) 0.8035(12)
H8D H 0.3946(14) -0.1084(22) 0.8547(10)
C2D C 0.3908(2) 0.3421(2) 1.16137(11)
H2D H 0.4051(17) 0.4617(29) 1.1428(13)
H3D H 0.3279(18) 0.3473(27) 1.1858(13)
H4D H 0.4448(17) 0.3008(27) 1.1919(12)
Cu1 Cu 0.5000 1.0000 0.0000
O1 O 0.52953(8) 0.78433(14) -0.05382(7)
O2 O 0.57304(10) 1.1768(2) -0.10504(7)
O3 O 0.54905(12) 1.0232(2) -0.20973(8)
O4 O 0.64088(11) 1.2501(2) -0.21493(8)
N1 N 0.61639(10) 0.7697(2) -0.09204(8)
N2 N 0.64016(10) 0.99436(14) 0.04537(8)
N3 N 0.58670(10) 1.1493(2) -0.17703(8)
C1 C 0.70121(11) 0.8378(2) -0.06997(10)
H1 H 0.7579(15) 0.8167(24) -0.1058(10)
C2 C 0.6092(2) 0.6579(2) -0.16137(11)
H2 H 0.5949(17) 0.5383(29) -0.1428(13)
H3 H 0.6721(18) 0.6527(27) -0.1858(13)
H4 H 0.5552(17) 0.6992(27) -0.1919(12)
C3 C 0.71904(12) 0.9310(2) 0.00232(8)
C4 C 0.81873(12) 0.9466(2) 0.02760(10)
H5 H 0.8718(15) 0.8981(25) -0.0046(10)
C5 C 0.83890(14) 1.0208(2) 0.09983(11)
H6 H 0.9074(19) 1.0279(26) 0.1211(13)
C6 C 0.75856(13) 1.0772(2) 0.14479(10)
H7 H 0.7685(15) 1.1188(26) 0.1965(12)
C7 C 0.66112(13) 1.0639(2) 0.11545(9)
H8 H 0.6054(14) 1.1084(22) 0.1453(10)
O1D O 0.47047(8) 1.21567(14) 0.05382(7)
N1D N 0.38361(10) 1.2303(2) 0.09204(8)
C1D C 0.29879(11) 1.1622(2) 0.06997(10)
H1D H 0.2421(15) 1.1833(24) 0.1058(10)
C3D C 0.28096(12) 1.0690(2) -0.00232(8)
N2D N 0.35984(10) 1.00564(14) -0.04537(8)
O2D O 0.42696(10) 0.8232(2) 0.10504(7)
N3D N 0.41330(10) 0.8507(2) 0.17703(8)
O3D O 0.45095(12) 0.9768(2) 0.20973(8)
O4D O 0.35912(11) 0.7499(2) 0.21493(8)
C7D C 0.33888(13) 0.9361(2) -0.11545(9)
C6D C 0.24144(13) 0.9228(2) -0.14479(10)
C5D C 0.16110(14) 0.9792(2) -0.09983(11)
C4D C 0.18127(12) 1.0534(2) -0.02760(10)
H5D H 0.1282(15) 1.1019(25) 0.0046(10)
H6D H 0.0926(19) 0.9721(26) -0.1211(13)
H7D H 0.2315(15) 0.8812(26) -0.1965(12)
H8D H 0.3946(14) 0.8916(22) -0.1453(10)
C2D C 0.3908(2) 1.3421(2) 0.16137(11)
H2D H 0.4051(17) 1.4617(29) 0.1428(13)
H3D H 0.3279(18) 1.3473(27) 0.1858(13)
H4D H 0.4448(17) 1.3008(27) 0.1919(12)
Cu1 Cu 0.5000 1.0000 1.0000
O1 O 0.52953(8) 0.78433(14) 0.94618(7)
O2 O 0.57304(10) 1.1768(2) 0.89496(7)
O3 O 0.54905(12) 1.0232(2) 0.79027(8)
O4 O 0.64088(11) 1.2501(2) 0.78507(8)
N1 N 0.61639(10) 0.7697(2) 0.90796(8)
N2 N 0.64016(10) 0.99436(14) 1.04537(8)
N3 N 0.58670(10) 1.1493(2) 0.82297(8)
C1 C 0.70121(11) 0.8378(2) 0.93003(10)
H1 H 0.7579(15) 0.8167(24) 0.8942(10)
C2 C 0.6092(2) 0.6579(2) 0.83863(11)
H2 H 0.5949(17) 0.5383(29) 0.8572(13)
H3 H 0.6721(18) 0.6527(27) 0.8142(13)
H4 H 0.5552(17) 0.6992(27) 0.8081(12)
C3 C 0.71904(12) 0.9310(2) 1.00232(8)
C4 C 0.81873(12) 0.9466(2) 1.02760(10)
H5 H 0.8718(15) 0.8981(25) 0.9954(10)
C5 C 0.83890(14) 1.0208(2) 1.09983(11)
H6 H 0.9074(19) 1.0279(26) 1.1211(13)
C6 C 0.75856(13) 1.0772(2) 1.14479(10)
H7 H 0.7685(15) 1.1188(26) 1.1965(12)
C7 C 0.66112(13) 1.0639(2) 1.11545(9)
H8 H 0.6054(14) 1.1084(22) 1.1453(10)
O1D O 0.47047(8) 1.21567(14) 1.05382(7)
N1D N 0.38361(10) 1.2303(2) 1.09204(8)
C1D C 0.29879(11) 1.1622(2) 1.06997(10)
H1D H 0.2421(15) 1.1833(24) 1.1058(10)
C3D C 0.28096(12) 1.0690(2) 0.99768(8)
N2D N 0.35984(10) 1.00564(14) 0.95463(8)
O2D O 0.42696(10) 0.8232(2) 1.10504(7)
N3D N 0.41330(10) 0.8507(2) 1.17703(8)
O3D O 0.45095(12) 0.9768(2) 1.20973(8)
O4D O 0.35912(11) 0.7499(2) 1.21493(8)
C7D C 0.33888(13) 0.9361(2) 0.88455(9)
C6D C 0.24144(13) 0.9228(2) 0.85521(10)
C5D C 0.16110(14) 0.9792(2) 0.90017(11)
C4D C 0.18127(12) 1.0534(2) 0.97240(10)
H5D H 0.1282(15) 1.1019(25) 1.0046(10)
H6D H 0.0926(19) 0.9721(26) 0.8789(13)
H7D H 0.2315(15) 0.8812(26) 0.8035(12)
H8D H 0.3946(14) 0.8916(22) 0.8547(10)
C2D C 0.3908(2) 1.3421(2) 1.16137(11)
H2D H 0.4051(17) 1.4617(29) 1.1428(13)
H3D H 0.3279(18) 1.3473(27) 1.1858(13)
H4D H 0.4448(17) 1.3008(27) 1.1919(12)
Cu1 Cu 0.0000 0.5000 0.0000
O1 O 0.02953(8) 0.71567(14) 0.05382(7)
O2 O 0.07304(10) 0.3232(2) 0.10504(7)
O3 O 0.04905(12) 0.4768(2) 0.20973(8)
O4 O 0.14088(11) 0.2499(2) 0.21493(8)
N1 N 0.11639(10) 0.7303(2) 0.09204(8)
N2 N 0.14016(10) 0.50564(14) -0.04537(8)
N3 N 0.08670(10) 0.3507(2) 0.17703(8)
C1 C 0.20121(11) 0.6622(2) 0.06997(10)
H1 H 0.2579(15) 0.6833(24) 0.1058(10)
C2 C 0.1092(2) 0.8421(2) 0.16137(11)
H2 H 0.0949(17) 0.9617(29) 0.1428(13)
H3 H 0.1721(18) 0.8473(27) 0.1858(13)
H4 H 0.0552(17) 0.8008(27) 0.1919(12)
C3 C 0.21904(12) 0.5690(2) -0.00232(8)
C4 C 0.31873(12) 0.5534(2) -0.02760(10)
H5 H 0.3718(15) 0.6019(25) 0.0046(10)
C5 C 0.33890(14) 0.4792(2) -0.09983(11)
H6 H 0.4074(19) 0.4721(26) -0.1211(13)
C6 C 0.25856(13) 0.4228(2) -0.14479(10)
H7 H 0.2685(15) 0.3812(26) -0.1965(12)
C7 C 0.16112(13) 0.4361(2) -0.11545(9)
H8 H 0.1054(14) 0.3916(22) -0.1453(10)
O1D O -0.02953(8) 0.28433(14) -0.05382(7)
N1D N -0.11639(10) 0.2697(2) -0.09204(8)
C1D C -0.20121(11) 0.3378(2) -0.06997(10)
H1D H -0.2579(15) 0.3167(24) -0.1058(10)
C3D C -0.21904(12) 0.4310(2) 0.00232(8)
N2D N -0.14016(10) 0.49436(14) 0.04537(8)
O2D O -0.07304(10) 0.6768(2) -0.10504(7)
N3D N -0.08670(10) 0.6493(2) -0.17703(8)
O3D O -0.04905(12) 0.5232(2) -0.20973(8)
O4D O -0.14088(11) 0.7501(2) -0.21493(8)
C7D C -0.16112(13) 0.5639(2) 0.11545(9)
C6D C -0.25856(13) 0.5772(2) 0.14479(10)
C5D C -0.33890(14) 0.5208(2) 0.09983(11)
C4D C -0.31873(12) 0.4466(2) 0.02760(10)
H5D H -0.3718(15) 0.3981(25) -0.0046(10)
H6D H -0.4074(19) 0.5279(26) 0.1211(13)
H7D H -0.2685(15) 0.6188(26) 0.1965(12)
H8D H -0.1054(14) 0.6084(22) 0.1453(10)
C2D C -0.1092(2) 0.1579(2) -0.16137(11)
H2D H -0.0949(17) 0.0383(29) -0.1428(13)
H3D H -0.1721(18) 0.1527(27) -0.1858(13)
H4D H -0.0552(17) 0.1992(27) -0.1919(12)
Cu1 Cu 0.0000 0.5000 1.0000
O1 O 0.02953(8) 0.71567(14) 1.05382(7)
O2 O 0.07304(10) 0.3232(2) 1.10504(7)
O3 O 0.04905(12) 0.4768(2) 1.20973(8)
O4 O 0.14088(11) 0.2499(2) 1.21493(8)
N1 N 0.11639(10) 0.7303(2) 1.09204(8)
N2 N 0.14016(10) 0.50564(14) 0.95463(8)
N3 N 0.08670(10) 0.3507(2) 1.17703(8)
C1 C 0.20121(11) 0.6622(2) 1.06997(10)
H1 H 0.2579(15) 0.6833(24) 1.1058(10)
C2 C 0.1092(2) 0.8421(2) 1.16137(11)
H2 H 0.0949(17) 0.9617(29) 1.1428(13)
H3 H 0.1721(18) 0.8473(27) 1.1858(13)
H4 H 0.0552(17) 0.8008(27) 1.1919(12)
C3 C 0.21904(12) 0.5690(2) 0.99768(8)
C4 C 0.31873(12) 0.5534(2) 0.97240(10)
H5 H 0.3718(15) 0.6019(25) 1.0046(10)
C5 C 0.33890(14) 0.4792(2) 0.90017(11)
H6 H 0.4074(19) 0.4721(26) 0.8789(13)
C6 C 0.25856(13) 0.4228(2) 0.85521(10)
H7 H 0.2685(15) 0.3812(26) 0.8035(12)
C7 C 0.16112(13) 0.4361(2) 0.88455(9)
H8 H 0.1054(14) 0.3916(22) 0.8547(10)
O1D O -0.02953(8) 0.28433(14) 0.94618(7)
N1D N -0.11639(10) 0.2697(2) 0.90796(8)
C1D C -0.20121(11) 0.3378(2) 0.93003(10)
H1D H -0.2579(15) 0.3167(24) 0.8942(10)
C3D C -0.21904(12) 0.4310(2) 1.00232(8)
N2D N -0.14016(10) 0.49436(14) 1.04537(8)
O2D O -0.07304(10) 0.6768(2) 0.89496(7)
N3D N -0.08670(10) 0.6493(2) 0.82297(8)
O3D O -0.04905(12) 0.5232(2) 0.79027(8)
O4D O -0.14088(11) 0.7501(2) 0.78507(8)
C7D C -0.16112(13) 0.5639(2) 1.11545(9)
C6D C -0.25856(13) 0.5772(2) 1.14479(10)
C5D C -0.33890(14) 0.5208(2) 1.09983(11)
C4D C -0.31873(12) 0.4466(2) 1.02760(10)
H5D H -0.3718(15) 0.3981(25) 0.9954(10)
H6D H -0.4074(19) 0.5279(26) 1.1211(13)
H7D H -0.2685(15) 0.6188(26) 1.1965(12)
H8D H -0.1054(14) 0.6084(22) 1.1453(10)
C2D C -0.1092(2) 0.1579(2) 0.83863(11)
H2D H -0.0949(17) 0.0383(29) 0.8572(13)
H3D H -0.1721(18) 0.1527(27) 0.8142(13)
H4D H -0.0552(17) 0.1992(27) 0.8081(12)
Cu1 Cu 1.0000 0.5000 0.0000
O1 O 1.02953(8) 0.71567(14) 0.05382(7)
O2 O 1.07304(10) 0.3232(2) 0.10504(7)
O3 O 1.04905(12) 0.4768(2) 0.20973(8)
O4 O 1.14088(11) 0.2499(2) 0.21493(8)
N1 N 1.11639(10) 0.7303(2) 0.09204(8)
N2 N 1.14016(10) 0.50564(14) -0.04537(8)
N3 N 1.08670(10) 0.3507(2) 0.17703(8)
C1 C 1.20121(11) 0.6622(2) 0.06997(10)
H1 H 1.2579(15) 0.6833(24) 0.1058(10)
C2 C 1.1092(2) 0.8421(2) 0.16137(11)
H2 H 1.0949(17) 0.9617(29) 0.1428(13)
H3 H 1.1721(18) 0.8473(27) 0.1858(13)
H4 H 1.0552(17) 0.8008(27) 0.1919(12)
C3 C 1.21904(12) 0.5690(2) -0.00232(8)
C4 C 1.31873(12) 0.5534(2) -0.02760(10)
H5 H 1.3718(15) 0.6019(25) 0.0046(10)
C5 C 1.33890(14) 0.4792(2) -0.09983(11)
H6 H 1.4074(19) 0.4721(26) -0.1211(13)
C6 C 1.25856(13) 0.4228(2) -0.14479(10)
H7 H 1.2685(15) 0.3812(26) -0.1965(12)
C7 C 1.16112(13) 0.4361(2) -0.11545(9)
H8 H 1.1054(14) 0.3916(22) -0.1453(10)
O1D O 0.97047(8) 0.28433(14) -0.05382(7)
N1D N 0.88361(10) 0.2697(2) -0.09204(8)
C1D C 0.79879(11) 0.3378(2) -0.06997(10)
H1D H 0.7421(15) 0.3167(24) -0.1058(10)
C3D C 0.78096(12) 0.4310(2) 0.00232(8)
N2D N 0.85984(10) 0.49436(14) 0.04537(8)
O2D O 0.92696(10) 0.6768(2) -0.10504(7)
N3D N 0.91330(10) 0.6493(2) -0.17703(8)
O3D O 0.95095(12) 0.5232(2) -0.20973(8)
O4D O 0.85912(11) 0.7501(2) -0.21493(8)
C7D C 0.83888(13) 0.5639(2) 0.11545(9)
C6D C 0.74144(13) 0.5772(2) 0.14479(10)
C5D C 0.66110(14) 0.5208(2) 0.09983(11)
C4D C 0.68127(12) 0.4466(2) 0.02760(10)
H5D H 0.6282(15) 0.3981(25) -0.0046(10)
H6D H 0.5926(19) 0.5279(26) 0.1211(13)
H7D H 0.7315(15) 0.6188(26) 0.1965(12)
H8D H 0.8946(14) 0.6084(22) 0.1453(10)
C2D C 0.8908(2) 0.1579(2) -0.16137(11)
H2D H 0.9051(17) 0.0383(29) -0.1428(13)
H3D H 0.8279(18) 0.1527(27) -0.1858(13)
H4D H 0.9448(17) 0.1992(27) -0.1919(12)
Cu1 Cu 1.0000 0.5000 1.0000
O1 O 1.02953(8) 0.71567(14) 1.05382(7)
O2 O 1.07304(10) 0.3232(2) 1.10504(7)
O3 O 1.04905(12) 0.4768(2) 1.20973(8)
O4 O 1.14088(11) 0.2499(2) 1.21493(8)
N1 N 1.11639(10) 0.7303(2) 1.09204(8)
N2 N 1.14016(10) 0.50564(14) 0.95463(8)
N3 N 1.08670(10) 0.3507(2) 1.17703(8)
C1 C 1.20121(11) 0.6622(2) 1.06997(10)
H1 H 1.2579(15) 0.6833(24) 1.1058(10)
C2 C 1.1092(2) 0.8421(2) 1.16137(11)
H2 H 1.0949(17) 0.9617(29) 1.1428(13)
H3 H 1.1721(18) 0.8473(27) 1.1858(13)
H4 H 1.0552(17) 0.8008(27) 1.1919(12)
C3 C 1.21904(12) 0.5690(2) 0.99768(8)
C4 C 1.31873(12) 0.5534(2) 0.97240(10)
H5 H 1.3718(15) 0.6019(25) 1.0046(10)
C5 C 1.33890(14) 0.4792(2) 0.90017(11)
H6 H 1.4074(19) 0.4721(26) 0.8789(13)
C6 C 1.25856(13) 0.4228(2) 0.85521(10)
H7 H 1.2685(15) 0.3812(26) 0.8035(12)
C7 C 1.16112(13) 0.4361(2) 0.88455(9)
H8 H 1.1054(14) 0.3916(22) 0.8547(10)
O1D O 0.97047(8) 0.28433(14) 0.94618(7)
N1D N 0.88361(10) 0.2697(2) 0.90796(8)
C1D C 0.79879(11) 0.3378(2) 0.93003(10)
H1D H 0.7421(15) 0.3167(24) 0.8942(10)
C3D C 0.78096(12) 0.4310(2) 1.00232(8)
N2D N 0.85984(10) 0.49436(14) 1.04537(8)
O2D O 0.92696(10) 0.6768(2) 0.89496(7)
N3D N 0.91330(10) 0.6493(2) 0.82297(8)
O3D O 0.95095(12) 0.5232(2) 0.79027(8)
O4D O 0.85912(11) 0.7501(2) 0.78507(8)
C7D C 0.83888(13) 0.5639(2) 1.11545(9)
C6D C 0.74144(13) 0.5772(2) 1.14479(10)
C5D C 0.66110(14) 0.5208(2) 1.09983(11)
C4D C 0.68127(12) 0.4466(2) 1.02760(10)
H5D H 0.6282(15) 0.3981(25) 0.9954(10)
H6D H 0.5926(19) 0.5279(26) 1.1211(13)
H7D H 0.7315(15) 0.6188(26) 1.1965(12)
H8D H 0.8946(14) 0.6084(22) 1.1453(10)
C2D C 0.8908(2) 0.1579(2) 0.83863(11)
H2D H 0.9051(17) 0.0383(29) 0.8572(13)
H3D H 0.8279(18) 0.1527(27) 0.8142(13)
H4D H 0.9448(17) 0.1992(27) 0.8081(12)
Cu1 Cu 0.5000 0.5000 0.5000
O1 O 0.47047(8) 0.28433(14) 0.55382(7)
O2 O 0.42696(10) 0.6768(2) 0.60504(7)
O3 O 0.45095(12) 0.5232(2) 0.70973(8)
O4 O 0.35912(11) 0.7501(2) 0.71493(8)
N1 N 0.38361(10) 0.2697(2) 0.59204(8)
N2 N 0.35984(10) 0.49436(14) 0.45463(8)
N3 N 0.41330(10) 0.6493(2) 0.67703(8)
C1 C 0.29879(11) 0.3378(2) 0.56997(10)
H1 H 0.2421(15) 0.3167(24) 0.6058(10)
C2 C 0.3908(2) 0.1579(2) 0.66137(11)
H2 H 0.4051(17) 0.0383(29) 0.6428(13)
H3 H 0.3279(18) 0.1527(27) 0.6858(13)
H4 H 0.4448(17) 0.1992(27) 0.6919(12)
C3 C 0.28096(12) 0.4310(2) 0.49768(8)
C4 C 0.18127(12) 0.4466(2) 0.47240(10)
H5 H 0.1282(15) 0.3981(25) 0.5046(10)
C5 C 0.16110(14) 0.5208(2) 0.40017(11)
H6 H 0.0926(19) 0.5279(26) 0.3789(13)
C6 C 0.24144(13) 0.5772(2) 0.35521(10)
H7 H 0.2315(15) 0.6188(26) 0.3035(12)
C7 C 0.33888(13) 0.5639(2) 0.38455(9)
H8 H 0.3946(14) 0.6084(22) 0.3547(10)
O1D O 0.52953(8) 0.71567(14) 0.44618(7)
N1D N 0.61639(10) 0.7303(2) 0.40796(8)
C1D C 0.70121(11) 0.6622(2) 0.43003(10)
H1D H 0.7579(15) 0.6833(24) 0.3942(10)
C3D C 0.71904(12) 0.5690(2) 0.50232(8)
N2D N 0.64016(10) 0.50564(14) 0.54537(8)
O2D O 0.57304(10) 0.3232(2) 0.39496(7)
N3D N 0.58670(10) 0.3507(2) 0.32297(8)
O3D O 0.54905(12) 0.4768(2) 0.29027(8)
O4D O 0.64088(11) 0.2499(2) 0.28507(8)
C7D C 0.66112(13) 0.4361(2) 0.61545(9)
C6D C 0.75856(13) 0.4228(2) 0.64479(10)
C5D C 0.83890(14) 0.4792(2) 0.59983(11)
C4D C 0.81873(12) 0.5534(2) 0.52760(10)
H5D H 0.8718(15) 0.6019(25) 0.4954(10)
H6D H 0.9074(19) 0.4721(26) 0.6211(13)
H7D H 0.7685(15) 0.3812(26) 0.6965(12)
H8D H 0.6054(14) 0.3916(22) 0.6453(10)
C2D C 0.6092(2) 0.8421(2) 0.33863(11)
H2D H 0.5949(17) 0.9617(29) 0.3572(13)
H3D H 0.6721(18) 0.8473(27) 0.3142(13)
H4D H 0.5552(17) 0.8008(27) 0.3081(12)

#END
