./ADAJEV_from_xyz.cif_generated_by_CrystalShift
_symmetry_cell_setting triclinic
_symmetry_space_group_name_H-M 'P 1'
loop_
_symmetry_equiv_pos_site_id
_symmetry_equiv_pos_as_xyz
1 x,y,z
_cell_length_a 29.875000
_cell_length_b 6.027000
_cell_length_c 7.256000
_cell_angle_alpha 90.000000
_cell_angle_beta 90.000000
_cell_angle_gamma 90.000000
_cell_volume 1306.490871
loop_
_atom_site_label
_atom_site_type_symbol
_atom_site_fract_x
_atom_site_fract_y
_atom_site_fract_z
O1 O 0.171140 -0.126600 0.116000
O2 O 0.000000 0.439000 -0.102500
C3 C 0.123080 0.172900 0.045600
C4 C 0.119220 0.384500 -0.029200
H5 H 0.144700 0.470400 -0.047200
C6 C 0.077760 0.468000 -0.076800
H7 H 0.075400 0.609100 -0.127700
C8 C 0.039870 0.341300 -0.048700
C9 C 0.041970 0.127200 0.026200
C10 C 0.083960 0.046500 0.072100
H11 H 0.086400 -0.095200 0.121900
C12 C 0.167320 0.071500 0.091100
C13 C 0.207510 0.221400 0.104500
H14 H 0.233700 0.134200 0.130400
H15 H 0.203000 0.327000 0.201700
H16 H 0.211500 0.298400 -0.010200
C17 C 0.000000 -0.011100 0.045800
H18 H 0.000000 -0.082600 0.165600
H19 H -0.000000 -0.126400 -0.047500
O20 O -0.171140 -0.126600 0.116000
C21 C -0.123080 0.172900 0.045600
C22 C -0.119220 0.384500 -0.029200
H23 H -0.144700 0.470400 -0.047200
C24 C -0.077760 0.468000 -0.076800
H25 H -0.075400 0.609100 -0.127700
C26 C -0.039870 0.341300 -0.048700
C27 C -0.041970 0.127200 0.026200
C28 C -0.083960 0.046500 0.072100
H29 H -0.086400 -0.095200 0.121900
C30 C -0.167320 0.071500 0.091100
C31 C -0.207510 0.221400 0.104500
H32 H -0.233700 0.134200 0.130400
H33 H -0.203000 0.327000 0.201700
H34 H -0.211500 0.298400 -0.010200
O35 O 1.171140 -0.126600 0.116000
O36 O 1.000000 0.439000 -0.102500
C37 C 1.123080 0.172900 0.045600
C38 C 1.119220 0.384500 -0.029200
H39 H 1.144700 0.470400 -0.047200
C40 C 1.077760 0.468000 -0.076800
H41 H 1.075400 0.609100 -0.127700
C42 C 1.039870 0.341300 -0.048700
C43 C 1.041970 0.127200 0.026200
C44 C 1.083960 0.046500 0.072100
H45 H 1.086400 -0.095200 0.121900
C46 C 1.167320 0.071500 0.091100
C47 C 1.207510 0.221400 0.104500
H48 H 1.233700 0.134200 0.130400
H49 H 1.203000 0.327000 0.201700
H50 H 1.211500 0.298400 -0.010200
C51 C 1.000000 -0.011100 0.045800
H52 H 1.000000 -0.082600 0.165600
H53 H 1.000000 -0.126400 -0.047500
O54 O 0.828860 -0.126600 0.116000
C55 C 0.876920 0.172900 0.045600
C56 C 0.880780 0.384500 -0.029200
H57 H 0.855300 0.470400 -0.047200
C58 C 0.922240 0.468000 -0.076800
H59 H 0.924600 0.609100 -0.127700
C60 C 0.960130 0.341300 -0.048700
C61 C 0.958030 0.127200 0.026200
C62 C 0.916040 0.046500 0.072100
H63 H 0.913600 -0.095200 0.121900
C64 C 0.832680 0.071500 0.091100
C65 C 0.792490 0.221400 0.104500
H66 H 0.766300 0.134200 0.130400
H67 H 0.797000 0.327000 0.201700
H68 H 0.788500 0.298400 -0.010200
O69 O -0.171140 1.126600 0.616000
O70 O 0.000000 0.561000 0.397500
C71 C -0.123080 0.827100 0.545600
C72 C -0.119220 0.615500 0.470800
H73 H -0.144700 0.529600 0.452800
C74 C -0.077760 0.532000 0.423200
H75 H -0.075400 0.390900 0.372300
C76 C -0.039870 0.658700 0.451300
C77 C -0.041970 0.872800 0.526200
C78 C -0.083960 0.953500 0.572100
H79 H -0.086400 1.095200 0.621900
C80 C -0.167320 0.928500 0.591100
C81 C -0.207510 0.778600 0.604500
H82 H -0.233700 0.865800 0.630400
H83 H -0.203000 0.673000 0.701700
H84 H -0.211500 0.701600 0.489800
C85 C 0.000000 1.011100 0.545800
H86 H 0.000000 1.082600 0.665600
H87 H 0.000000 1.126400 0.452500
O88 O 0.171140 1.126600 0.616000
C89 C 0.123080 0.827100 0.545600
C90 C 0.119220 0.615500 0.470800
H91 H 0.144700 0.529600 0.452800
C92 C 0.077760 0.532000 0.423200
H93 H 0.075400 0.390900 0.372300
C94 C 0.039870 0.658700 0.451300
C95 C 0.041970 0.872800 0.526200
C96 C 0.083960 0.953500 0.572100
H97 H 0.086400 1.095200 0.621900
C98 C 0.167320 0.928500 0.591100
C99 C 0.207510 0.778600 0.604500
H100 H 0.233700 0.865800 0.630400
H101 H 0.203000 0.673000 0.701700
H102 H 0.211500 0.701600 0.489800
O103 O 0.828860 1.126600 0.616000
O104 O 1.000000 0.561000 0.397500
C105 C 0.876920 0.827100 0.545600
C106 C 0.880780 0.615500 0.470800
H107 H 0.855300 0.529600 0.452800
C108 C 0.922240 0.532000 0.423200
H109 H 0.924600 0.390900 0.372300
C110 C 0.960130 0.658700 0.451300
C111 C 0.958030 0.872800 0.526200
C112 C 0.916040 0.953500 0.572100
H113 H 0.913600 1.095200 0.621900
C114 C 0.832680 0.928500 0.591100
C115 C 0.792490 0.778600 0.604500
H116 H 0.766300 0.865800 0.630400
H117 H 0.797000 0.673000 0.701700
H118 H 0.788500 0.701600 0.489800
C119 C 1.000000 1.011100 0.545800
H120 H 1.000000 1.082600 0.665600
H121 H 1.000000 1.126400 0.452500
O122 O 1.171140 1.126600 0.616000
C123 C 1.123080 0.827100 0.545600
C124 C 1.119220 0.615500 0.470800
H125 H 1.144700 0.529600 0.452800
C126 C 1.077760 0.532000 0.423200
H127 H 1.075400 0.390900 0.372300
C128 C 1.039870 0.658700 0.451300
C129 C 1.041970 0.872800 0.526200
C130 C 1.083960 0.953500 0.572100
H131 H 1.086400 1.095200 0.621900
C132 C 1.167320 0.928500 0.591100
C133 C 1.207510 0.778600 0.604500
H134 H 1.233700 0.865800 0.630400
H135 H 1.203000 0.673000 0.701700
H136 H 1.211500 0.701600 0.489800
O137 O 0.671140 0.373400 0.116000
O138 O 0.500000 0.939000 -0.102500
C139 C 0.623080 0.672900 0.045600
C140 C 0.619220 0.884500 -0.029200
H141 H 0.644700 0.970400 -0.047200
C142 C 0.577760 0.968000 -0.076800
H143 H 0.575400 1.109100 -0.127700
C144 C 0.539870 0.841300 -0.048700
C145 C 0.541970 0.627200 0.026200
C146 C 0.583960 0.546500 0.072100
H147 H 0.586400 0.404800 0.121900
C148 C 0.667320 0.571500 0.091100
C149 C 0.707510 0.721400 0.104500
H150 H 0.733700 0.634200 0.130400
H151 H 0.703000 0.827000 0.201700
H152 H 0.711500 0.798400 -0.010200
C153 C 0.500000 0.488900 0.045800
H154 H 0.500000 0.417400 0.165600
H155 H 0.500000 0.373600 -0.047500
O156 O 0.328860 0.373400 0.116000
C157 C 0.376920 0.672900 0.045600
C158 C 0.380780 0.884500 -0.029200
H159 H 0.355300 0.970400 -0.047200
C160 C 0.422240 0.968000 -0.076800
H161 H 0.424600 1.109100 -0.127700
C162 C 0.460130 0.841300 -0.048700
C163 C 0.458030 0.627200 0.026200
C164 C 0.416040 0.546500 0.072100
H165 H 0.413600 0.404800 0.121900
C166 C 0.332680 0.571500 0.091100
C167 C 0.292490 0.721400 0.104500
H168 H 0.266300 0.634200 0.130400
H169 H 0.297000 0.827000 0.201700
H170 H 0.288500 0.798400 -0.010200
O171 O 0.328860 0.626600 0.616000
O172 O 0.500000 0.061000 0.397500
C173 C 0.376920 0.327100 0.545600
C174 C 0.380780 0.115500 0.470800
H175 H 0.355300 0.029600 0.452800
C176 C 0.422240 0.032000 0.423200
H177 H 0.424600 -0.109100 0.372300
C178 C 0.460130 0.158700 0.451300
C179 C 0.458030 0.372800 0.526200
C180 C 0.416040 0.453500 0.572100
H181 H 0.413600 0.595200 0.621900
C182 C 0.332680 0.428500 0.591100
C183 C 0.292490 0.278600 0.604500
H184 H 0.266300 0.365800 0.630400
H185 H 0.297000 0.173000 0.701700
H186 H 0.288500 0.201600 0.489800
C187 C 0.500000 0.511100 0.545800
H188 H 0.500000 0.582600 0.665600
H189 H 0.500000 0.626400 0.452500
O190 O 0.671140 0.626600 0.616000
C191 C 0.623080 0.327100 0.545600
C192 C 0.619220 0.115500 0.470800
H193 H 0.644700 0.029600 0.452800
C194 C 0.577760 0.032000 0.423200
H195 H 0.575400 -0.109100 0.372300
C196 C 0.539870 0.158700 0.451300
C197 C 0.541970 0.372800 0.526200
C198 C 0.583960 0.453500 0.572100
H199 H 0.586400 0.595200 0.621900
C200 C 0.667320 0.428500 0.591100
C201 C 0.707510 0.278600 0.604500
H202 H 0.733700 0.365800 0.630400
H203 H 0.703000 0.173000 0.701700
H204 H 0.711500 0.201600 0.489800

#END
