./ADEMOM_from_xyz.cif_generated_by_CrystalShift
_symmetry_cell_setting triclinic
_symmetry_space_group_name_H-M 'P 1'
loop_
_symmetry_equiv_pos_site_id
_symmetry_equiv_pos_as_xyz
1 x,y,z
_cell_length_a 11.587000
_cell_length_b 13.756000
_cell_length_c 8.433000
_cell_angle_alpha 90.000000
_cell_angle_beta 95.970000
_cell_angle_gamma 90.000000
_cell_volume 1336.852484
loop_
_atom_site_label
_atom_site_type_symbol
_atom_site_fract_x
_atom_site_fract_y
_atom_site_fract_z
Br1 Br 0.347780 0.001960 0.109740
N2 N 0.323060 0.223860 0.119000
H3 H 0.309400 0.195500 0.028100
O4 O 0.262330 0.343680 0.275100
C5 C 0.030900 0.165400 0.056800
H6 H 0.087500 0.131000 0.009900
C7 C -0.063800 0.115800 0.104200
H8 H -0.070100 0.048900 0.089100
C9 C -0.147400 0.165000 0.172800
H10 H -0.211700 0.132200 0.203500
C11 C -0.136600 0.261600 0.195900
H12 H -0.193400 0.295000 0.244000
C13 C -0.042000 0.312200 0.149100
H14 H -0.036200 0.378800 0.166300
C15 C 0.043500 0.264200 0.077300
C16 C 0.149400 0.314070 0.025100
H17 H 0.167900 0.282700 -0.073500
C18 C 0.136400 0.422500 -0.007900
H19 H 0.068300 0.433800 -0.080500
H20 H 0.203500 0.445800 -0.054100
H21 H 0.129400 0.456300 0.090200
C22 C 0.251000 0.296790 0.151500
C23 C 0.491000 0.253800 0.311900
H24 H 0.476200 0.320200 0.306100
C25 C 0.584500 0.220100 0.410200
H26 H 0.631400 0.263500 0.471900
C27 C 0.608400 0.123000 0.417200
H28 H 0.671300 0.100300 0.484700
C29 C 0.540400 0.058900 0.325700
H30 H 0.558500 -0.007000 0.327700
C31 C 0.444700 0.092500 0.230000
C32 C 0.418600 0.190260 0.221200
Br33 Br 0.652220 0.501960 0.390260
N34 N 0.676940 0.723860 0.381000
H35 H 0.690600 0.695500 0.471900
O36 O 0.737670 0.843680 0.224900
C37 C 0.969100 0.665400 0.443200
H38 H 0.912500 0.631000 0.490100
C39 C 1.063800 0.615800 0.395800
H40 H 1.070100 0.548900 0.410900
C41 C 1.147400 0.665000 0.327200
H42 H 1.211700 0.632200 0.296500
C43 C 1.136600 0.761600 0.304100
H44 H 1.193400 0.795000 0.256000
C45 C 1.042000 0.812200 0.350900
H46 H 1.036200 0.878800 0.333700
C47 C 0.956500 0.764200 0.422700
C48 C 0.850600 0.814070 0.474900
H49 H 0.832100 0.782700 0.573500
C50 C 0.863600 0.922500 0.507900
H51 H 0.931700 0.933800 0.580500
H52 H 0.796500 0.945800 0.554100
H53 H 0.870600 0.956300 0.409800
C54 C 0.749000 0.796790 0.348500
C55 C 0.509000 0.753800 0.188100
H56 H 0.523800 0.820200 0.193900
C57 C 0.415500 0.720100 0.089800
H58 H 0.368600 0.763500 0.028100
C59 C 0.391600 0.623000 0.082800
H60 H 0.328700 0.600300 0.015300
C61 C 0.459600 0.558900 0.174300
H62 H 0.441500 0.493000 0.172300
C63 C 0.555300 0.592500 0.270000
C64 C 0.581400 0.690260 0.278800
Br65 Br 0.652220 0.998040 0.890260
N66 N 0.676940 0.776140 0.881000
H67 H 0.690600 0.804500 0.971900
O68 O 0.737670 0.656320 0.724900
C69 C 0.969100 0.834600 0.943200
H70 H 0.912500 0.869000 0.990100
C71 C 1.063800 0.884200 0.895800
H72 H 1.070100 0.951100 0.910900
C73 C 1.147400 0.835000 0.827200
H74 H 1.211700 0.867800 0.796500
C75 C 1.136600 0.738400 0.804100
H76 H 1.193400 0.705000 0.756000
C77 C 1.042000 0.687800 0.850900
H78 H 1.036200 0.621200 0.833700
C79 C 0.956500 0.735800 0.922700
C80 C 0.850600 0.685930 0.974900
H81 H 0.832100 0.717300 1.073500
C82 C 0.863600 0.577500 1.007900
H83 H 0.931700 0.566200 1.080500
H84 H 0.796500 0.554200 1.054100
H85 H 0.870600 0.543700 0.909800
C86 C 0.749000 0.703210 0.848500
C87 C 0.509000 0.746200 0.688100
H88 H 0.523800 0.679800 0.693900
C89 C 0.415500 0.779900 0.589800
H90 H 0.368600 0.736500 0.528100
C91 C 0.391600 0.877000 0.582800
H92 H 0.328700 0.899700 0.515300
C93 C 0.459600 0.941100 0.674300
H94 H 0.441500 1.007000 0.672300
C95 C 0.555300 0.907500 0.770000
C96 C 0.581400 0.809740 0.778800
Br97 Br 0.347780 0.498040 0.609740
N98 N 0.323060 0.276140 0.619000
H99 H 0.309400 0.304500 0.528100
O100 O 0.262330 0.156320 0.775100
C101 C 0.030900 0.334600 0.556800
H102 H 0.087500 0.369000 0.509900
C103 C -0.063800 0.384200 0.604200
H104 H -0.070100 0.451100 0.589100
C105 C -0.147400 0.335000 0.672800
H106 H -0.211700 0.367800 0.703500
C107 C -0.136600 0.238400 0.695900
H108 H -0.193400 0.205000 0.744000
C109 C -0.042000 0.187800 0.649100
H110 H -0.036200 0.121200 0.666300
C111 C 0.043500 0.235800 0.577300
C112 C 0.149400 0.185930 0.525100
H113 H 0.167900 0.217300 0.426500
C114 C 0.136400 0.077500 0.492100
H115 H 0.068300 0.066200 0.419500
H116 H 0.203500 0.054200 0.445900
H117 H 0.129400 0.043700 0.590200
C118 C 0.251000 0.203210 0.651500
C119 C 0.491000 0.246200 0.811900
H120 H 0.476200 0.179800 0.806100
C121 C 0.584500 0.279900 0.910200
H122 H 0.631400 0.236500 0.971900
C123 C 0.608400 0.377000 0.917200
H124 H 0.671300 0.399700 0.984700
C125 C 0.540400 0.441100 0.825700
H126 H 0.558500 0.507000 0.827700
C127 C 0.444700 0.407500 0.730000
C128 C 0.418600 0.309740 0.721200

#END
