./ADETUZ_from_xyz.cif_generated_by_CrystalShift
_symmetry_cell_setting triclinic
_symmetry_space_group_name_H-M 'P 1'
loop_
_symmetry_equiv_pos_site_id
_symmetry_equiv_pos_as_xyz
1 x,y,z
_cell_length_a 9.644000
_cell_length_b 11.937000
_cell_length_c 17.998000
_cell_angle_alpha 90.000000
_cell_angle_beta 90.691000
_cell_angle_gamma 90.000000
_cell_volume 2071.786771
loop_
_atom_site_label
_atom_site_type_symbol
_atom_site_fract_x
_atom_site_fract_y
_atom_site_fract_z
O1 O 0.130570 0.182070 0.211610
O2 O -0.013900 0.330100 0.079530
O3 O -0.079650 0.486440 0.136810
O4 O 0.412840 0.583610 0.055050
N5 N 0.442800 0.359430 0.077190
H6 H 0.488800 0.409900 0.053900
N7 N 0.293530 0.282790 0.153030
C8 C 0.342300 0.383380 0.124500
C9 C 0.467800 0.240870 0.068440
H10 H 0.563800 0.222500 0.079700
H11 H 0.445800 0.216700 0.018200
C12 C 0.371100 0.186950 0.124080
H13 H 0.309700 0.133400 0.100000
H14 H 0.422900 0.149500 0.163400
C15 C 0.170000 0.272490 0.189690
C16 C 0.089900 0.380390 0.197500
H17 H 0.031800 0.373700 0.241600
C18 C -0.005800 0.393600 0.130500
C19 C -0.175900 0.516500 0.077980
H20 H -0.253200 0.464500 0.076600
H21 H -0.130100 0.514200 0.030300
C22 C -0.224600 0.629000 0.093300
H23 H -0.255800 0.633100 0.143700
H24 H -0.299900 0.647000 0.060100
H25 H -0.150300 0.681300 0.086300
C26 C 0.184200 0.484690 0.208230
H27 H 0.125800 0.551100 0.201300
C28 C 0.240500 0.487720 0.287760
C29 C 0.361300 0.435340 0.310190
H30 H 0.414600 0.398400 0.275100
C31 C 0.405200 0.436400 0.383720
H32 H 0.486500 0.399500 0.397700
C33 C 0.328800 0.491800 0.435950
H34 H 0.357800 0.492800 0.485400
C35 C 0.209300 0.545700 0.414660
H36 H 0.157300 0.583700 0.449800
C37 C 0.165500 0.544000 0.341320
H38 H 0.084300 0.581100 0.327700
C39 C 0.291600 0.485650 0.147060
C40 C 0.336600 0.584820 0.110480
C41 C 0.289900 0.696920 0.138450
C42 C 0.327900 0.732480 0.209500
H43 H 0.378700 0.685000 0.240500
C44 C 0.290800 0.837800 0.234380
H45 H 0.317600 0.861500 0.281600
C46 C 0.214400 0.907200 0.189220
H47 H 0.189100 0.978000 0.205900
C48 C 0.175400 0.872700 0.119680
H49 H 0.122900 0.920000 0.089400
C50 C 0.213500 0.767700 0.093860
H51 H 0.187300 0.745300 0.046300
O52 O 0.869430 -0.317930 0.288390
O53 O 1.013900 -0.169900 0.420470
O54 O 1.079650 -0.013560 0.363190
O55 O 0.587160 0.083610 0.444950
N56 N 0.557200 -0.140570 0.422810
H57 H 0.511200 -0.090100 0.446100
N58 N 0.706470 -0.217210 0.346970
C59 C 0.657700 -0.116620 0.375500
C60 C 0.532200 -0.259130 0.431560
H61 H 0.436200 -0.277500 0.420300
H62 H 0.554200 -0.283300 0.481800
C63 C 0.628900 -0.313050 0.375920
H64 H 0.690300 -0.366600 0.400000
H65 H 0.577100 -0.350500 0.336600
C66 C 0.830000 -0.227510 0.310310
C67 C 0.910100 -0.119610 0.302500
H68 H 0.968200 -0.126300 0.258400
C69 C 1.005800 -0.106400 0.369500
C70 C 1.175900 0.016500 0.422020
H71 H 1.253200 -0.035500 0.423400
H72 H 1.130100 0.014200 0.469700
C73 C 1.224600 0.129000 0.406700
H74 H 1.255800 0.133100 0.356300
H75 H 1.299900 0.147000 0.439900
H76 H 1.150300 0.181300 0.413700
C77 C 0.815800 -0.015310 0.291770
H78 H 0.874200 0.051100 0.298700
C79 C 0.759500 -0.012280 0.212240
C80 C 0.638700 -0.064660 0.189810
H81 H 0.585400 -0.101600 0.224900
C82 C 0.594800 -0.063600 0.116280
H83 H 0.513500 -0.100500 0.102300
C84 C 0.671200 -0.008200 0.064050
H85 H 0.642200 -0.007200 0.014600
C86 C 0.790700 0.045700 0.085340
H87 H 0.842700 0.083700 0.050200
C88 C 0.834500 0.044000 0.158680
H89 H 0.915700 0.081100 0.172300
C90 C 0.708400 -0.014350 0.352940
C91 C 0.663400 0.084820 0.389520
C92 C 0.710100 0.196920 0.361550
C93 C 0.672100 0.232480 0.290500
H94 H 0.621300 0.185000 0.259500
C95 C 0.709200 0.337800 0.265620
H96 H 0.682400 0.361500 0.218400
C97 C 0.785600 0.407200 0.310780
H98 H 0.810900 0.478000 0.294100
C99 C 0.824600 0.372700 0.380320
H100 H 0.877100 0.420000 0.410600
C101 C 0.786500 0.267700 0.406140
H102 H 0.812700 0.245300 0.453700
O103 O 0.869430 0.817930 0.788390
O104 O 1.013900 0.669900 0.920470
O105 O 1.079650 0.513560 0.863190
O106 O 0.587160 0.416390 0.944950
N107 N 0.557200 0.640570 0.922810
H108 H 0.511200 0.590100 0.946100
N109 N 0.706470 0.717210 0.846970
C110 C 0.657700 0.616620 0.875500
C111 C 0.532200 0.759130 0.931560
H112 H 0.436200 0.777500 0.920300
H113 H 0.554200 0.783300 0.981800
C114 C 0.628900 0.813050 0.875920
H115 H 0.690300 0.866600 0.900000
H116 H 0.577100 0.850500 0.836600
C117 C 0.830000 0.727510 0.810310
C118 C 0.910100 0.619610 0.802500
H119 H 0.968200 0.626300 0.758400
C120 C 1.005800 0.606400 0.869500
C121 C 1.175900 0.483500 0.922020
H122 H 1.253200 0.535500 0.923400
H123 H 1.130100 0.485800 0.969700
C124 C 1.224600 0.371000 0.906700
H125 H 1.255800 0.366900 0.856300
H126 H 1.299900 0.353000 0.939900
H127 H 1.150300 0.318700 0.913700
C128 C 0.815800 0.515310 0.791770
H129 H 0.874200 0.448900 0.798700
C130 C 0.759500 0.512280 0.712240
C131 C 0.638700 0.564660 0.689810
H132 H 0.585400 0.601600 0.724900
C133 C 0.594800 0.563600 0.616280
H134 H 0.513500 0.600500 0.602300
C135 C 0.671200 0.508200 0.564050
H136 H 0.642200 0.507200 0.514600
C137 C 0.790700 0.454300 0.585340
H138 H 0.842700 0.416300 0.550200
C139 C 0.834500 0.456000 0.658680
H140 H 0.915700 0.418900 0.672300
C141 C 0.708400 0.514350 0.852940
C142 C 0.663400 0.415180 0.889520
C143 C 0.710100 0.303080 0.861550
C144 C 0.672100 0.267520 0.790500
H145 H 0.621300 0.315000 0.759500
C146 C 0.709200 0.162200 0.765620
H147 H 0.682400 0.138500 0.718400
C148 C 0.785600 0.092800 0.810780
H149 H 0.810900 0.022000 0.794100
C150 C 0.824600 0.127300 0.880320
H151 H 0.877100 0.080000 0.910600
C152 C 0.786500 0.232300 0.906140
H153 H 0.812700 0.254700 0.953700
O154 O 0.130570 1.317930 0.711610
O155 O -0.013900 1.169900 0.579530
O156 O -0.079650 1.013560 0.636810
O157 O 0.412840 0.916390 0.555050
N158 N 0.442800 1.140570 0.577190
H159 H 0.488800 1.090100 0.553900
N160 N 0.293530 1.217210 0.653030
C161 C 0.342300 1.116620 0.624500
C162 C 0.467800 1.259130 0.568440
H163 H 0.563800 1.277500 0.579700
H164 H 0.445800 1.283300 0.518200
C165 C 0.371100 1.313050 0.624080
H166 H 0.309700 1.366600 0.600000
H167 H 0.422900 1.350500 0.663400
C168 C 0.170000 1.227510 0.689690
C169 C 0.089900 1.119610 0.697500
H170 H 0.031800 1.126300 0.741600
C171 C -0.005800 1.106400 0.630500
C172 C -0.175900 0.983500 0.577980
H173 H -0.253200 1.035500 0.576600
H174 H -0.130100 0.985800 0.530300
C175 C -0.224600 0.871000 0.593300
H176 H -0.255800 0.866900 0.643700
H177 H -0.299900 0.853000 0.560100
H178 H -0.150300 0.818700 0.586300
C179 C 0.184200 1.015310 0.708230
H180 H 0.125800 0.948900 0.701300
C181 C 0.240500 1.012280 0.787760
C182 C 0.361300 1.064660 0.810190
H183 H 0.414600 1.101600 0.775100
C184 C 0.405200 1.063600 0.883720
H185 H 0.486500 1.100500 0.897700
C186 C 0.328800 1.008200 0.935950
H187 H 0.357800 1.007200 0.985400
C188 C 0.209300 0.954300 0.914660
H189 H 0.157300 0.916300 0.949800
C190 C 0.165500 0.956000 0.841320
H191 H 0.084300 0.918900 0.827700
C192 C 0.291600 1.014350 0.647060
C193 C 0.336600 0.915180 0.610480
C194 C 0.289900 0.803080 0.638450
C195 C 0.327900 0.767520 0.709500
H196 H 0.378700 0.815000 0.740500
C197 C 0.290800 0.662200 0.734380
H198 H 0.317600 0.638500 0.781600
C199 C 0.214400 0.592800 0.689220
H200 H 0.189100 0.522000 0.705900
C201 C 0.175400 0.627300 0.619680
H202 H 0.122900 0.580000 0.589400
C203 C 0.213500 0.732300 0.593860
H204 H 0.187300 0.754700 0.546300

#END
