./ADEYEO_from_xyz.cif_generated_by_CrystalShift
_symmetry_cell_setting triclinic
_symmetry_space_group_name_H-M 'P 1'
loop_
_symmetry_equiv_pos_site_id
_symmetry_equiv_pos_as_xyz
1 x,y,z
_cell_length_a 9.732700
_cell_length_b 7.260000
_cell_length_c 12.394000
_cell_angle_alpha 90.000000
_cell_angle_beta 129.395000
_cell_angle_gamma 90.000000
_cell_volume 676.771937
loop_
_atom_site_label
_atom_site_type_symbol
_atom_site_fract_x
_atom_site_fract_y
_atom_site_fract_z
O1 O 0.359700 0.504300 0.035680
O2 O 0.490200 0.261400 0.022290
O3 O 0.083900 0.247500 0.225870
O4 O 0.195900 0.449000 0.152800
C5 C 0.392000 0.334800 0.046900
C6 C 0.317500 0.208600 0.091600
C7 C 0.335100 0.016400 0.089800
C8 C 0.264200 -0.103100 0.130800
C9 C 0.176500 -0.037700 0.178300
C10 C 0.162100 0.150000 0.181900
C11 C 0.229500 0.271500 0.138800
C12 C 0.101300 0.438400 0.205800
H13 H 0.529200 0.344100 0.000700
H14 H 0.395000 -0.039000 0.057000
H15 H 0.270000 -0.222000 0.125000
H16 H 0.121000 -0.115000 0.205000
H17 H -0.020000 0.482000 0.134000
H18 H 0.164000 0.501000 0.290000
O19 O 0.640300 1.004300 0.464320
O20 O 0.509800 0.761400 0.477710
O21 O 0.916100 0.747500 0.274130
O22 O 0.804100 0.949000 0.347200
C23 C 0.608000 0.834800 0.453100
C24 C 0.682500 0.708600 0.408400
C25 C 0.664900 0.516400 0.410200
C26 C 0.735800 0.396900 0.369200
C27 C 0.823500 0.462300 0.321700
C28 C 0.837900 0.650000 0.318100
C29 C 0.770500 0.771500 0.361200
C30 C 0.898700 0.938400 0.294200
H31 H 0.470800 0.844100 0.499300
H32 H 0.605000 0.461000 0.443000
H33 H 0.730000 0.278000 0.375000
H34 H 0.879000 0.385000 0.295000
H35 H 1.020000 0.982000 0.366000
H36 H 0.836000 1.001000 0.210000
O37 O 0.640300 0.495700 0.964320
O38 O 0.509800 0.738600 0.977710
O39 O 0.916100 0.752500 0.774130
O40 O 0.804100 0.551000 0.847200
C41 C 0.608000 0.665200 0.953100
C42 C 0.682500 0.791400 0.908400
C43 C 0.664900 0.983600 0.910200
C44 C 0.735800 1.103100 0.869200
C45 C 0.823500 1.037700 0.821700
C46 C 0.837900 0.850000 0.818100
C47 C 0.770500 0.728500 0.861200
C48 C 0.898700 0.561600 0.794200
H49 H 0.470800 0.655900 0.999300
H50 H 0.605000 1.039000 0.943000
H51 H 0.730000 1.222000 0.875000
H52 H 0.879000 1.115000 0.795000
H53 H 1.020000 0.518000 0.866000
H54 H 0.836000 0.499000 0.710000
O55 O 0.359700 -0.004300 0.535680
O56 O 0.490200 0.238600 0.522290
O57 O 0.083900 0.252500 0.725870
O58 O 0.195900 0.051000 0.652800
C59 C 0.392000 0.165200 0.546900
C60 C 0.317500 0.291400 0.591600
C61 C 0.335100 0.483600 0.589800
C62 C 0.264200 0.603100 0.630800
C63 C 0.176500 0.537700 0.678300
C64 C 0.162100 0.350000 0.681900
C65 C 0.229500 0.228500 0.638800
C66 C 0.101300 0.061600 0.705800
H67 H 0.529200 0.155900 0.500700
H68 H 0.395000 0.539000 0.557000
H69 H 0.270000 0.722000 0.625000
H70 H 0.121000 0.615000 0.705000
H71 H -0.020000 0.018000 0.634000
H72 H 0.164000 -0.001000 0.790000

#END
