
#######################################################################
#
#                 Cambridge Crystallographic Data Centre
#                                CCDC 
#
#######################################################################
#
# If this CIF has been generated from an entry in the Cambridge 
# Structural Database, then it will include bibliographic, chemical, 
# crystal, experimental, refinement or atomic coordinate data resulting 
# from the CCDC's data processing and validation procedures.
#
#######################################################################

data_ADIDAT
_symmetry_cell_setting           monoclinic
_symmetry_space_group_name_H-M   'P 21/n'
_symmetry_Int_Tables_number      14
_space_group_name_Hall           '-P 2yn'
loop_
_symmetry_equiv_pos_site_id
_symmetry_equiv_pos_as_xyz
1 x,y,z
2 1/2-x,1/2+y,1/2-z
3 -x,-y,-z
4 1/2+x,1/2-y,1/2+z
_cell_length_a                   10.340(6)
_cell_length_b                   14.433(5)
_cell_length_c                   15.185(7)
_cell_angle_alpha                90
_cell_angle_beta                 105.92(2)
_cell_angle_gamma                90
_cell_volume                     2179.25
loop_
_atom_site_label
_atom_site_type_symbol
_atom_site_fract_x
_atom_site_fract_y
_atom_site_fract_z
N1 N 0.24509(11) 0.76484(7) -0.00215(7)
N2 N 0.17681(13) 0.56283(9) -0.13889(9)
N3 N 0.22111(13) 0.98389(9) 0.09485(9)
C1 C 0.17268(14) 0.70416(9) -0.06226(9)
C2 C 0.03544(15) 0.71403(10) -0.10135(10)
H1 H -0.0128 0.6695 -0.1414
C3 C -0.02789(15) 0.79125(11) -0.07961(11)
H2 H -0.1195 0.8002 -0.1058
C4 C 0.04590(15) 0.85506(10) -0.01857(10)
H3 H 0.0051 0.9077 -0.0031
C5 C 0.18227(14) 0.83920(9) 0.01941(9)
C6 C 0.24624(15) 0.62204(9) -0.08462(9)
C7 C 0.39431(16) 0.61589(12) -0.03964(14)
H4 H 0.4293 0.5603 -0.0592
H5 H 0.4099 0.6146 0.0257
H6 H 0.4385 0.6688 -0.0565
C8 C 0.26610(15) 0.90273(10) 0.08977(9)
C9 C 0.39338(18) 0.86447(13) 0.14983(13)
H7 H 0.4384 0.9113 0.1920
H8 H 0.4504 0.8449 0.1130
H9 H 0.3735 0.8124 0.1833
C10 C 0.23472(15) 0.47941(10) -0.16091(10)
C11 C 0.23720(19) 0.40144(11) -0.10691(12)
C12 C 0.2833(2) 0.31838(12) -0.13485(15)
H10 H 0.2863 0.2655 -0.0994
C13 C 0.3239(2) 0.31325(12) -0.21301(14)
H11 H 0.3534 0.2572 -0.2308
C14 C 0.3212(2) 0.39062(12) -0.26485(13)
H12 H 0.3500 0.3868 -0.3177
C15 C 0.27657(17) 0.47510(11) -0.24066(11)
C16 C 0.1892(3) 0.40681(17) -0.02265(17)
H13 H 0.1617 0.4691 -0.0148
H14 H 0.2607 0.3892 0.0297
H15 H 0.1143 0.3656 -0.0288
C17 C 0.2744(2) 0.55996(15) -0.29847(14)
H16 H 0.3064 0.5443 -0.3502
H17 H 0.3313 0.6067 -0.2627
H18 H 0.1840 0.5830 -0.3194
C18 C 0.28857(16) 1.04697(11) 0.16436(10)
C19 C 0.38258(18) 1.10893(12) 0.14852(12)
C20 C 0.4335(2) 1.17611(15) 0.21438(15)
H19 H 0.4966 1.2182 0.2052
C21 C 0.3922(3) 1.18164(18) 0.29294(16)
H20 H 0.4272 1.2271 0.3363
C22 C 0.3004(3) 1.12070(19) 0.30682(15)
H21 H 0.2729 1.1252 0.3601
C23 C 0.2460(2) 1.05173(14) 0.24407(12)
C24 C 0.4276(3) 1.10361(17) 0.06300(15)
H22 H 0.3823 1.0534 0.0256
H23 H 0.5230 1.0934 0.0788
H24 H 0.4065 1.1607 0.0297
C25 C 0.1448(3) 0.9837(2) 0.25999(17)
H25 H 0.1273 0.9967 0.3177
H26 H 0.1796 0.9220 0.2608
H27 H 0.0627 0.9890 0.2117
N1 N 0.25491(11) 0.26484(7) 0.50215(7)
N2 N 0.32319(13) 0.06283(9) 0.63889(9)
N3 N 0.27889(13) 0.48389(9) 0.40515(9)
C1 C 0.32732(14) 0.20416(9) 0.56226(9)
C2 C 0.46456(15) 0.21403(10) 0.60135(10)
H1 H 0.5128 0.1695 0.6414
C3 C 0.52789(15) 0.29125(11) 0.57961(11)
H2 H 0.6195 0.3002 0.6058
C4 C 0.45410(15) 0.35506(10) 0.51857(10)
H3 H 0.4949 0.4077 0.5031
C5 C 0.31773(14) 0.33920(9) 0.48059(9)
C6 C 0.25376(15) 0.12204(9) 0.58462(9)
C7 C 0.10569(16) 0.11589(12) 0.53964(14)
H4 H 0.0707 0.0603 0.5592
H5 H 0.0901 0.1146 0.4743
H6 H 0.0615 0.1688 0.5565
C8 C 0.23390(15) 0.40273(10) 0.41023(9)
C9 C 0.10662(18) 0.36447(13) 0.35017(13)
H7 H 0.0616 0.4113 0.3080
H8 H 0.0496 0.3449 0.3870
H9 H 0.1265 0.3124 0.3167
C10 C 0.26528(15) -0.02059(10) 0.66091(10)
C11 C 0.26280(19) -0.09856(11) 0.60691(12)
C12 C 0.2167(2) -0.18162(12) 0.63485(15)
H10 H 0.2137 -0.2345 0.5994
C13 C 0.1761(2) -0.18675(12) 0.71301(14)
H11 H 0.1466 -0.2428 0.7308
C14 C 0.1788(2) -0.10938(12) 0.76485(13)
H12 H 0.1500 -0.1132 0.8177
C15 C 0.22343(17) -0.02490(11) 0.74066(11)
C16 C 0.3108(3) -0.09319(17) 0.52265(17)
H13 H 0.3383 -0.0309 0.5148
H14 H 0.2393 -0.1108 0.4703
H15 H 0.3857 -0.1344 0.5288
C17 C 0.2256(2) 0.05996(15) 0.79847(14)
H16 H 0.1936 0.0443 0.8502
H17 H 0.1687 0.1067 0.7627
H18 H 0.3160 0.0830 0.8194
C18 C 0.21143(16) 0.54697(11) 0.33564(10)
C19 C 0.11742(18) 0.60893(12) 0.35148(12)
C20 C 0.0665(2) 0.67611(15) 0.28562(15)
H19 H 0.0034 0.7182 0.2948
C21 C 0.1078(3) 0.68164(18) 0.20706(16)
H20 H 0.0728 0.7271 0.1637
C22 C 0.1996(3) 0.62070(19) 0.19318(15)
H21 H 0.2271 0.6252 0.1399
C23 C 0.2540(2) 0.55173(14) 0.25593(12)
C24 C 0.0724(3) 0.60361(17) 0.43700(15)
H22 H 0.1177 0.5534 0.4744
H23 H -0.0230 0.5934 0.4212
H24 H 0.0935 0.6607 0.4703
C25 C 0.3552(3) 0.4837(2) 0.24001(17)
H25 H 0.3727 0.4967 0.1823
H26 H 0.3204 0.4220 0.2392
H27 H 0.4373 0.4890 0.2883
N1 N 0.75491(11) 0.23516(7) 1.00215(7)
N2 N 0.82319(13) 0.43717(9) 1.13889(9)
N3 N 0.77889(13) 0.01611(9) 0.90515(9)
C1 C 0.82732(14) 0.29584(9) 1.06226(9)
C2 C 0.96456(15) 0.28597(10) 1.10135(10)
H1 H 1.0128 0.3305 1.1414
C3 C 1.02789(15) 0.20875(11) 1.07961(11)
H2 H 1.1195 0.1998 1.1058
C4 C 0.95410(15) 0.14494(10) 1.01857(10)
H3 H 0.9949 0.0923 1.0031
C5 C 0.81773(14) 0.16080(9) 0.98059(9)
C6 C 0.75376(15) 0.37796(9) 1.08462(9)
C7 C 0.60569(16) 0.38411(12) 1.03964(14)
H4 H 0.5707 0.4397 1.0592
H5 H 0.5901 0.3854 0.9743
H6 H 0.5615 0.3312 1.0565
C8 C 0.73390(15) 0.09727(10) 0.91023(9)
C9 C 0.60662(18) 0.13553(13) 0.85017(13)
H7 H 0.5616 0.0887 0.8080
H8 H 0.5496 0.1551 0.8870
H9 H 0.6265 0.1876 0.8167
C10 C 0.76528(15) 0.52059(10) 1.16091(10)
C11 C 0.76280(19) 0.59856(11) 1.10691(12)
C12 C 0.7167(2) 0.68162(12) 1.13485(15)
H10 H 0.7137 0.7345 1.0994
C13 C 0.6761(2) 0.68675(12) 1.21301(14)
H11 H 0.6466 0.7428 1.2308
C14 C 0.6788(2) 0.60938(12) 1.26485(13)
H12 H 0.6500 0.6132 1.3177
C15 C 0.72343(17) 0.52490(11) 1.24066(11)
C16 C 0.8108(3) 0.59319(17) 1.02265(17)
H13 H 0.8383 0.5309 1.0148
H14 H 0.7393 0.6108 0.9703
H15 H 0.8857 0.6344 1.0288
C17 C 0.7256(2) 0.44004(15) 1.29847(14)
H16 H 0.6936 0.4557 1.3502
H17 H 0.6687 0.3933 1.2627
H18 H 0.8160 0.4170 1.3194
C18 C 0.71143(16) -0.04697(11) 0.83564(10)
C19 C 0.61742(18) -0.10893(12) 0.85148(12)
C20 C 0.5665(2) -0.17611(15) 0.78562(15)
H19 H 0.5034 -0.2182 0.7948
C21 C 0.6078(3) -0.18164(18) 0.70706(16)
H20 H 0.5728 -0.2271 0.6637
C22 C 0.6996(3) -0.12070(19) 0.69318(15)
H21 H 0.7271 -0.1252 0.6399
C23 C 0.7540(2) -0.05173(14) 0.75593(12)
C24 C 0.5724(3) -0.10361(17) 0.93700(15)
H22 H 0.6177 -0.0534 0.9744
H23 H 0.4770 -0.0934 0.9212
H24 H 0.5935 -0.1607 0.9703
C25 C 0.8552(3) 0.0163(2) 0.74001(17)
H25 H 0.8727 0.0033 0.6823
H26 H 0.8204 0.0780 0.7392
H27 H 0.9373 0.0110 0.7883
N1 N 0.74509(11) 0.73516(7) 0.49785(7)
N2 N 0.67681(13) 0.93717(9) 0.36111(9)
N3 N 0.72111(13) 0.51611(9) 0.59485(9)
C1 C 0.67268(14) 0.79584(9) 0.43774(9)
C2 C 0.53544(15) 0.78597(10) 0.39865(10)
H1 H 0.4872 0.8305 0.3586
C3 C 0.47211(15) 0.70875(11) 0.42039(11)
H2 H 0.3805 0.6998 0.3942
C4 C 0.54590(15) 0.64494(10) 0.48143(10)
H3 H 0.5051 0.5923 0.4969
C5 C 0.68227(14) 0.66080(9) 0.51941(9)
C6 C 0.74624(15) 0.87796(9) 0.41538(9)
C7 C 0.89431(16) 0.88411(12) 0.46036(14)
H4 H 0.9293 0.9397 0.4408
H5 H 0.9099 0.8854 0.5257
H6 H 0.9385 0.8312 0.4435
C8 C 0.76610(15) 0.59727(10) 0.58977(9)
C9 C 0.89338(18) 0.63553(13) 0.64983(13)
H7 H 0.9384 0.5887 0.6920
H8 H 0.9504 0.6551 0.6130
H9 H 0.8735 0.6876 0.6833
C10 C 0.73472(15) 1.02059(10) 0.33909(10)
C11 C 0.73720(19) 1.09856(11) 0.39309(12)
C12 C 0.7833(2) 1.18162(12) 0.36515(15)
H10 H 0.7863 1.2345 0.4006
C13 C 0.8239(2) 1.18675(12) 0.28699(14)
H11 H 0.8534 1.2428 0.2692
C14 C 0.8212(2) 1.10938(12) 0.23515(13)
H12 H 0.8500 1.1132 0.1823
C15 C 0.77657(17) 1.02490(11) 0.25934(11)
C16 C 0.6892(3) 1.09319(17) 0.47735(17)
H13 H 0.6617 1.0309 0.4852
H14 H 0.7607 1.1108 0.5297
H15 H 0.6143 1.1344 0.4712
C17 C 0.7744(2) 0.94004(15) 0.20153(14)
H16 H 0.8064 0.9557 0.1498
H17 H 0.8313 0.8933 0.2373
H18 H 0.6840 0.9170 0.1806
C18 C 0.78857(16) 0.45303(11) 0.66436(10)
C19 C 0.88258(18) 0.39107(12) 0.64852(12)
C20 C 0.9335(2) 0.32389(15) 0.71438(15)
H19 H 0.9966 0.2818 0.7052
C21 C 0.8922(3) 0.31836(18) 0.79294(16)
H20 H 0.9272 0.2729 0.8363
C22 C 0.8004(3) 0.37930(19) 0.80682(15)
H21 H 0.7729 0.3748 0.8601
C23 C 0.7460(2) 0.44827(14) 0.74407(12)
C24 C 0.9276(3) 0.39639(17) 0.56300(15)
H22 H 0.8823 0.4466 0.5256
H23 H 1.0230 0.4066 0.5788
H24 H 0.9065 0.3393 0.5297
C25 C 0.6448(3) 0.5163(2) 0.75999(17)
H25 H 0.6273 0.5033 0.8177
H26 H 0.6796 0.5780 0.7608
H27 H 0.5627 0.5110 0.7117

#END
