./ADIFEA_from_xyz.cif_generated_by_CrystalShift
_symmetry_cell_setting triclinic
_symmetry_space_group_name_H-M 'P 1'
loop_
_symmetry_equiv_pos_site_id
_symmetry_equiv_pos_as_xyz
1 x,y,z
_cell_length_a 9.301700
_cell_length_b 9.764200
_cell_length_c 21.914000
_cell_angle_alpha 90.000000
_cell_angle_beta 92.503000
_cell_angle_gamma 90.000000
_cell_volume 1988.410816
loop_
_atom_site_label
_atom_site_type_symbol
_atom_site_fract_x
_atom_site_fract_y
_atom_site_fract_z
O1 O 0.121910 0.921150 -0.095010
O2 O 0.233260 0.739180 -0.064120
O3 O 0.408710 0.430990 0.093930
O4 O 0.490920 0.643310 0.078220
N5 N 0.200360 0.859470 -0.058510
N6 N 0.047970 0.737250 0.054510
N7 N 0.004960 0.610860 0.064730
N8 N 0.121480 0.534090 0.076920
C9 C 0.268500 0.873070 0.051660
C10 C 0.261710 0.935040 -0.005620
C11 C 0.315900 1.063670 -0.017270
C12 C 0.384790 1.133650 0.030140
C13 C 0.394690 1.075570 0.087790
C14 C 0.336110 0.946900 0.100000
C15 C 0.343890 0.896300 0.163980
C16 C 0.473910 0.900940 0.197810
C17 C 0.481960 0.862100 0.258520
C18 C 0.359650 0.818300 0.286620
C19 C 0.229540 0.813830 0.253750
C20 C 0.221530 0.852410 0.192760
C21 C 0.194040 0.740980 0.060930
C22 C 0.243190 0.611400 0.075080
C23 C 0.387420 0.550340 0.083800
C24 C 0.636420 0.590180 0.086640
C25 C 0.100890 0.390300 0.093910
C26 C 0.123390 0.366060 0.161790
C27 C 0.118930 0.471640 0.204080
C28 C 0.133840 0.444340 0.266120
C29 C 0.152940 0.311330 0.286500
C30 C 0.158870 0.205270 0.244590
C31 C 0.143660 0.232460 0.182630
H32 H 0.308600 1.100800 -0.057900
H33 H 0.424900 1.220400 0.024700
H34 H 0.439600 1.127800 0.120900
H35 H 0.560700 0.931100 0.177700
H36 H 0.572100 0.864700 0.280600
H37 H 0.364000 0.790400 0.328700
H38 H 0.142400 0.786400 0.273300
H39 H 0.132100 0.853600 0.170800
H40 H 0.654000 0.562000 0.129900
H41 H 0.700000 0.663000 0.076300
H42 H 0.647000 0.511000 0.061900
H43 H 0.003600 0.370300 0.081200
H44 H 0.167300 0.331800 0.070300
H45 H 0.105500 0.566200 0.190500
H46 H 0.128300 0.519200 0.294300
H47 H 0.161400 0.293700 0.330100
H48 H 0.172500 0.114400 0.257700
H49 H 0.144000 0.159400 0.154000
O50 O 0.878090 0.421150 0.595010
O51 O 0.766740 0.239180 0.564120
O52 O 0.591290 -0.069010 0.406070
O53 O 0.509080 0.143310 0.421780
N54 N 0.799640 0.359470 0.558510
N55 N 0.952030 0.237250 0.445490
N56 N 0.995040 0.110860 0.435270
N57 N 0.878520 0.034090 0.423080
C58 C 0.731500 0.373070 0.448340
C59 C 0.738290 0.435040 0.505620
C60 C 0.684100 0.563670 0.517270
C61 C 0.615210 0.633650 0.469860
C62 C 0.605310 0.575570 0.412210
C63 C 0.663890 0.446900 0.400000
C64 C 0.656110 0.396300 0.336020
C65 C 0.526090 0.400940 0.302190
C66 C 0.518040 0.362100 0.241480
C67 C 0.640350 0.318300 0.213380
C68 C 0.770460 0.313830 0.246250
C69 C 0.778470 0.352410 0.307240
C70 C 0.805960 0.240980 0.439070
C71 C 0.756810 0.111400 0.424920
C72 C 0.612580 0.050340 0.416200
C73 C 0.363580 0.090180 0.413360
C74 C 0.899110 -0.109700 0.406090
C75 C 0.876610 -0.133940 0.338210
C76 C 0.881070 -0.028360 0.295920
C77 C 0.866160 -0.055660 0.233880
C78 C 0.847060 -0.188670 0.213500
C79 C 0.841130 -0.294730 0.255410
C80 C 0.856340 -0.267540 0.317370
H81 H 0.691400 0.600800 0.557900
H82 H 0.575100 0.720400 0.475300
H83 H 0.560400 0.627800 0.379100
H84 H 0.439300 0.431100 0.322300
H85 H 0.427900 0.364700 0.219400
H86 H 0.636000 0.290400 0.171300
H87 H 0.857600 0.286400 0.226700
H88 H 0.867900 0.353600 0.329200
H89 H 0.346000 0.062000 0.370100
H90 H 0.300000 0.163000 0.423700
H91 H 0.353000 0.011000 0.438100
H92 H 0.996400 -0.129700 0.418800
H93 H 0.832700 -0.168200 0.429700
H94 H 0.894500 0.066200 0.309500
H95 H 0.871700 0.019200 0.205700
H96 H 0.838600 -0.206300 0.169900
H97 H 0.827500 -0.385600 0.242300
H98 H 0.856000 -0.340600 0.346000
O99 O 0.878090 0.078850 1.095010
O100 O 0.766740 0.260820 1.064120
O101 O 0.591290 0.569010 0.906070
O102 O 0.509080 0.356690 0.921780
N103 N 0.799640 0.140530 1.058510
N104 N 0.952030 0.262750 0.945490
N105 N 0.995040 0.389140 0.935270
N106 N 0.878520 0.465910 0.923080
C107 C 0.731500 0.126930 0.948340
C108 C 0.738290 0.064960 1.005620
C109 C 0.684100 -0.063670 1.017270
C110 C 0.615210 -0.133650 0.969860
C111 C 0.605310 -0.075570 0.912210
C112 C 0.663890 0.053100 0.900000
C113 C 0.656110 0.103700 0.836020
C114 C 0.526090 0.099060 0.802190
C115 C 0.518040 0.137900 0.741480
C116 C 0.640350 0.181700 0.713380
C117 C 0.770460 0.186170 0.746250
C118 C 0.778470 0.147590 0.807240
C119 C 0.805960 0.259020 0.939070
C120 C 0.756810 0.388600 0.924920
C121 C 0.612580 0.449660 0.916200
C122 C 0.363580 0.409820 0.913360
C123 C 0.899110 0.609700 0.906090
C124 C 0.876610 0.633940 0.838210
C125 C 0.881070 0.528360 0.795920
C126 C 0.866160 0.555660 0.733880
C127 C 0.847060 0.688670 0.713500
C128 C 0.841130 0.794730 0.755410
C129 C 0.856340 0.767540 0.817370
H130 H 0.691400 -0.100800 1.057900
H131 H 0.575100 -0.220400 0.975300
H132 H 0.560400 -0.127800 0.879100
H133 H 0.439300 0.068900 0.822300
H134 H 0.427900 0.135300 0.719400
H135 H 0.636000 0.209600 0.671300
H136 H 0.857600 0.213600 0.726700
H137 H 0.867900 0.146400 0.829200
H138 H 0.346000 0.438000 0.870100
H139 H 0.300000 0.337000 0.923700
H140 H 0.353000 0.489000 0.938100
H141 H 0.996400 0.629700 0.918800
H142 H 0.832700 0.668200 0.929700
H143 H 0.894500 0.433800 0.809500
H144 H 0.871700 0.480800 0.705700
H145 H 0.838600 0.706300 0.669900
H146 H 0.827500 0.885600 0.742300
H147 H 0.856000 0.840600 0.846000
O148 O 0.121910 0.578850 0.404990
O149 O 0.233260 0.760820 0.435880
O150 O 0.408710 1.069010 0.593930
O151 O 0.490920 0.856690 0.578220
N152 N 0.200360 0.640530 0.441490
N153 N 0.047970 0.762750 0.554510
N154 N 0.004960 0.889140 0.564730
N155 N 0.121480 0.965910 0.576920
C156 C 0.268500 0.626930 0.551660
C157 C 0.261710 0.564960 0.494380
C158 C 0.315900 0.436330 0.482730
C159 C 0.384790 0.366350 0.530140
C160 C 0.394690 0.424430 0.587790
C161 C 0.336110 0.553100 0.600000
C162 C 0.343890 0.603700 0.663980
C163 C 0.473910 0.599060 0.697810
C164 C 0.481960 0.637900 0.758520
C165 C 0.359650 0.681700 0.786620
C166 C 0.229540 0.686170 0.753750
C167 C 0.221530 0.647590 0.692760
C168 C 0.194040 0.759020 0.560930
C169 C 0.243190 0.888600 0.575080
C170 C 0.387420 0.949660 0.583800
C171 C 0.636420 0.909820 0.586640
C172 C 0.100890 1.109700 0.593910
C173 C 0.123390 1.133940 0.661790
C174 C 0.118930 1.028360 0.704080
C175 C 0.133840 1.055660 0.766120
C176 C 0.152940 1.188670 0.786500
C177 C 0.158870 1.294730 0.744590
C178 C 0.143660 1.267540 0.682630
H179 H 0.308600 0.399200 0.442100
H180 H 0.424900 0.279600 0.524700
H181 H 0.439600 0.372200 0.620900
H182 H 0.560700 0.568900 0.677700
H183 H 0.572100 0.635300 0.780600
H184 H 0.364000 0.709600 0.828700
H185 H 0.142400 0.713600 0.773300
H186 H 0.132100 0.646400 0.670800
H187 H 0.654000 0.938000 0.629900
H188 H 0.700000 0.837000 0.576300
H189 H 0.647000 0.989000 0.561900
H190 H 0.003600 1.129700 0.581200
H191 H 0.167300 1.168200 0.570300
H192 H 0.105500 0.933800 0.690500
H193 H 0.128300 0.980800 0.794300
H194 H 0.161400 1.206300 0.830100
H195 H 0.172500 1.385600 0.757700
H196 H 0.144000 1.340600 0.654000

#END
