./ADINOQ_from_xyz.cif_generated_by_CrystalShift
_symmetry_cell_setting triclinic
_symmetry_space_group_name_H-M 'P 1'
loop_
_symmetry_equiv_pos_site_id
_symmetry_equiv_pos_as_xyz
1 x,y,z
_cell_length_a 12.417800
_cell_length_b 12.882800
_cell_length_c 15.708000
_cell_angle_alpha 103.931000
_cell_angle_beta 110.192000
_cell_angle_gamma 100.010000
_cell_volume 2196.161485
loop_
_atom_site_label
_atom_site_type_symbol
_atom_site_fract_x
_atom_site_fract_y
_atom_site_fract_z
Zn1 Zn 0.421640 0.814330 0.665870
O2 O 0.583200 0.883200 0.765100
O3 O 0.607100 1.007100 0.694500
O4 O 1.201400 1.016900 1.008000
O5 O 1.217400 1.140800 0.940800
O6 O 0.357500 0.673200 0.668600
O7 O 0.169700 0.669700 0.580100
O8 O 0.141600 0.162200 0.706600
O9 O -0.034100 0.182900 0.650200
N10 N 0.325000 0.881800 0.570900
N11 N 0.336000 0.920900 0.743000
N12 N 0.466200 0.756900 0.541100
N13 N 1.154800 1.063700 0.953400
N14 N 0.076100 0.212600 0.676400
C15 C 0.253700 0.943400 0.591900
C16 C 0.183900 0.985700 0.523200
H17 H 0.139000 1.032300 0.538000
C18 C 0.185700 0.954800 0.434300
H19 H 0.136500 0.978100 0.387500
C20 C 0.259200 0.888300 0.408300
H21 H 0.261500 0.870000 0.348100
C22 C 0.326100 0.854500 0.482500
C23 C 0.269600 0.961400 0.688700
H24 H 0.228400 1.005600 0.713000
C25 C 0.357200 0.933400 0.837200
H26 H 0.295600 0.962700 0.850200
H27 H 0.432600 0.990500 0.876300
C28 C 0.362600 0.836300 0.872600
C29 C 0.472500 0.814000 0.908000
H30 H 0.541600 0.864000 0.915700
C31 C 0.479400 0.718800 0.931600
H32 H 0.553300 0.704200 0.952200
C33 C 0.382400 0.644800 0.926100
C34 C 0.382000 0.541500 0.945800
H35 H 0.453700 0.522800 0.961500
C36 C 0.288500 0.469500 0.943700
H37 H 0.299100 0.411900 0.969000
C38 C 0.168900 0.483600 0.900700
C39 C 0.073500 0.412700 0.896400
H40 H 0.082300 0.353400 0.919800
C41 C -0.041800 0.428100 0.856100
H42 H -0.110000 0.378700 0.850600
C43 C -0.047800 0.522000 0.824700
H44 H -0.123100 0.530300 0.794500
C45 C 0.048000 0.600100 0.835500
C46 C 0.046300 0.697500 0.808300
H47 H -0.028100 0.708600 0.779800
C48 C 0.144000 0.776200 0.820200
H49 H 0.136100 0.841300 0.806100
C50 C 0.262200 0.756000 0.855900
C51 C 0.263200 0.658200 0.882600
C52 C 0.166700 0.580800 0.875700
C53 C 0.406800 0.786600 0.468300
H54 H 0.415000 0.765800 0.410500
C55 C 0.543600 0.692800 0.519700
H56 H 0.625700 0.732800 0.563500
H57 H 0.537000 0.686400 0.455100
C58 C 0.515000 0.575700 0.527200
C59 C 0.446000 0.492800 0.440800
H60 H 0.423600 0.511000 0.384600
C61 C 0.409600 0.383300 0.435800
H62 H 0.367700 0.328300 0.376200
C63 C 0.434100 0.354600 0.516800
C64 C 0.402500 0.237800 0.511300
H65 H 0.357300 0.181700 0.452900
C66 C 0.440800 0.214500 0.593000
H67 H 0.423500 0.139800 0.588900
C68 C 0.506300 0.295200 0.686300
C69 C 0.543200 0.265500 0.766200
H70 H 0.522600 0.190600 0.761200
C71 C 0.611100 0.345000 0.855200
H72 H 0.631800 0.324100 0.910100
C73 C 0.649100 0.458300 0.862700
H74 H 0.693000 0.512100 0.922700
C75 C 0.621100 0.489000 0.780900
C76 C 0.649400 0.603000 0.784000
H77 H 0.690700 0.658500 0.843400
C78 C 0.619100 0.633000 0.704900
H79 H 0.645200 0.707300 0.709900
C80 C 0.546400 0.551200 0.612400
C81 C 0.511600 0.437600 0.606700
C82 C 0.541300 0.407700 0.692200
C83 C 0.647800 0.969700 0.758300
C84 C 0.777800 0.995400 0.816000
C85 C 0.829800 0.937800 0.877200
H86 H 0.781900 0.883700 0.888800
C87 C 0.951800 0.962000 0.919600
H88 H 0.986700 0.922300 0.958400
C89 C 1.023300 1.044500 0.905200
C90 C 0.982600 1.102100 0.851400
H91 H 1.034300 1.153400 0.840300
C92 C 0.857900 1.085900 0.809800
H93 H 0.827400 1.133600 0.778300
C94 C 0.239800 0.625300 0.628900
C95 C 0.195300 0.515400 0.639400
C96 C 0.277900 0.469300 0.684300
H97 H 0.359100 0.503400 0.705600
C98 C 0.239000 0.371300 0.697600
H99 H 0.292300 0.339000 0.732400
C100 C 0.114500 0.320700 0.656500
C101 C 0.031000 0.370600 0.611800
H102 H -0.050500 0.336500 0.588700
C103 C 0.071500 0.470400 0.602900
H104 H 0.019200 0.507300 0.573700
Zn105 Zn 0.727880 -0.067750 0.336410
O106 O 0.561700 -0.130100 0.238800
O107 O 0.541400 -0.267200 0.303000
O108 O -0.040300 -0.260400 0.000100
O109 O -0.064900 -0.395600 0.055600
O110 O 0.799600 0.079500 0.334800
O111 O 0.980800 0.080100 0.422800
O112 O 1.010600 0.584700 0.302100
O113 O 1.191800 0.578100 0.360100
N114 N 0.818400 -0.126500 0.439100
N115 N 0.817800 -0.171500 0.264500
N116 N 0.681500 -0.008000 0.466600
N117 N -0.005600 -0.323200 0.044200
N118 N 1.085400 0.540000 0.336700
C119 C 0.884200 -0.191500 0.415400
C120 C 0.958300 -0.230700 0.481400
H121 H 1.007400 -0.271700 0.465600
C122 C 0.956300 -0.206200 0.571900
H123 H 1.000700 -0.233800 0.617600
C124 C 0.890800 -0.143800 0.590400
H125 H 0.891500 -0.122700 0.651600
C126 C 0.819100 -0.107600 0.520000
C127 C 0.881700 -0.217300 0.316600
H128 H 0.923600 -0.263300 0.295300
C129 C 0.810000 -0.196100 0.162200
H130 H 0.729700 -0.204600 0.117500
H131 H 0.832700 -0.263200 0.142500
C132 C 0.907000 -0.083900 0.168100
C133 C 1.028700 -0.070600 0.196400
H134 H 1.055300 -0.127500 0.216300
C135 C 1.117700 0.015500 0.199700
H136 H 1.196200 0.011600 0.218400
C137 C 1.089700 0.104300 0.175600
C138 C 1.179500 0.195900 0.176000
H139 H 1.259400 0.196200 0.196200
C140 C 1.144700 0.279500 0.146700
H141 H 1.197000 0.341400 0.147700
C142 C 1.015200 0.261800 0.113000
C143 C 0.978800 0.345100 0.090000
H144 H 1.032400 0.407700 0.093500
C145 C 0.858000 0.336000 0.060300
H146 H 0.831600 0.393900 0.042400
C147 C 0.772200 0.244900 0.055500
H148 H 0.692100 0.244000 0.031700
C149 C 0.801100 0.159300 0.083900
C150 C 0.710300 0.070500 0.083200
H151 H 0.630700 0.071200 0.060800
C152 C 0.741500 -0.012900 0.114900
H153 H 0.691200 -0.067500 0.124300
C154 C 0.870300 -0.003600 0.132800
C155 C 0.962100 0.089400 0.143400
C156 C 0.930900 0.180600 0.122200
C157 C 0.737400 -0.038700 0.533700
H158 H 0.728600 -0.019300 0.591400
C159 C 0.594700 0.057600 0.475400
H160 H 0.517100 0.019800 0.422800
H161 H 0.585600 0.061900 0.534900
C162 C 0.637100 0.172300 0.473800
C163 C 0.708600 0.257500 0.559000
H164 H 0.734000 0.241400 0.616100
C165 C 0.743000 0.367400 0.560400
H166 H 0.793400 0.422600 0.618300
C167 C 0.704600 0.395500 0.479300
C168 C 0.743800 0.509700 0.478200
H169 H 0.793500 0.566300 0.535400
C170 C 0.708800 0.533100 0.395800
H171 H 0.737600 0.605100 0.396700
C172 C 0.628100 0.450100 0.306700
C173 C 0.595700 0.476000 0.224700
H174 H 0.621400 0.549200 0.226800
C175 C 0.523900 0.393400 0.137300
H176 H 0.498800 0.411700 0.081200
C177 C 0.489800 0.283000 0.134100
H178 H 0.440200 0.228300 0.075700
C179 C 0.528500 0.253600 0.216100
C180 C 0.485700 0.141700 0.216000
H181 H 0.431200 0.086300 0.159700
C182 C 0.525700 0.119100 0.298400
H183 H 0.503700 0.045100 0.295500
C184 C 0.599200 0.199400 0.389900
C185 C 0.636300 0.311200 0.391700
C186 C 0.593800 0.338800 0.306000
C187 C 0.502000 -0.210200 0.251800
C188 C 0.365100 -0.248000 0.187600
C189 C 0.322600 -0.191100 0.131600
H190 H 0.375400 -0.133600 0.127600
C191 C 0.199400 -0.214600 0.077400
H192 H 0.168700 -0.178300 0.034000
C193 C 0.128000 -0.294700 0.093200
C194 C 0.171700 -0.354000 0.152400
H195 H 0.121000 -0.411500 0.158200
C196 C 0.293600 -0.324900 0.202900
H197 H 0.326300 -0.358900 0.247800
C198 C 0.911000 0.118300 0.379500
C199 C 0.954400 0.230000 0.367100
C200 C 0.878100 0.287400 0.324600
H201 H 0.796000 0.255200 0.300400
C202 C 0.919100 0.391600 0.316400
H203 H 0.864900 0.428500 0.289800
C204 C 1.037600 0.438100 0.347300
C205 C 1.114300 0.386800 0.389300
H206 H 1.196000 0.419500 0.411300
C207 C 1.073700 0.282300 0.401100
H208 H 1.129400 0.249600 0.432400

#END
