./ADIPAM10_from_xyz.cif_generated_by_CrystalShift
_symmetry_cell_setting triclinic
_symmetry_space_group_name_H-M 'P 1'
loop_
_symmetry_equiv_pos_site_id
_symmetry_equiv_pos_as_xyz
1 x,y,z
_cell_length_a 6.890000
_cell_length_b 5.150000
_cell_length_c 10.670000
_cell_angle_alpha 90.000000
_cell_angle_beta 111.000000
_cell_angle_gamma 90.000000
_cell_volume 353.461895
loop_
_atom_site_label
_atom_site_type_symbol
_atom_site_fract_x
_atom_site_fract_y
_atom_site_fract_z
C1 C 0.583100 0.026700 0.470700
C2 C 0.648400 -0.224500 0.424900
C3 C 0.801200 -0.192300 0.356200
H4 H 0.713600 0.087600 0.543300
H5 H 0.525700 0.104500 0.393000
H6 H 0.707600 -0.288200 0.492000
H7 H 0.534500 -0.272400 0.364700
H8 H 0.953000 -0.312000 0.293000
H9 H 0.862000 -0.584800 0.333800
N10 N 0.883000 -0.410800 0.330600
O11 O 0.844200 0.023100 0.324400
C12 C 0.416900 -0.026700 0.529300
C13 C 0.351600 0.224500 0.575100
H14 H 0.286400 -0.087600 0.456700
H15 H 0.474300 -0.104500 0.607000
C16 C 0.198800 0.192300 0.643800
H17 H 0.292400 0.288200 0.508000
H18 H 0.465500 0.272400 0.635300
N19 N 0.117000 0.410800 0.669400
O20 O 0.155800 -0.023100 0.675600
H21 H 0.047000 0.312000 0.707000
H22 H 0.138000 0.584800 0.666200
C23 C 0.583100 1.026700 0.470700
C24 C 0.648400 0.775500 0.424900
C25 C 0.801200 0.807700 0.356200
H26 H 0.713600 1.087600 0.543300
H27 H 0.525700 1.104500 0.393000
H28 H 0.707600 0.711800 0.492000
H29 H 0.534500 0.727600 0.364700
H30 H 0.953000 0.688000 0.293000
H31 H 0.862000 0.415200 0.333800
N32 N 0.883000 0.589200 0.330600
O33 O 0.844200 1.023100 0.324400
C34 C 0.416900 0.973300 0.529300
C35 C 0.351600 1.224500 0.575100
H36 H 0.286400 0.912400 0.456700
H37 H 0.474300 0.895500 0.607000
C38 C 0.198800 1.192300 0.643800
H39 H 0.292400 1.288200 0.508000
H40 H 0.465500 1.272400 0.635300
N41 N 0.117000 1.410800 0.669400
O42 O 0.155800 0.976900 0.675600
H43 H 0.047000 1.312000 0.707000
H44 H 0.138000 1.584800 0.666200
C45 C 0.416900 0.526700 0.029300
C46 C 0.351600 0.275500 0.075100
C47 C 0.198800 0.307700 0.143800
H48 H 0.286400 0.587600 -0.043300
H49 H 0.474300 0.604500 0.107000
H50 H 0.292400 0.211800 0.008000
H51 H 0.465500 0.227600 0.135300
H52 H 0.047000 0.188000 0.207000
H53 H 0.138000 -0.084800 0.166200
N54 N 0.117000 0.089200 0.169400
O55 O 0.155800 0.523100 0.175600
C56 C 0.583100 0.473300 -0.029300
C57 C 0.648400 0.724500 -0.075100
H58 H 0.713600 0.412400 0.043300
H59 H 0.525700 0.395500 -0.107000
C60 C 0.801200 0.692300 -0.143800
H61 H 0.707600 0.788200 -0.008000
H62 H 0.534500 0.772400 -0.135300
N63 N 0.883000 0.910800 -0.169400
O64 O 0.844200 0.476900 -0.175600
H65 H 0.953000 0.812000 -0.207000
H66 H 0.862000 1.084800 -0.166200
C67 C 0.416900 0.526700 1.029300
C68 C 0.351600 0.275500 1.075100
C69 C 0.198800 0.307700 1.143800
H70 H 0.286400 0.587600 0.956700
H71 H 0.474300 0.604500 1.107000
H72 H 0.292400 0.211800 1.008000
H73 H 0.465500 0.227600 1.135300
H74 H 0.047000 0.188000 1.207000
H75 H 0.138000 -0.084800 1.166200
N76 N 0.117000 0.089200 1.169400
O77 O 0.155800 0.523100 1.175600
C78 C 0.583100 0.473300 0.970700
C79 C 0.648400 0.724500 0.924900
H80 H 0.713600 0.412400 1.043300
H81 H 0.525700 0.395500 0.893000
C82 C 0.801200 0.692300 0.856200
H83 H 0.707600 0.788200 0.992000
H84 H 0.534500 0.772400 0.864700
N85 N 0.883000 0.910800 0.830600
O86 O 0.844200 0.476900 0.824400
H87 H 0.953000 0.812000 0.793000
H88 H 0.862000 1.084800 0.833800

#END
