./ADISIR_from_xyz.cif_generated_by_CrystalShift
_symmetry_cell_setting triclinic
_symmetry_space_group_name_H-M 'P 1'
loop_
_symmetry_equiv_pos_site_id
_symmetry_equiv_pos_as_xyz
1 x,y,z
_cell_length_a 5.423400
_cell_length_b 10.684200
_cell_length_c 14.785800
_cell_angle_alpha 77.839000
_cell_angle_beta 81.951000
_cell_angle_gamma 87.250000
_cell_volume 829.130553
loop_
_atom_site_label
_atom_site_type_symbol
_atom_site_fract_x
_atom_site_fract_y
_atom_site_fract_z
C1 C 1.204000 0.051200 0.566150
H2 H 1.219700 0.051000 0.500700
H3 H 1.175500 -0.034400 0.601400
H4 H 1.354400 0.082200 0.580300
C5 C 0.977900 0.257120 0.550500
C6 C 0.364100 0.459380 0.652690
H7 H 0.423100 0.508500 0.692500
H8 H 0.187800 0.473100 0.653000
H9 H 0.447000 0.485800 0.590200
C10 C 0.417900 0.320130 0.687590
C11 C 0.237800 0.242460 0.760040
C12 C 0.270900 0.108580 0.786130
H13 H 0.411600 0.068900 0.760200
C14 C 0.096500 0.036470 0.849720
H15 H 0.118400 -0.051900 0.865400
C16 C -0.112700 0.094360 0.890860
H17 H -0.229400 0.044300 0.933600
C18 C -0.148500 0.226660 0.868450
C19 C 0.029300 0.298770 0.802640
H20 H 0.007100 0.387200 0.787000
C21 C -0.544300 0.216350 0.989720
H22 H -0.601700 0.270300 1.033000
H23 H -0.456900 0.143100 1.020800
H24 H -0.684300 0.188500 0.966400
C25 C -0.372900 0.289840 0.910140
C26 C -0.658200 0.595430 0.864130
C27 C -0.472000 0.783720 0.754840
H28 H -0.632500 0.805100 0.734800
H29 H -0.346300 0.794600 0.701300
H30 H -0.439200 0.838900 0.795100
S31 S 1.177580 0.330810 0.459940
S32 S -0.932510 0.668150 0.891280
N33 N 0.996300 0.133640 0.590390
H34 H 0.901000 0.108900 0.638800
N35 N 0.782100 0.323570 0.587530
H36 H 0.770000 0.407000 0.564000
N37 N 0.611300 0.258720 0.656950
N38 N -0.408900 0.408310 0.871940
N39 N -0.619800 0.470170 0.904230
H40 H -0.732000 0.437000 0.944500
N41 N -0.469100 0.651840 0.805000
H42 H -0.335000 0.606000 0.803000
C43 C -0.204000 0.948800 0.433850
H44 H -0.219700 0.949000 0.499300
H45 H -0.175500 1.034400 0.398600
H46 H -0.354400 0.917800 0.419700
C47 C 0.022100 0.742880 0.449500
C48 C 0.635900 0.540620 0.347310
H49 H 0.576900 0.491500 0.307500
H50 H 0.812200 0.526900 0.347000
H51 H 0.553000 0.514200 0.409800
C52 C 0.582100 0.679870 0.312410
C53 C 0.762200 0.757540 0.239960
C54 C 0.729100 0.891420 0.213870
H55 H 0.588400 0.931100 0.239800
C56 C 0.903500 0.963530 0.150280
H57 H 0.881600 1.051900 0.134600
C58 C 1.112700 0.905640 0.109140
H59 H 1.229400 0.955700 0.066400
C60 C 1.148500 0.773340 0.131550
C61 C 0.970700 0.701230 0.197360
H62 H 0.992900 0.612800 0.213000
C63 C 1.544300 0.783650 0.010280
H64 H 1.601700 0.729700 -0.033000
H65 H 1.456900 0.856900 -0.020800
H66 H 1.684300 0.811500 0.033600
C67 C 1.372900 0.710160 0.089860
C68 C 1.658200 0.404570 0.135870
C69 C 1.472000 0.216280 0.245160
H70 H 1.632500 0.194900 0.265200
H71 H 1.346300 0.205400 0.298700
H72 H 1.439200 0.161100 0.204900
S73 S -0.177580 0.669190 0.540060
S74 S 1.932510 0.331850 0.108720
N75 N 0.003700 0.866360 0.409610
H76 H 0.099000 0.891100 0.361200
N77 N 0.217900 0.676430 0.412470
H78 H 0.230000 0.593000 0.436000
N79 N 0.388700 0.741280 0.343050
N80 N 1.408900 0.591690 0.128060
N81 N 1.619800 0.529830 0.095770
H82 H 1.732000 0.563000 0.055500
N83 N 1.469100 0.348160 0.195000
H84 H 1.335000 0.394000 0.197000

#END
