./ADIVOY_from_xyz.cif_generated_by_CrystalShift
_symmetry_cell_setting triclinic
_symmetry_space_group_name_H-M 'P 1'
loop_
_symmetry_equiv_pos_site_id
_symmetry_equiv_pos_as_xyz
1 x,y,z
_cell_length_a 8.871000
_cell_length_b 10.901000
_cell_length_c 17.446000
_cell_angle_alpha 92.066000
_cell_angle_beta 98.906000
_cell_angle_gamma 105.792000
_cell_volume 1598.394331
loop_
_atom_site_label
_atom_site_type_symbol
_atom_site_fract_x
_atom_site_fract_y
_atom_site_fract_z
Mo1 Mo 0.816010 0.784890 0.178030
Mo2 Mo 0.972180 0.702130 0.323210
Fe3 Fe 1.054150 0.783390 0.090080
Fe4 Fe 1.115440 0.862540 0.235210
Fe5 Fe 1.283550 0.872570 0.372730
Se6 Se 0.931290 0.916950 0.304640
Se7 Se 1.000860 0.971200 0.135150
C8 C 0.973700 0.686400 0.187300
C9 C 1.006000 0.573400 0.221800
C10 C 0.906200 0.443700 0.192900
C11 C 0.809400 0.425100 0.120400
H12 H 0.809500 0.494200 0.090700
C13 C 0.711600 0.302900 0.091600
H14 H 0.648800 0.291800 0.042600
C15 C 0.707100 0.199700 0.134600
H16 H 0.639500 0.119400 0.116100
C17 C 0.804100 0.217600 0.205200
H18 H 0.803100 0.147400 0.234000
C19 C 0.904300 0.336100 0.235700
H20 H 0.969600 0.344600 0.283800
C21 C 1.211500 0.743500 0.294000
C22 C 1.155600 0.608800 0.275100
C23 C 1.243300 0.513400 0.302600
C24 C 1.297500 0.498500 0.381100
H25 H 1.282300 0.550400 0.420900
C26 C 1.372800 0.406300 0.397400
H27 H 1.407900 0.395900 0.449200
C28 C 1.398900 0.327600 0.339600
H29 H 1.450400 0.265600 0.352700
C30 C 1.347800 0.342100 0.262800
H31 H 1.363400 0.289600 0.223300
C32 C 1.271900 0.437100 0.244900
H33 H 1.240100 0.449000 0.193000
C34 C 0.606300 0.661600 0.084400
H35 H 0.616400 0.606800 0.040800
C36 C 0.602800 0.791200 0.081600
H37 H 0.608700 0.841300 0.036100
C38 C 0.568000 0.826400 0.152300
H39 H 0.549200 0.908500 0.165400
C40 C 0.553100 0.724200 0.201500
H41 H 0.518800 0.721600 0.252300
C42 C 0.575200 0.621800 0.157700
H43 H 0.561200 0.534700 0.173700
C44 C 0.948500 0.669300 0.451600
H45 H 1.025000 0.712900 0.497700
C46 C 0.813000 0.702800 0.418200
H47 H 0.780400 0.776500 0.435900
C48 C 0.725700 0.609200 0.361800
H49 H 0.619900 0.602800 0.332400
C50 C 0.805600 0.520700 0.361300
H51 H 0.766000 0.438300 0.330100
C52 C 0.944600 0.557000 0.413300
H53 H 1.015700 0.503900 0.428100
C54 C 1.125900 0.645900 0.078500
O55 O 1.178700 0.563200 0.069800
C56 C 0.916200 0.751800 0.001400
O57 O 0.827700 0.732300 -0.058600
C58 C 1.223800 0.891300 0.060300
O59 O 1.331200 0.961100 0.042200
C60 C 1.299800 0.984700 0.237000
O61 O 1.410900 1.062500 0.227600
C62 C 1.314400 0.795000 0.456900
O63 O 1.342800 0.749500 0.515900
C64 C 1.246500 1.007400 0.422000
O65 O 1.225900 1.090300 0.456800
C66 C 1.491000 0.943800 0.371400
O67 O 1.622100 0.982900 0.372200
Mo68 Mo 0.183990 0.215110 0.821970
Mo69 Mo 0.027820 0.297870 0.676790
Fe70 Fe -0.054150 0.216610 0.909920
Fe71 Fe -0.115440 0.137460 0.764790
Fe72 Fe -0.283550 0.127430 0.627270
Se73 Se 0.068710 0.083050 0.695360
Se74 Se -0.000860 0.028800 0.864850
C75 C 0.026300 0.313600 0.812700
C76 C -0.006000 0.426600 0.778200
C77 C 0.093800 0.556300 0.807100
C78 C 0.190600 0.574900 0.879600
H79 H 0.190500 0.505800 0.909300
C80 C 0.288400 0.697100 0.908400
H81 H 0.351200 0.708200 0.957400
C82 C 0.292900 0.800300 0.865400
H83 H 0.360500 0.880600 0.883900
C84 C 0.195900 0.782400 0.794800
H85 H 0.196900 0.852600 0.766000
C86 C 0.095700 0.663900 0.764300
H87 H 0.030400 0.655400 0.716200
C88 C -0.211500 0.256500 0.706000
C89 C -0.155600 0.391200 0.724900
C90 C -0.243300 0.486600 0.697400
C91 C -0.297500 0.501500 0.618900
H92 H -0.282300 0.449600 0.579100
C93 C -0.372800 0.593700 0.602600
H94 H -0.407900 0.604100 0.550800
C95 C -0.398900 0.672400 0.660400
H96 H -0.450400 0.734400 0.647300
C97 C -0.347800 0.657900 0.737200
H98 H -0.363400 0.710400 0.776700
C99 C -0.271900 0.562900 0.755100
H100 H -0.240100 0.551000 0.807000
C101 C 0.393700 0.338400 0.915600
H102 H 0.383600 0.393200 0.959200
C103 C 0.397200 0.208800 0.918400
H104 H 0.391300 0.158700 0.963900
C105 C 0.432000 0.173600 0.847700
H106 H 0.450800 0.091500 0.834600
C107 C 0.446900 0.275800 0.798500
H108 H 0.481200 0.278400 0.747700
C109 C 0.424800 0.378200 0.842300
H110 H 0.438800 0.465300 0.826300
C111 C 0.051500 0.330700 0.548400
H112 H -0.025000 0.287100 0.502300
C113 C 0.187000 0.297200 0.581800
H114 H 0.219600 0.223500 0.564100
C115 C 0.274300 0.390800 0.638200
H116 H 0.380100 0.397200 0.667600
C117 C 0.194400 0.479300 0.638700
H118 H 0.234000 0.561700 0.669900
C119 C 0.055400 0.443000 0.586700
H120 H -0.015700 0.496100 0.571900
C121 C -0.125900 0.354100 0.921500
O122 O -0.178700 0.436800 0.930200
C123 C 0.083800 0.248200 0.998600
O124 O 0.172300 0.267700 1.058600
C125 C -0.223800 0.108700 0.939700
O126 O -0.331200 0.038900 0.957800
C127 C -0.299800 0.015300 0.763000
O128 O -0.410900 -0.062500 0.772400
C129 C -0.314400 0.205000 0.543100
O130 O -0.342800 0.250500 0.484100
C131 C -0.246500 -0.007400 0.578000
O132 O -0.225900 -0.090300 0.543200
C133 C -0.491000 0.056200 0.628600
O134 O -0.622100 0.017100 0.627800

#END
