./ADUQOG_from_xyz.cif_generated_by_CrystalShift
_symmetry_cell_setting triclinic
_symmetry_space_group_name_H-M 'P 1'
loop_
_symmetry_equiv_pos_site_id
_symmetry_equiv_pos_as_xyz
1 x,y,z
_cell_length_a 13.717000
_cell_length_b 5.156700
_cell_length_c 18.788000
_cell_angle_alpha 90.000000
_cell_angle_beta 104.187000
_cell_angle_gamma 90.000000
_cell_volume 1288.426946
loop_
_atom_site_label
_atom_site_type_symbol
_atom_site_fract_x
_atom_site_fract_y
_atom_site_fract_z
O1 O -0.136700 1.257700 0.294200
O2 O -0.111500 1.101300 0.412700
O3 O 0.293500 0.124400 0.336000
N4 N 0.127200 0.457200 0.362100
C5 C 0.045700 0.753800 0.279700
C6 C 0.160800 0.430000 0.298000
C7 C 0.305700 0.664200 0.452400
H8 H 0.276300 0.731200 0.404900
C9 C 0.262100 0.452600 0.478800
C10 C -0.056200 0.956000 0.374200
C11 C -0.022300 0.960000 0.253700
H12 H -0.032700 1.028500 0.205500
C13 C 0.435600 0.675300 0.562800
H14 H 0.496100 0.748900 0.591300
C15 C -0.179100 1.251000 0.357100
H16 H -0.246500 1.169400 0.344000
H17 H -0.185900 1.429100 0.375000
C18 C -0.071700 1.052500 0.303800
C19 C 0.240500 0.261000 0.288300
C20 C 0.392500 0.778200 0.495600
H21 H 0.421200 0.925800 0.478400
C22 C 0.059200 0.656300 0.352100
C23 C 0.305800 0.353300 0.545700
H24 H 0.277100 0.205200 0.562700
C25 C 0.008200 0.757600 0.402100
H26 H 0.017500 0.694400 0.450800
C27 C 0.168000 0.322900 0.430700
H28 H 0.185000 0.142900 0.419800
H29 H 0.115600 0.313900 0.458700
C30 C 0.109700 0.607000 0.245900
H31 H 0.116400 0.625900 0.197100
C32 C 0.393000 0.465000 0.590700
H33 H 0.421900 0.399200 0.638400
O34 O 0.636700 1.257700 0.205800
O35 O 0.611500 1.101300 0.087300
O36 O 0.206500 0.124400 0.164000
N37 N 0.372800 0.457200 0.137900
C38 C 0.454300 0.753800 0.220300
C39 C 0.339200 0.430000 0.202000
C40 C 0.194300 0.664200 0.047600
H41 H 0.223700 0.731200 0.095100
C42 C 0.237900 0.452600 0.021200
C43 C 0.556200 0.956000 0.125800
C44 C 0.522300 0.960000 0.246300
H45 H 0.532700 1.028500 0.294500
C46 C 0.064400 0.675300 -0.062800
H47 H 0.003900 0.748900 -0.091300
C48 C 0.679100 1.251000 0.142900
H49 H 0.746500 1.169400 0.156000
H50 H 0.685900 1.429100 0.125000
C51 C 0.571700 1.052500 0.196200
C52 C 0.259500 0.261000 0.211700
C53 C 0.107500 0.778200 0.004400
H54 H 0.078800 0.925800 0.021600
C55 C 0.440800 0.656300 0.147900
C56 C 0.194200 0.353300 -0.045700
H57 H 0.222900 0.205200 -0.062700
C58 C 0.491800 0.757600 0.097900
H59 H 0.482500 0.694400 0.049200
C60 C 0.332000 0.322900 0.069300
H61 H 0.315000 0.142900 0.080200
H62 H 0.384400 0.313900 0.041300
C63 C 0.390300 0.607000 0.254100
H64 H 0.383600 0.625900 0.302900
C65 C 0.107000 0.465000 -0.090700
H66 H 0.078100 0.399200 -0.138400
O67 O 1.136700 -0.257700 0.705800
O68 O 1.111500 -0.101300 0.587300
O69 O 0.706500 0.875600 0.664000
N70 N 0.872800 0.542800 0.637900
C71 C 0.954300 0.246200 0.720300
C72 C 0.839200 0.570000 0.702000
C73 C 0.694300 0.335800 0.547600
H74 H 0.723700 0.268800 0.595100
C75 C 0.737900 0.547400 0.521200
C76 C 1.056200 0.044000 0.625800
C77 C 1.022300 0.040000 0.746300
H78 H 1.032700 -0.028500 0.794500
C79 C 0.564400 0.324700 0.437200
H80 H 0.503900 0.251100 0.408700
C81 C 1.179100 -0.251000 0.642900
H82 H 1.246500 -0.169400 0.656000
H83 H 1.185900 -0.429100 0.625000
C84 C 1.071700 -0.052500 0.696200
C85 C 0.759500 0.739000 0.711700
C86 C 0.607500 0.221800 0.504400
H87 H 0.578800 0.074200 0.521600
C88 C 0.940800 0.343700 0.647900
C89 C 0.694200 0.646700 0.454300
H90 H 0.722900 0.794800 0.437300
C91 C 0.991800 0.242400 0.597900
H92 H 0.982500 0.305600 0.549200
C93 C 0.832000 0.677100 0.569300
H94 H 0.815000 0.857100 0.580200
H95 H 0.884400 0.686100 0.541300
C96 C 0.890300 0.393000 0.754100
H97 H 0.883600 0.374100 0.802900
C98 C 0.607000 0.535000 0.409300
H99 H 0.578100 0.600800 0.361600
O100 O 0.363300 -0.257700 0.794200
O101 O 0.388500 -0.101300 0.912700
O102 O 0.793500 0.875600 0.836000
N103 N 0.627200 0.542800 0.862100
C104 C 0.545700 0.246200 0.779700
C105 C 0.660800 0.570000 0.798000
C106 C 0.805700 0.335800 0.952400
H107 H 0.776300 0.268800 0.904900
C108 C 0.762100 0.547400 0.978800
C109 C 0.443800 0.044000 0.874200
C110 C 0.477700 0.040000 0.753700
H111 H 0.467300 -0.028500 0.705500
C112 C 0.935600 0.324700 1.062800
H113 H 0.996100 0.251100 1.091300
C114 C 0.320900 -0.251000 0.857100
H115 H 0.253500 -0.169400 0.844000
H116 H 0.314100 -0.429100 0.875000
C117 C 0.428300 -0.052500 0.803800
C118 C 0.740500 0.739000 0.788300
C119 C 0.892500 0.221800 0.995600
H120 H 0.921200 0.074200 0.978400
C121 C 0.559200 0.343700 0.852100
C122 C 0.805800 0.646700 1.045700
H123 H 0.777100 0.794800 1.062700
C124 C 0.508200 0.242400 0.902100
H125 H 0.517500 0.305600 0.950800
C126 C 0.668000 0.677100 0.930700
H127 H 0.685000 0.857100 0.919800
H128 H 0.615600 0.686100 0.958700
C129 C 0.609700 0.393000 0.745900
H130 H 0.616400 0.374100 0.697100
C131 C 0.893000 0.535000 1.090700
H132 H 0.921900 0.600800 1.138400

#END
