
#######################################################################
#
#                 Cambridge Crystallographic Data Centre
#                                CCDC 
#
#######################################################################
#
# If this CIF has been generated from an entry in the Cambridge 
# Structural Database, then it will include bibliographic, chemical, 
# crystal, experimental, refinement or atomic coordinate data resulting 
# from the CCDC's data processing and validation procedures.
#
#######################################################################

data_KABCUO
_symmetry_cell_setting           triclinic
_symmetry_space_group_name_H-M   'P -1'
_symmetry_Int_Tables_number      2
_space_group_name_Hall           '-P 1'
loop_
_symmetry_equiv_pos_site_id
_symmetry_equiv_pos_as_xyz
1 x,y,z
2 -x,-y,-z
_cell_length_a                   11.5596(16)
_cell_length_b                   12.6521(10)
_cell_length_c                   12.6525(15)
_cell_angle_alpha                62.966(6)
_cell_angle_beta                 86.332(9)
_cell_angle_gamma                76.969(9)
_cell_volume                     1604.25
loop_
_atom_site_label
_atom_site_type_symbol
_atom_site_fract_x
_atom_site_fract_y
_atom_site_fract_z
O1 O -0.19225(7) 0.26683(7) 0.49674(6)
H1 H -0.2592 0.2513 0.5186
O2 O 0.18506(7) 0.06160(7) 1.18203(6)
O3 O 0.37928(7) -0.08595(7) 1.17646(6)
C1 C -0.10858(9) 0.20418(9) 0.59763(8)
H2 H -0.1113 0.1161 0.6362
C2 C -0.14351(9) 0.25211(10) 0.68829(9)
H3 H -0.2236 0.2392 0.7158
H4 H -0.1474 0.3407 0.6501
C3 C -0.05499(9) 0.18896(10) 0.79541(8)
H5 H -0.0570 0.1016 0.8380
H6 H -0.0796 0.2248 0.8507
C4 C 0.07321(8) 0.20094(8) 0.75961(8)
C5 C 0.16038(8) 0.12097(8) 0.86727(8)
C6 C 0.13273(9) 0.12693(9) 0.97485(8)
H7 H 0.0608 0.1790 0.9783
C7 C 0.20700(9) 0.05941(9) 1.07517(8)
C8 C 0.31287(9) -0.02000(9) 1.07187(8)
C9 C 0.34180(9) -0.02458(9) 0.96618(9)
H8 H 0.4136 -0.0771 0.9632
C10 C 0.26743(9) 0.04682(9) 0.86265(8)
C11 C 0.30863(9) 0.04105(10) 0.74894(9)
H9 H 0.3019 -0.0378 0.7543
H10 H 0.3934 0.0453 0.7399
C12 C 0.23618(9) 0.14436(10) 0.63960(8)
H11 H 0.2531 0.1279 0.5701
H12 H 0.2581 0.2220 0.6213
C13 C 0.10365(8) 0.15387(9) 0.66494(8)
H13 H 0.0949 0.0676 0.7063
C14 C 0.01750(9) 0.21451(9) 0.55338(8)
C15 C 0.04985(10) 0.14089(11) 0.48287(10)
H14 H -0.0156 0.1627 0.4260
H15 H 0.0637 0.0538 0.5377
H16 H 0.1221 0.1591 0.4399
C16 C 0.02178(10) 0.34682(10) 0.46854(9)
H17 H 0.1047 0.3544 0.4577
H18 H -0.0205 0.4002 0.5021
H19 H -0.0162 0.3704 0.3916
C17 C 0.08300(10) 0.33339(9) 0.71887(9)
H20 H 0.0750 0.3510 0.7872
H21 H 0.0197 0.3890 0.6588
H22 H 0.1605 0.3443 0.6848
C18 C 0.07448(10) 0.13522(10) 1.18905(9)
H23 H 0.0713 0.2204 1.1321
H24 H 0.0671 0.1278 1.2696
H25 H 0.0091 0.1081 1.1702
C19 C 0.47016(10) -0.18741(10) 1.18534(10)
H26 H 0.4361 -0.2399 1.1642
H27 H 0.5039 -0.2337 1.2670
H28 H 0.5328 -0.1582 1.1310
O1 O 1.19225(7) 0.73317(7) 0.50326(6)
H1 H 1.2592 0.7487 0.4814
O2 O 0.81494(7) 0.93840(7) -0.18203(6)
O3 O 0.62072(7) 1.08595(7) -0.17646(6)
C1 C 1.10858(9) 0.79582(9) 0.40237(8)
H2 H 1.1113 0.8839 0.3638
C2 C 1.14351(9) 0.74789(10) 0.31171(9)
H3 H 1.2236 0.7608 0.2842
H4 H 1.1474 0.6593 0.3499
C3 C 1.05499(9) 0.81104(10) 0.20459(8)
H5 H 1.0570 0.8984 0.1620
H6 H 1.0796 0.7752 0.1493
C4 C 0.92679(8) 0.79906(8) 0.24039(8)
C5 C 0.83962(8) 0.87903(8) 0.13273(8)
C6 C 0.86727(9) 0.87307(9) 0.02515(8)
H7 H 0.9392 0.8210 0.0217
C7 C 0.79300(9) 0.94059(9) -0.07517(8)
C8 C 0.68713(9) 1.02000(9) -0.07187(8)
C9 C 0.65820(9) 1.02458(9) 0.03382(9)
H8 H 0.5864 1.0771 0.0368
C10 C 0.73257(9) 0.95318(9) 0.13735(8)
C11 C 0.69137(9) 0.95895(10) 0.25106(9)
H9 H 0.6981 1.0378 0.2457
H10 H 0.6066 0.9547 0.2601
C12 C 0.76382(9) 0.85564(10) 0.36040(8)
H11 H 0.7469 0.8721 0.4299
H12 H 0.7419 0.7780 0.3787
C13 C 0.89635(8) 0.84613(9) 0.33506(8)
H13 H 0.9051 0.9324 0.2937
C14 C 0.98250(9) 0.78549(9) 0.44662(8)
C15 C 0.95015(10) 0.85911(11) 0.51713(10)
H14 H 1.0156 0.8373 0.5740
H15 H 0.9363 0.9462 0.4623
H16 H 0.8779 0.8409 0.5601
C16 C 0.97822(10) 0.65318(10) 0.53146(9)
H17 H 0.8953 0.6456 0.5423
H18 H 1.0205 0.5998 0.4979
H19 H 1.0162 0.6296 0.6084
C17 C 0.91700(10) 0.66661(9) 0.28113(9)
H20 H 0.9250 0.6490 0.2128
H21 H 0.9803 0.6110 0.3412
H22 H 0.8395 0.6557 0.3152
C18 C 0.92552(10) 0.86478(10) -0.18905(9)
H23 H 0.9287 0.7796 -0.1321
H24 H 0.9329 0.8722 -0.2696
H25 H 0.9909 0.8919 -0.1702
C19 C 0.52984(10) 1.18741(10) -0.18534(10)
H26 H 0.5639 1.2399 -0.1642
H27 H 0.4961 1.2337 -0.2670
H28 H 0.4672 1.1582 -0.1310
O4 O 0.80864(7) 0.24864(7) 1.24274(6)
H29 H 0.7915 0.2659 1.2994
O5 O 0.55779(7) 0.63065(7) 0.47907(6)
O6 O 0.41537(7) 0.82800(7) 0.46167(6)
C20 C 0.73548(9) 0.33742(9) 1.13951(8)
H30 H 0.6513 0.3298 1.1565
C21 C 0.77359(9) 0.30125(9) 1.04107(9)
H31 H 0.7626 0.2179 1.0658
H32 H 0.8591 0.3003 1.0283
C22 C 0.70235(9) 0.38857(9) 0.92449(8)
H33 H 0.6176 0.3848 0.9357
H34 H 0.7309 0.3624 0.8628
C23 C 0.71362(8) 0.52085(9) 0.88149(8)
C24 C 0.63115(8) 0.60830(9) 0.77161(8)
C25 C 0.63006(8) 0.57733(9) 0.67776(8)
H35 H 0.6785 0.5025 0.6855
C26 C 0.56061(8) 0.65276(9) 0.57509(8)
C27 C 0.48588(8) 0.76211(9) 0.56424(8)
C28 C 0.48914(9) 0.79488(9) 0.65388(8)
H36 H 0.4403 0.8696 0.6459
C29 C 0.56325(8) 0.72007(9) 0.75725(8)
C30 C 0.56509(9) 0.76523(9) 0.84899(9)
H37 H 0.4888 0.7623 0.8894
H38 H 0.5723 0.8511 0.8084
C31 C 0.66707(9) 0.69038(9) 0.94172(9)
H39 H 0.6537 0.7093 1.0099
H40 H 0.7428 0.7114 0.9068
C32 C 0.67479(8) 0.55471(9) 0.98424(8)
H41 H 0.5907 0.5452 0.9975
C33 C 0.74152(8) 0.46931(9) 1.10720(8)
C34 C 0.87017(9) 0.48079(10) 1.11220(9)
H42 H 0.8734 0.5670 1.0731
H43 H 0.9206 0.4387 1.0714
H44 H 0.8987 0.4440 1.1953
C35 C 0.67469(9) 0.50131(10) 1.20163(9)
H45 H 0.7078 0.4402 1.2809
H46 H 0.5902 0.5025 1.1957
H47 H 0.6834 0.5816 1.1884
C36 C 0.84116(8) 0.53144(10) 0.84121(9)
H48 H 0.8543 0.5186 0.7702
H49 H 0.8984 0.4698 0.9050
H50 H 0.8518 0.6126 0.8228
C37 C 0.63961(10) 0.52526(10) 0.48425(9)
H51 H 0.7210 0.5320 0.4927
H52 H 0.6306 0.5188 0.4111
H53 H 0.6235 0.4526 0.5525
C38 C 0.34726(10) 0.94532(10) 0.44204(10)
H54 H 0.2890 0.9360 0.5037
H55 H 0.3058 0.9860 0.3638
H56 H 0.4004 0.9943 0.4452
O4 O 0.19136(7) 0.75136(7) -0.24274(6)
H29 H 0.2085 0.7341 -0.2994
O5 O 0.44221(7) 0.36935(7) 0.52093(6)
O6 O 0.58463(7) 0.17200(7) 0.53833(6)
C20 C 0.26452(9) 0.66258(9) -0.13951(8)
H30 H 0.3487 0.6702 -0.1565
C21 C 0.22641(9) 0.69875(9) -0.04107(9)
H31 H 0.2374 0.7821 -0.0658
H32 H 0.1409 0.6997 -0.0283
C22 C 0.29765(9) 0.61143(9) 0.07551(8)
H33 H 0.3824 0.6152 0.0643
H34 H 0.2691 0.6376 0.1372
C23 C 0.28638(8) 0.47915(9) 0.11851(8)
C24 C 0.36885(8) 0.39170(9) 0.22839(8)
C25 C 0.36994(8) 0.42267(9) 0.32224(8)
H35 H 0.3215 0.4975 0.3145
C26 C 0.43939(8) 0.34724(9) 0.42491(8)
C27 C 0.51412(8) 0.23789(9) 0.43576(8)
C28 C 0.51086(9) 0.20512(9) 0.34612(8)
H36 H 0.5597 0.1304 0.3541
C29 C 0.43675(8) 0.27993(9) 0.24275(8)
C30 C 0.43491(9) 0.23477(9) 0.15101(9)
H37 H 0.5112 0.2377 0.1106
H38 H 0.4277 0.1489 0.1916
C31 C 0.33293(9) 0.30962(9) 0.05828(9)
H39 H 0.3463 0.2907 -0.0099
H40 H 0.2572 0.2886 0.0932
C32 C 0.32521(8) 0.44529(9) 0.01576(8)
H41 H 0.4093 0.4548 0.0025
C33 C 0.25848(8) 0.53069(9) -0.10720(8)
C34 C 0.12983(9) 0.51921(10) -0.11220(9)
H42 H 0.1266 0.4330 -0.0731
H43 H 0.0794 0.5613 -0.0714
H44 H 0.1013 0.5560 -0.1953
C35 C 0.32531(9) 0.49869(10) -0.20163(9)
H45 H 0.2922 0.5598 -0.2809
H46 H 0.4098 0.4975 -0.1957
H47 H 0.3166 0.4184 -0.1884
C36 C 0.15884(8) 0.46856(10) 0.15879(9)
H48 H 0.1457 0.4814 0.2298
H49 H 0.1016 0.5302 0.0950
H50 H 0.1482 0.3874 0.1772
C37 C 0.36039(10) 0.47474(10) 0.51575(9)
H51 H 0.2790 0.4680 0.5073
H52 H 0.3694 0.4812 0.5889
H53 H 0.3765 0.5474 0.4475
C38 C 0.65274(10) 0.05468(10) 0.55796(10)
H54 H 0.7110 0.0640 0.4963
H55 H 0.6942 0.0140 0.6362
H56 H 0.5996 0.0057 0.5548

#END
