./KABDIC_from_POSCAR.cif_generated_by_CrystalShift
_symmetry_cell_setting triclinic
_symmetry_space_group_name_H-M 'P 1'
loop_
_symmetry_equiv_pos_site_id
_symmetry_equiv_pos_as_xyz
1 x,y,z
_cell_length_a 7.973700
_cell_length_b 6.259100
_cell_length_c 33.265000
_cell_angle_alpha 90.000000
_cell_angle_beta 93.805000
_cell_angle_gamma 90.000000
_cell_volume 1656.536195
loop_
_atom_site_label
_atom_site_type_symbol
_atom_site_fract_x
_atom_site_fract_y
_atom_site_fract_z
H1 H 0.130000 0.339100 0.514600
H2 H 0.217700 0.584900 0.624800
H3 H 0.169900 0.471400 0.778900
H4 H 0.260900 0.483300 0.846900
H5 H 0.422500 0.203800 0.875800
H6 H 0.487000 -0.089600 0.836600
H7 H 0.394200 -0.105200 0.768600
H8 H 0.322100 -0.012300 0.635700
H9 H 0.400200 -0.021000 0.704200
H10 H 0.011000 0.370100 0.725300
H11 H -0.069400 0.373900 0.656900
H12 H 0.144500 0.072300 0.581400
H13 H -0.078900 -0.146700 0.563200
H14 H -0.362400 -0.201800 0.542800
H15 H -0.555800 0.075400 0.547300
H16 H -0.465700 0.411200 0.570400
H17 H -0.181700 0.469400 0.590000
H18 H 0.870000 0.839100 0.985400
H19 H 0.743300 1.198500 0.990800
H20 H 0.782300 1.084900 0.875200
H21 H 0.830100 0.971400 0.721100
H22 H 0.739100 0.983300 0.653100
H23 H 0.577500 0.703800 0.624200
H24 H 0.513000 0.410400 0.663400
H25 H -0.181700 0.030600 0.090000
H26 H -0.465700 0.088800 0.070400
H27 H -0.555800 0.424600 0.047300
H28 H -0.362400 0.701800 0.042800
H29 H -0.078900 0.646700 0.063200
H30 H 0.144500 0.427700 0.081400
H31 H -0.069400 0.126100 0.156900
H32 H 0.011000 0.129900 0.225300
H33 H 0.400200 0.521000 0.204200
H34 H 0.322100 0.512300 0.135700
H35 H 0.394200 0.605200 0.268600
H36 H 0.487000 0.589600 0.336600
H37 H 0.422500 0.296200 0.375800
H38 H 0.260900 0.016700 0.346900
H39 H 0.169900 0.028600 0.278900
H40 H 0.217700 -0.084900 0.124800
H41 H 0.256700 -0.198500 0.009200
H42 H 0.130000 0.160900 0.014600
H43 H 0.605800 0.394800 0.731400
H44 H 0.677900 0.487700 0.864300
H45 H 0.599800 0.479000 0.795800
H46 H 0.989000 0.870100 0.774700
H47 H 1.069400 0.873900 0.843100
H48 H 0.855500 0.572300 0.918600
H49 H 1.078900 0.353300 0.936800
H50 H 1.362400 0.298200 0.957200
H51 H 1.555800 0.575400 0.952700
H52 H 1.465700 0.911200 0.929600
H53 H 1.181700 0.969400 0.910000
H54 H 0.870000 0.660900 0.485400
H55 H 0.743300 0.301500 0.490800
H56 H 0.782300 0.415100 0.375200
H57 H 0.830100 0.528600 0.221100
H58 H 0.739100 0.516700 0.153100
H59 H 0.577500 0.796200 0.124200
H60 H 0.513000 1.089600 0.163400
H61 H 0.605800 1.105200 0.231400
H62 H 0.677900 1.012300 0.364300
H63 H 0.599800 1.021000 0.295800
H64 H 0.989000 0.629900 0.274700
H65 H 1.069400 0.626100 0.343100
H66 H 0.855500 0.927700 0.418600
H67 H 1.181700 0.530600 0.410000
H68 H 1.465700 0.588800 0.429600
H69 H 1.555800 0.924600 0.452700
H70 H 1.362400 1.201800 0.457200
H71 H 1.078900 1.146700 0.436800
H72 H 0.256700 0.698500 0.509200
C73 C 0.767180 0.370100 0.466390
C74 C 0.787920 0.430800 0.403640
C75 C 0.765700 0.643600 0.209620
C76 C 0.711130 0.635800 0.169000
C77 C 0.615980 0.801800 0.151820
C78 C 0.577610 0.975400 0.175180
C79 C 0.632780 0.984500 0.215790
C80 C 0.727600 0.817700 0.233820
C81 C 0.741310 0.933400 0.346190
C82 C 0.694120 0.938000 0.305190
C83 C 0.783360 0.822100 0.277570
C84 C 0.924560 0.707400 0.292770
C85 C -0.102840 0.334200 0.079360
C86 C -0.218160 0.167800 0.080860
C87 C 1.102840 0.665800 0.920640
C88 C 1.218160 0.832200 0.919140
C89 C 1.387060 0.797800 0.931000
C90 C 1.440510 0.598700 0.944850
C91 C 1.326010 0.433900 0.947290
C92 C 1.157190 0.466900 0.935150
C93 C 0.917750 0.693400 0.906790
C94 C 0.879670 0.684500 0.861190
C95 C 0.972530 0.795600 0.833670
C96 C 0.924560 0.792600 0.792770
C97 C 0.783360 0.677900 0.777570
C98 C 0.694120 0.562000 0.805190
C99 C 0.741310 0.566600 0.846190
C100 C 0.727600 0.682300 0.733820
C101 C 0.632780 0.515500 0.715790
C102 C 0.577610 0.524600 0.675180
C103 C 0.615980 0.698200 0.651820
C104 C 0.711130 0.864200 0.669000
C105 C 0.765700 0.856400 0.709620
C106 C 0.787920 1.069200 0.903640
C107 C 0.767180 1.129900 0.966390
C108 C 0.836960 0.931900 0.963730
C109 C 0.972530 0.704400 0.333670
C110 C 0.879670 0.815500 0.361190
C111 C 0.917750 0.806600 0.406790
C112 C 1.157190 1.033100 0.435150
C113 C 1.326010 1.066100 0.447290
C114 C 1.440510 0.901300 0.444850
C115 C 1.387060 0.702200 0.431000
C116 C 1.218160 0.667800 0.419140
C117 C 1.102840 0.834200 0.420640
C118 C -0.387060 0.202200 0.069000
C119 C -0.440510 0.401300 0.055150
C120 C 0.163040 0.068100 0.036270
C121 C 0.232820 -0.129900 0.033610
C122 C 0.212080 -0.069200 0.096360
C123 C 0.234300 0.143600 0.290380
C124 C 0.288870 0.135800 0.331000
C125 C 0.384020 0.301800 0.348180
C126 C 0.422390 0.475400 0.324820
C127 C -0.326010 0.566100 0.052710
C128 C -0.157190 0.533100 0.064850
C129 C -0.102840 0.165800 0.579360
C130 C -0.218160 0.332200 0.580860
C131 C -0.387060 0.297800 0.569000
C132 C -0.440510 0.098700 0.555150
C133 C -0.326010 -0.066100 0.552710
C134 C -0.157190 -0.033100 0.564850
C135 C 0.082250 0.193400 0.593210
C136 C 0.120330 0.184500 0.638810
C137 C 0.027470 0.295600 0.666330
C138 C 0.075440 0.292600 0.707230
C139 C 0.216640 0.177900 0.722430
C140 C 0.305880 0.062000 0.694810
C141 C 0.258690 0.066600 0.653810
C142 C 0.272400 0.182300 0.766180
C143 C 0.367220 0.015500 0.784210
C144 C 0.422390 0.024600 0.824820
C145 C 0.384020 0.198200 0.848180
C146 C 0.288870 0.364200 0.831000
C147 C 0.234300 0.356400 0.790380
C148 C 0.212080 0.569200 0.596360
C149 C 0.232820 0.629900 0.533610
C150 C 0.163040 0.431900 0.536270
C151 C 0.367220 0.484500 0.284210
C152 C 0.272400 0.317700 0.266180
C153 C 0.258690 0.433400 0.153810
C154 C 0.305880 0.438000 0.194810
C155 C 0.216640 0.322100 0.222430
C156 C 0.075440 0.207400 0.207230
C157 C 0.027470 0.204400 0.166330
C158 C 0.120330 0.315500 0.138810
C159 C 0.082250 0.306600 0.093210
C160 C 0.836960 0.568100 0.463730
N161 N 0.849860 0.606410 0.423330
N162 N 0.736260 0.283800 0.428570
N163 N 0.736260 1.216200 0.928570
N164 N 0.849860 0.893590 0.923330
N165 N 0.263740 -0.216200 0.071430
N166 N 0.150140 0.393590 0.576670
N167 N 0.263740 0.716200 0.571430
N168 N 0.150140 0.106410 0.076670

#END
