./KABDEX_from_POSCAR.cif_generated_by_CrystalShift
_symmetry_cell_setting triclinic
_symmetry_space_group_name_H-M 'P 1'
loop_
_symmetry_equiv_pos_site_id
_symmetry_equiv_pos_as_xyz
1 x,y,z
_cell_length_a 21.587000
_cell_length_b 8.979000
_cell_length_c 26.183000
_cell_angle_alpha 90.000000
_cell_angle_beta 104.844000
_cell_angle_gamma 90.000000
_cell_volume 4905.672612
loop_
_atom_site_label
_atom_site_type_symbol
_atom_site_fract_x
_atom_site_fract_y
_atom_site_fract_z
H1 H 0.240100 0.459300 0.436600
H2 H 0.347300 0.480800 0.480800
H3 H 0.413500 0.653800 0.462900
H4 H 0.374000 0.824200 0.393500
H5 H 0.266300 0.821200 0.350800
H6 H -0.001300 0.587300 0.441000
H7 H 0.839800 0.391300 0.125100
H8 H -0.045900 0.804700 0.464500
H9 H -0.012800 1.023900 0.445400
H10 H 0.954800 0.548500 0.187400
H11 H 0.069600 1.036200 0.404000
H12 H 0.960100 0.646900 0.271000
H13 H 1.006100 0.509200 0.283800
H14 H 0.261700 0.573000 0.276800
H15 H 0.880000 0.521800 0.292600
H16 H 0.941500 0.494800 0.338800
H17 H 0.295100 0.412400 0.218200
H18 H 0.955000 0.261200 0.307800
H19 H 0.884300 0.272400 0.312800
H20 H 0.217800 0.276200 0.157600
H21 H 0.110200 0.289100 0.158900
H22 H 0.079600 0.461800 0.214700
H23 H 0.115700 0.772400 0.187200
H24 H 0.920400 -0.038200 0.285300
H25 H 0.045000 0.761200 0.192200
H26 H 0.889800 -0.210900 0.341100
H27 H 0.058500 0.994800 0.161200
H28 H 0.782200 -0.223800 0.342400
H29 H 0.120000 1.021800 0.207400
H30 H 0.704900 -0.087600 0.281800
H31 H -0.006100 1.009200 0.216200
H32 H 0.738300 0.073000 0.223200
H33 H 0.039900 1.146900 0.229000
H34 H 0.045200 1.048500 0.312600
H35 H 0.930400 0.536200 0.096000
H36 H 0.160200 0.891300 0.374900
H37 H 1.012800 0.523900 0.054600
H38 H 0.740100 -0.040700 0.936600
H39 H 1.045900 0.304700 0.035500
H40 H 0.847300 -0.019200 0.980800
H41 H 1.001300 0.087300 0.059000
H42 H 0.913500 0.153800 0.962900
H43 H 0.874000 0.324200 0.893500
H44 H 0.733700 0.321200 0.149200
H45 H 0.766300 0.321200 0.850800
H46 H 0.626000 0.324200 0.106500
H47 H 0.498700 0.087300 0.941000
H48 H 0.586500 0.153800 0.037100
H49 H 0.454100 0.304700 0.964500
H50 H 0.652700 -0.019200 0.019200
H51 H 0.487200 0.523900 0.945400
H52 H 0.759900 -0.040700 0.063400
H53 H 0.569600 0.536200 0.904000
H54 H 0.761700 0.073000 0.776800
H55 H 0.795100 -0.087600 0.718200
H56 H 0.717800 -0.223800 0.657600
H57 H 0.610200 -0.210900 0.658900
H58 H 0.579600 -0.038200 0.714700
H59 H 0.339800 0.891300 0.625100
H60 H 0.615700 0.272400 0.687200
H61 H 0.545000 0.261200 0.692200
H62 H 0.454800 1.048500 0.687400
H63 H 0.558500 0.494800 0.661200
H64 H 0.460100 1.146900 0.771000
H65 H 0.506100 1.009200 0.783800
H66 H 0.620000 0.521800 0.707400
H67 H 0.380000 1.021800 0.792600
H68 H 0.441500 0.994800 0.838800
H69 H 0.493900 0.509200 0.716200
H70 H 0.455000 0.761200 0.807800
H71 H 0.384300 0.772400 0.812800
H72 H 0.539900 0.646900 0.729000
H73 H 0.545200 0.548500 0.812600
H74 H 0.660200 0.391300 0.874900
H75 H 0.740100 0.540700 0.436600
H76 H 0.420400 0.461800 0.785300
H77 H 0.847300 0.519200 0.480800
H78 H 0.389800 0.289100 0.841100
H79 H 0.913500 0.346200 0.462900
H80 H 0.282200 0.276200 0.842400
H81 H 0.874000 0.175800 0.393500
H82 H 0.204900 0.412400 0.781800
H83 H 0.766300 0.178800 0.350800
H84 H 0.238300 0.573000 0.723200
H85 H 0.498700 0.412700 0.441000
H86 H 0.454100 0.195300 0.464500
H87 H 0.430400 1.036200 0.596000
H88 H 0.487200 -0.023900 0.445400
H89 H 0.512800 1.023900 0.554600
H90 H 0.569600 -0.036200 0.404000
H91 H 0.545900 0.804700 0.535500
H92 H 0.761700 0.427000 0.276800
H93 H 0.501300 0.587300 0.559000
H94 H 0.795100 0.587600 0.218200
H95 H 0.717800 0.723800 0.157600
H96 H 0.233700 0.821200 0.649200
H97 H 0.610200 0.710900 0.158900
H98 H 0.126000 0.824200 0.606500
H99 H 0.579600 0.538200 0.214700
H100 H 0.086500 0.653800 0.537100
H101 H 0.615700 0.227600 0.187200
H102 H 0.152700 0.480800 0.519200
H103 H 0.545000 0.238800 0.192200
H104 H 0.259900 0.459300 0.563400
H105 H 0.558500 0.005200 0.161200
H106 H 0.620000 -0.021800 0.207400
H107 H 0.493900 -0.009200 0.216200
H108 H 0.539900 -0.146900 0.229000
H109 H 0.545200 -0.048500 0.312600
H110 H 0.660200 0.108700 0.374900
H111 H 0.339800 0.608700 0.125100
H112 H 0.240100 1.040700 0.936600
H113 H 0.347300 1.019200 0.980800
H114 H 0.454800 0.451500 0.187400
H115 H 0.413500 0.846200 0.962900
H116 H 0.460100 0.353100 0.271000
H117 H 0.506100 0.490800 0.283800
H118 H 0.374000 0.675800 0.893500
H119 H 0.380000 0.478200 0.292600
H120 H 0.441500 0.505200 0.338800
H121 H 0.266300 0.678800 0.850800
H122 H 0.455000 0.738800 0.307800
H123 H 0.384300 0.727600 0.312800
H124 H -0.001300 0.912700 0.941000
H125 H -0.045900 0.695300 0.964500
H126 H -0.012800 0.476100 0.945400
H127 H 0.069600 0.463800 0.904000
H128 H 0.420400 1.038200 0.285300
H129 H 0.261700 0.927000 0.776800
H130 H 0.389800 1.210900 0.341100
H131 H 0.295100 1.087600 0.718200
H132 H 0.282200 1.223800 0.342400
H133 H 0.217800 1.223800 0.657600
H134 H 0.204900 1.087600 0.281800
H135 H 0.110200 1.210900 0.658900
H136 H 0.238300 0.927000 0.223200
H137 H 0.079600 1.038200 0.714700
H138 H 0.115700 0.727600 0.687200
H139 H 0.430400 0.463800 0.096000
H140 H 0.045000 0.738800 0.692200
H141 H 0.512800 0.476100 0.054600
H142 H 0.058500 0.505200 0.661200
H143 H 0.545900 0.695300 0.035500
H144 H 0.120000 0.478200 0.707400
H145 H 0.501300 0.912700 0.059000
H146 H -0.006100 0.490800 0.716200
H147 H 0.039900 0.353100 0.729000
H148 H 0.233700 0.678800 0.149200
H149 H 0.045200 0.451500 0.812600
H150 H 0.126000 0.675800 0.106500
H151 H 0.160200 0.608700 0.874900
H152 H 0.086500 0.846200 0.037100
H153 H 0.759900 0.540700 0.563400
H154 H 0.152700 1.019200 0.019200
H155 H 0.652700 0.519200 0.519200
H156 H 0.259900 1.040700 0.063400
H157 H 0.586500 0.346200 0.537100
H158 H 0.626000 0.175800 0.606500
H159 H 0.733700 0.178800 0.649200
H160 H 1.001300 0.412700 0.559000
H161 H 1.045900 0.195300 0.535500
H162 H 1.012800 -0.023900 0.554600
H163 H 0.839800 0.108700 0.625100
H164 H 0.930400 -0.036200 0.596000
H165 H 0.738300 0.427000 0.723200
H166 H 0.954800 -0.048500 0.687400
H167 H 0.704900 0.587600 0.781800
H168 H 0.960100 -0.146900 0.771000
H169 H 1.006100 -0.009200 0.783800
H170 H 0.782200 0.723800 0.842400
H171 H 0.880000 -0.021800 0.792600
H172 H 0.941500 0.005200 0.838800
H173 H 0.889800 0.710900 0.841100
H174 H 0.955000 0.238800 0.807800
H175 H 0.884300 0.227600 0.812800
H176 H 0.920400 0.538200 0.785300
C177 C 0.854300 0.349600 0.716400
C178 C 0.833300 0.464400 0.750900
C179 C 0.877400 0.548400 0.784600
C180 C 0.890000 0.231000 0.737000
C181 C 0.859300 0.651000 0.818800
C182 C 0.914000 0.190600 0.793500
C183 C 0.794500 0.661200 0.818500
C184 C 0.921800 0.025300 0.801800
C185 C 0.748100 0.578500 0.782700
C186 C 0.961900 -0.039000 0.769100
C187 C 0.768400 0.480800 0.748100
C188 C 0.941600 0.007600 0.712600
C189 C 0.920800 0.177300 0.605000
C190 C 0.946000 0.056500 0.589400
C191 C 0.905600 0.126100 0.697300
C192 C 0.994700 0.062800 0.563800
C193 C 0.875200 0.176500 0.640500
C194 C 1.013800 0.189000 0.553200
C195 C 0.330500 0.548000 0.453800
C196 C 0.987200 0.320700 0.567900
C197 C 0.370800 0.651000 0.443500
C198 C 0.758200 0.361500 0.612200
C199 C 0.717100 0.250000 0.623600
C200 C 0.347000 0.754000 0.402600
C201 C 0.653000 0.246000 0.597400
C202 C 0.282900 0.750000 0.376400
C203 C 0.629200 0.349000 0.556500
C204 C 0.241800 0.638500 0.387800
C205 C 0.669500 0.452000 0.546200
C206 C 0.234300 0.967000 0.072000
C207 C 0.734300 0.467000 0.572000
C208 C 0.169500 0.952000 0.046200
C209 C 0.875200 0.323500 0.140500
C210 C 0.012800 0.679300 0.432100
C211 C 0.905600 0.373900 0.197300
C212 C -0.013800 0.811000 0.446800
C213 C 0.941600 0.492400 0.212600
C214 C 0.124800 0.676500 0.859500
C215 C 0.129200 0.849000 0.056500
C216 C 0.094400 0.626100 0.802700
C217 C 0.058400 0.507600 0.787400
C218 C 0.153000 0.746000 0.097400
C219 C 0.038100 0.461000 0.730900
C220 C 0.217100 0.750000 0.123600
C221 C 0.258200 0.861500 0.112200
C222 C 0.078200 0.525300 0.698200
C223 C 0.487200 0.820700 0.067900
C224 C 0.513800 0.689000 0.053200
C225 C 0.086000 0.690600 0.706500
C226 C 0.494700 0.562800 0.063800
C227 C 0.446000 0.556500 0.089400
C228 C 0.110000 0.731000 0.763000
C229 C 0.145700 0.849600 0.783600
C230 C 0.166700 0.964400 0.749100
C231 C 0.122600 1.048400 0.715400
C232 C 0.420800 0.677300 0.105000
C233 C 0.140700 1.151000 0.681200
C234 C 0.268400 0.980800 0.248100
C235 C 0.205500 1.161200 0.681500
C236 C 0.248100 1.078500 0.282700
C237 C 0.251900 1.078500 0.717300
C238 C 0.294500 1.161200 0.318500
C239 C 0.231600 0.980800 0.751900
C240 C 0.359300 1.151000 0.318800
C241 C 0.079200 0.677300 0.895000
C242 C 0.054000 0.556500 0.910600
C243 C 0.377400 1.048400 0.284600
C244 C 0.005300 0.562800 0.936200
C245 C 0.333300 0.964400 0.250900
C246 C -0.013800 0.689000 0.946800
C247 C 0.354300 0.849600 0.216400
C248 C 0.012800 0.820700 0.932100
C249 C 0.390000 0.731000 0.237000
C250 C 0.241800 0.861500 0.887800
C251 C 0.282900 0.750000 0.876400
C252 C 0.414000 0.690600 0.293500
C253 C 0.347000 0.746000 0.902600
C254 C 0.421800 0.525300 0.301800
C255 C 0.370800 0.849000 0.943500
C256 C 0.461900 0.461000 0.269100
C257 C 0.330500 0.952000 0.953800
C258 C 0.441600 0.507600 0.212600
C259 C 0.265700 0.967000 0.928000
C260 C 0.405600 0.626100 0.197300
C261 C 0.005300 0.937200 0.436200
C262 C 0.961900 0.539000 0.269100
C263 C 0.054000 0.943500 0.410600
C264 C 0.079200 0.822700 0.395000
C265 C 0.921800 0.474700 0.301800
C266 C 0.624800 0.176500 0.359500
C267 C 0.375200 0.676500 0.140500
C268 C 0.594400 0.126100 0.302700
C269 C 0.558400 0.007600 0.287400
C270 C 0.231600 0.519200 0.251900
C271 C 0.538100 -0.039000 0.230900
C272 C 0.914000 0.309400 0.293500
C273 C 0.251900 0.421500 0.217300
C274 C 0.578200 0.025300 0.198200
C275 C 0.890000 0.269000 0.237000
C276 C 0.205500 0.338800 0.181500
C277 C 0.586000 0.190600 0.206500
C278 C 0.234300 0.533000 0.572000
C279 C 0.169500 0.548000 0.546200
C280 C 0.610000 0.231000 0.263000
C281 C 0.645700 0.349600 0.283600
C282 C 0.666700 0.464400 0.249100
C283 C 0.622600 0.548400 0.215400
C284 C 0.129200 0.651000 0.556500
C285 C 0.640700 0.651000 0.181200
C286 C 0.153000 0.754000 0.597400
C287 C 0.705500 0.661200 0.181500
C288 C 0.217100 0.750000 0.623600
C289 C 0.751900 0.578500 0.217300
C290 C 0.258200 0.638500 0.612200
C291 C 0.731600 0.480800 0.251900
C292 C 0.487200 0.679300 0.567900
C293 C 0.579200 0.177300 0.395000
C294 C 0.554000 0.056500 0.410600
C295 C 0.513800 0.811000 0.553200
C296 C 0.505300 0.062800 0.436200
C297 C 0.494700 0.937200 0.563800
C298 C 0.486200 0.189000 0.446800
C299 C 0.446000 0.943500 0.589400
C300 C 0.512800 0.320700 0.432100
C301 C 0.420800 0.822700 0.605000
C302 C 0.741800 0.361500 0.387800
C303 C 0.782900 0.250000 0.376400
C304 C 0.268400 0.519200 0.748100
C305 C 0.847000 0.246000 0.402600
C306 C 0.248100 0.421500 0.782700
C307 C 0.870800 0.349000 0.443500
C308 C 0.294500 0.338800 0.818500
C309 C 0.830500 0.452000 0.453800
C310 C 0.359300 0.349000 0.818800
C311 C 0.765700 0.467000 0.428000
C312 C 0.377400 0.451600 0.784600
C313 C 0.854300 0.150400 0.216400
C314 C 0.140700 0.349000 0.181200
C315 C 0.833300 0.035600 0.250900
C316 C 0.122600 0.451600 0.215400
C317 C 0.166700 0.535600 0.249100
C318 C 0.624800 0.323500 0.859500
C319 C 0.333300 0.535600 0.750900
C320 C 0.594400 0.373900 0.802700
C321 C 0.558400 0.492400 0.787400
C322 C 0.354300 0.650400 0.716400
C323 C 0.538100 0.539000 0.730900
C324 C 0.390000 0.769000 0.737000
C325 C 0.414000 0.809400 0.793500
C326 C 0.578200 0.474700 0.698200
C327 C 0.421800 0.974700 0.801800
C328 C 0.461900 1.039000 0.769100
C329 C 0.586000 0.309400 0.706500
C330 C 0.441600 0.992400 0.712600
C331 C 0.405600 0.873900 0.697300
C332 C 0.610000 0.269000 0.763000
C333 C 0.645700 0.150400 0.783600
C334 C 0.666700 0.035600 0.749100
C335 C 0.622600 -0.048400 0.715400
C336 C 0.375200 0.823500 0.640500
C337 C 0.640700 -0.151000 0.681200
C338 C 0.145700 0.650400 0.283600
C339 C 0.705500 -0.161200 0.681500
C340 C 0.110000 0.769000 0.263000
C341 C 0.751900 -0.078500 0.717300
C342 C 0.877400 -0.048400 0.284600
C343 C 0.731600 0.019200 0.751900
C344 C 0.859300 -0.151000 0.318800
C345 C 0.579200 0.322700 0.895000
C346 C 0.554000 0.443500 0.910600
C347 C 0.086000 0.809400 0.206500
C348 C 0.505300 0.437200 0.936200
C349 C 0.734300 0.033000 0.072000
C350 C 0.486200 0.311000 0.946800
C351 C 0.669500 0.048000 0.046200
C352 C 0.512800 0.179300 0.932100
C353 C 0.629200 0.151000 0.056500
C354 C 0.741800 0.138500 0.887800
C355 C 0.782900 0.250000 0.876400
C356 C 0.653000 0.254000 0.097400
C357 C 0.847000 0.254000 0.902600
C358 C 0.717100 0.250000 0.123600
C359 C 0.870800 0.151000 0.943500
C360 C 0.758200 0.138500 0.112200
C361 C 0.830500 0.048000 0.953800
C362 C 0.987200 0.179300 0.067900
C363 C 0.765700 0.033000 0.928000
C364 C 1.013800 0.311000 0.053200
C365 C 0.794500 -0.161200 0.318500
C366 C 0.748100 -0.078500 0.282700
C367 C 0.078200 0.974700 0.198200
C368 C 0.768400 0.019200 0.248100
C369 C 0.920800 0.322700 0.105000
C370 C 0.124800 0.823500 0.359500
C371 C 0.994700 0.437200 0.063800
C372 C 0.094400 0.873900 0.302700
C373 C 0.058400 0.992400 0.287400
C374 C 0.946000 0.443500 0.089400
C375 C 0.038100 1.039000 0.230900
C376 C 0.265700 0.533000 0.428000
N377 N 0.943200 0.314700 0.593700
N378 N 0.943200 0.185300 0.093700
N379 N 0.056800 0.814700 0.906300
N380 N 0.556800 0.314700 0.406300
N381 N 0.443200 0.814700 0.093700
N382 N 0.556800 0.185300 0.906300
N383 N 0.443200 0.685300 0.593700
N384 N 0.056800 0.685300 0.406300
P385 P 0.158410 0.638400 0.353960
P386 P 0.841590 0.361600 0.646040
P387 P 0.658410 0.138400 0.853960
P388 P 0.841590 0.138400 0.146040
P389 P 0.158410 0.861600 0.853960
P390 P 0.341590 0.638400 0.646040
P391 P 0.658410 0.361600 0.353960
P392 P 0.341590 0.861600 0.146040
Cl393 Cl 0.351100 1.211600 0.141800
Cl394 Cl 0.462100 1.171200 0.071790
Cl395 Cl 0.962100 -0.171200 0.071790
Cl396 Cl 0.351100 0.288400 0.641800
Cl397 Cl 0.851100 -0.211600 0.141800
Cl398 Cl 0.648900 0.711600 0.358200
Cl399 Cl 0.537900 0.671200 0.428210
Cl400 Cl 0.462100 0.328800 0.571790
Cl401 Cl 0.037900 0.328800 0.428210
Cl402 Cl 0.537900 -0.171200 0.928210
Cl403 Cl 0.148900 1.211600 0.858200
Cl404 Cl 0.037900 1.171200 0.928210
Cl405 Cl 0.648900 -0.211600 0.858200
Cl406 Cl 0.851100 0.711600 0.641800
Cl407 Cl 0.962100 0.671200 0.571790
Cl408 Cl 0.148900 0.288400 0.358200
Pd409 Pd 0.098660 1.010540 0.886820
Pd410 Pd 0.598660 -0.010540 0.886820
Pd411 Pd 0.401340 1.010540 0.113180
Pd412 Pd 0.098660 0.489460 0.386820
Pd413 Pd 0.401340 0.489460 0.613180
Pd414 Pd 0.598660 0.510540 0.386820
Pd415 Pd 0.901340 0.510540 0.613180
Pd416 Pd 0.901340 -0.010540 0.113180

#END
