
#######################################################################
#
#                 Cambridge Crystallographic Data Centre
#                                CCDC 
#
#######################################################################
#
# If this CIF has been generated from an entry in the Cambridge 
# Structural Database, then it will include bibliographic, chemical, 
# crystal, experimental, refinement or atomic coordinate data resulting 
# from the CCDC's data processing and validation procedures.
#
#######################################################################

data_KABHED
_symmetry_cell_setting           triclinic
_symmetry_space_group_name_H-M   'P -1'
_symmetry_Int_Tables_number      2
_space_group_name_Hall           '-P 1'
loop_
_symmetry_equiv_pos_site_id
_symmetry_equiv_pos_as_xyz
1 x,y,z
2 -x,-y,-z
_cell_length_a                   7.1803(5)
_cell_length_b                   8.0598(6)
_cell_length_c                   13.9214(10)
_cell_angle_alpha                98.659(6)
_cell_angle_beta                 92.733(6)
_cell_angle_gamma                108.798(7)
_cell_volume                     749.996
loop_
_atom_site_label
_atom_site_type_symbol
_atom_site_fract_x
_atom_site_fract_y
_atom_site_fract_z
O1 O 0.21292(16) -0.21068(14) 0.48692(8)
O2 O 0.09325(19) -0.44948(14) 0.37157(9)
O3 O 0.13939(18) -0.33887(14) 0.18703(8)
O4 O -0.11317(18) -0.24655(16) 0.18854(9)
N1 N 0.0383(2) -0.25905(17) 0.22769(10)
N2 N 0.37823(19) 0.07687(16) 0.20645(9)
C1 C 0.2636(2) -0.0291(2) 0.51815(11)
C2 C 0.3543(2) 0.0345(2) 0.61256(12)
H1 H 0.3792 -0.0442 0.6519
C3 C 0.4080(2) 0.2148(2) 0.64858(12)
H2 H 0.4723 0.2609 0.7129
C4 C 0.3686(2) 0.3289(2) 0.59127(13)
H3 H 0.4035 0.4522 0.6172
C5 C 0.2793(2) 0.2648(2) 0.49724(12)
H4 H 0.2540 0.3444 0.4587
C6 C 0.2249(2) 0.0820(2) 0.45744(11)
C7 C 0.1389(2) 0.0054(2) 0.35779(11)
C8 C 0.1044(2) -0.1706(2) 0.32991(11)
C9 C 0.1344(2) -0.2903(2) 0.39354(12)
C10 C 0.1047(2) 0.1234(2) 0.28921(11)
H5 H 0.0856 0.2293 0.3278
H6 H -0.0180 0.0577 0.2453
C11 C 0.2756(2) 0.18404(19) 0.22778(11)
C12 C 0.3109(3) 0.3469(2) 0.19329(12)
H7 H 0.2307 0.4185 0.2092
C13 C 0.4613(3) 0.3990(2) 0.13704(12)
H8 H 0.4886 0.5090 0.1144
C14 C 0.5775(2) 0.2900(2) 0.11203(11)
C15 C 0.5277(2) 0.1262(2) 0.14790(11)
C16 C 0.6338(2) 0.0095(2) 0.12136(12)
H9 H 0.6006 -0.1008 0.1441
C17 C 0.7837(3) 0.0533(2) 0.06340(12)
H10 H 0.8534 -0.0269 0.0458
C18 C 0.8360(3) 0.2169(2) 0.02937(12)
H11 H 0.9420 0.2469 -0.0102
C19 C 0.7350(3) 0.3323(2) 0.05303(12)
H12 H 0.7710 0.4420 0.0296
O1 O 0.78708(16) 1.21068(14) 0.51308(8)
O2 O 0.90675(19) 1.44948(14) 0.62843(9)
O3 O 0.86061(18) 1.33887(14) 0.81297(8)
O4 O 1.11317(18) 1.24655(16) 0.81146(9)
N1 N 0.9617(2) 1.25905(17) 0.77231(10)
N2 N 0.62177(19) 0.92313(16) 0.79355(9)
C1 C 0.7364(2) 1.0291(2) 0.48185(11)
C2 C 0.6457(2) 0.9655(2) 0.38744(12)
H1 H 0.6208 1.0442 0.3481
C3 C 0.5920(2) 0.7852(2) 0.35142(12)
H2 H 0.5277 0.7391 0.2871
C4 C 0.6314(2) 0.6711(2) 0.40873(13)
H3 H 0.5965 0.5478 0.3828
C5 C 0.7207(2) 0.7352(2) 0.50276(12)
H4 H 0.7460 0.6556 0.5413
C6 C 0.7751(2) 0.9180(2) 0.54256(11)
C7 C 0.8611(2) 0.9946(2) 0.64221(11)
C8 C 0.8956(2) 1.1706(2) 0.67009(11)
C9 C 0.8656(2) 1.2903(2) 0.60646(12)
C10 C 0.8953(2) 0.8766(2) 0.71079(11)
H5 H 0.9144 0.7707 0.6722
H6 H 1.0180 0.9423 0.7547
C11 C 0.7244(2) 0.81596(19) 0.77222(11)
C12 C 0.6891(3) 0.6531(2) 0.80671(12)
H7 H 0.7693 0.5815 0.7908
C13 C 0.5387(3) 0.6010(2) 0.86296(12)
H8 H 0.5114 0.4910 0.8856
C14 C 0.4225(2) 0.7100(2) 0.88797(11)
C15 C 0.4723(2) 0.8738(2) 0.85210(11)
C16 C 0.3662(2) 0.9905(2) 0.87864(12)
H9 H 0.3994 1.1008 0.8559
C17 C 0.2163(3) 0.9467(2) 0.93660(12)
H10 H 0.1466 1.0269 0.9542
C18 C 0.1640(3) 0.7831(2) 0.97063(12)
H11 H 0.0580 0.7531 1.0102
C19 C 0.2650(3) 0.6677(2) 0.94697(12)
H12 H 0.2290 0.5580 0.9704

#END
