./KABHIH_from_POSCAR.cif_generated_by_CrystalShift
_symmetry_cell_setting triclinic
_symmetry_space_group_name_H-M 'P 1'
loop_
_symmetry_equiv_pos_site_id
_symmetry_equiv_pos_as_xyz
1 x,y,z
_cell_length_a 4.572900
_cell_length_b 14.774800
_cell_length_c 19.072000
_cell_angle_alpha 90.000000
_cell_angle_beta 90.000000
_cell_angle_gamma 90.000000
_cell_volume 1288.574561
loop_
_atom_site_label
_atom_site_type_symbol
_atom_site_fract_x
_atom_site_fract_y
_atom_site_fract_z
H1 H 1.030300 0.707000 0.726300
H2 H 0.116300 1.047900 0.857000
H3 H 1.367300 0.638600 0.652900
H4 H -0.187000 1.030300 0.953600
H5 H -0.203100 0.890800 1.013000
H6 H -0.420900 0.730800 0.027000
H7 H 0.079100 0.769200 0.973000
H8 H -0.703100 0.609200 -0.013000
H9 H 0.802700 1.071100 0.636000
H10 H -0.687000 0.469700 0.046400
H11 H 1.128300 0.999700 0.563900
H12 H -0.383700 0.452100 0.143000
H13 H 0.469700 0.293000 0.226300
H14 H 0.132700 0.361400 0.152900
H15 H -0.060900 0.284500 0.056500
H16 H -0.064900 0.448700 0.249400
H17 H 0.086900 0.136100 0.034400
H18 H 0.371700 0.000300 0.063900
H19 H 0.697300 -0.071100 0.136000
H20 H 1.064900 -0.051300 0.250600
H21 H 0.302700 0.428900 0.364000
H22 H 1.383700 -0.047900 0.357000
H23 H 0.628300 0.500300 0.436100
H24 H 1.687000 -0.030300 0.453600
H25 H 1.703100 0.109200 0.513000
H26 H 0.913100 0.636100 0.465600
H27 H 1.420900 0.230800 0.473000
H28 H 1.060900 0.784500 0.443500
H29 H 1.413100 0.863900 0.534400
H30 H 0.867300 0.861400 0.347100
H31 H -0.030300 0.207000 0.773700
H32 H 0.530300 0.793000 0.273700
H33 H -0.367300 0.138600 0.847100
H34 H -0.560900 0.215500 0.943500
H35 H 1.560900 0.715500 0.556500
H36 H -0.413100 0.363900 0.965600
H37 H 0.435100 1.051300 0.750600
H38 H -0.128300 0.499700 0.936100
H39 H 0.920900 0.269200 0.527000
H40 H 0.197300 0.571100 0.864000
H41 H 1.203100 0.390800 0.487000
H42 H 0.564900 0.551300 0.749400
H43 H 1.187000 0.530300 0.546400
H44 H 0.883700 0.547900 0.643000
C45 C 0.891700 0.491170 0.619670
C46 C 0.722600 0.419680 0.644050
C47 C 0.529300 0.422990 0.703220
C48 C 0.475700 0.493260 0.750080
C49 C 1.070800 0.481080 0.562180
C50 C 0.270900 0.463810 0.797550
C51 C 0.358000 0.348750 0.722670
C52 C 0.377400 0.264140 0.685020
C53 C 0.144800 0.509960 0.855100
C54 C 1.081100 0.397860 0.526950
C55 C -0.047500 0.468420 0.897060
C56 C 0.913300 0.325910 0.550400
C57 C -0.132300 0.375940 0.882950
C58 C 0.736100 0.337500 0.607710
C59 C 1.423300 0.744340 0.586350
C60 C -0.423300 0.244340 0.913650
C61 C 1.307100 0.698940 0.643680
C62 C -0.307100 0.198940 0.856320
C63 C 0.514500 0.671430 0.325090
C64 C -0.106600 0.239510 0.812580
C65 C 0.606600 0.760490 0.312580
C66 C -0.014500 0.328570 0.825090
C67 C 0.807100 0.801060 0.356320
C68 C 1.334700 0.832400 0.573550
C69 C 1.132300 0.875940 0.617050
C70 C 1.236100 0.162500 0.392290
C71 C 1.413300 0.174090 0.449600
C72 C 0.923300 0.755660 0.413650
C73 C 1.581100 0.102140 0.473050
C74 C 0.834700 0.667600 0.426450
C75 C 1.570800 0.018920 0.437820
C76 C 0.632300 0.624060 0.382950
C77 C 1.391700 0.008830 0.380330
C78 C 0.547500 0.531580 0.397060
C79 C 1.222600 0.080320 0.355950
C80 C 1.029300 0.077010 0.296780
C81 C 0.975700 0.006740 0.249920
C82 C 0.355200 0.490040 0.355100
C83 C 0.770900 0.036190 0.202450
C84 C 0.858000 0.151250 0.277330
C85 C 0.877400 0.235860 0.314980
C86 C 0.644800 -0.009960 0.144900
C87 C 0.122600 0.735860 0.185020
C88 C 0.452500 0.031580 0.102940
C89 C 0.142000 0.651250 0.222670
C90 C 0.367700 0.124060 0.117050
C91 C 0.165300 0.167600 0.073550
C92 C 0.229100 0.536190 0.297550
C93 C 0.076700 0.255660 0.086350
C94 C 0.024300 0.506740 0.250080
C95 C 0.192900 0.301060 0.143680
C96 C -0.029300 0.577010 0.203220
C97 C 0.393400 0.260490 0.187420
C98 C -0.222600 0.580320 0.144050
C99 C 0.485500 0.171430 0.174910
C100 C -0.391700 0.508830 0.119670
C101 C 1.047500 0.968420 0.602940
C102 C -0.570800 0.518920 0.062180
C103 C 0.263900 0.837500 0.892290
C104 C 0.086700 0.825910 0.949600
C105 C -0.581100 0.602140 0.026950
C106 C -0.081100 0.897860 0.973050
C107 C -0.413300 0.674090 0.050400
C108 C -0.070800 0.981080 0.937820
C109 C -0.236100 0.662500 0.107710
C110 C 0.108300 0.991170 0.880330
C111 C 1.106600 0.739510 0.687420
C112 C 0.277400 0.919680 0.855950
C113 C 0.470700 0.922990 0.796780
C114 C 0.524300 0.993260 0.749920
C115 C -0.334700 0.332400 0.926450
C116 C 0.729100 0.963810 0.702450
C117 C 0.642000 0.848750 0.777330
C118 C 0.622600 0.764140 0.814980
C119 C 0.855200 1.009960 0.644900
C120 C 1.014500 0.828570 0.674910
N121 N 0.307100 0.626580 0.282100
N122 N 0.192900 0.373420 0.782100
N123 N 0.692900 0.126580 0.217900
N124 N 0.807100 0.873420 0.717900
O125 O 0.427800 0.764000 0.871000
O126 O 0.254500 0.192080 0.693530
O127 O 0.572200 0.264000 0.629000
O128 O 0.745500 0.692080 0.806470
O129 O 0.245500 0.807920 0.193530
O130 O 1.072200 0.236000 0.371000
O131 O 0.754500 0.307920 0.306470
O132 O -0.072200 0.736000 0.129000

#END
