
#######################################################################
#
#                 Cambridge Crystallographic Data Centre
#                                CCDC 
#
#######################################################################
#
# If this CIF has been generated from an entry in the Cambridge 
# Structural Database, then it will include bibliographic, chemical, 
# crystal, experimental, refinement or atomic coordinate data resulting 
# from the CCDC's data processing and validation procedures.
#
#######################################################################

data_KABHEC
_symmetry_cell_setting           triclinic
_symmetry_space_group_name_H-M   'P -1'
_symmetry_Int_Tables_number      2
_space_group_name_Hall           '-P 1'
loop_
_symmetry_equiv_pos_site_id
_symmetry_equiv_pos_as_xyz
1 x,y,z
2 -x,-y,-z
_cell_length_a                   5.3865(7)
_cell_length_b                   8.4609(11)
_cell_length_c                   11.3301(14)
_cell_angle_alpha                77.499(4)
_cell_angle_beta                 76.516(5)
_cell_angle_gamma                89.101(5)
_cell_volume                     489.898
loop_
_atom_site_label
_atom_site_type_symbol
_atom_site_fract_x
_atom_site_fract_y
_atom_site_fract_z
O1 O 0.3030(3) 0.1576(2) 0.41553(14)
C1 C 0.6401(4) 0.2210(3) -0.2060(2)
H1 H 0.5000 0.2686 -0.1579
H2 H 0.5753 0.1429 -0.2424
H3 H 0.7390 0.3041 -0.2707
N1 N 0.5212(3) 0.2232(2) 0.04470(16)
N2 N 0.7383(3) 0.1459(2) -0.00176(16)
H4 H 0.8319 0.1014 0.0474
C2 C 0.1048(5) 0.3982(3) 0.1500(2)
H5 H 0.1575 0.4195 0.0637
C3 C -0.1084(5) 0.4724(3) 0.2049(2)
H6 H -0.1987 0.5420 0.1560
C4 C -0.1852(5) 0.4423(3) 0.3321(2)
H7 H -0.3285 0.4917 0.3696
C5 C -0.0514(5) 0.3388(3) 0.4053(2)
H8 H -0.1048 0.3197 0.4915
C6 C 0.1626(4) 0.2634(3) 0.3506(2)
C7 C 0.2348(6) 0.1311(4) 0.5483(2)
H9 H 0.3527 0.0593 0.5823
H10 H 0.0651 0.0835 0.5791
H11 H 0.2408 0.2326 0.5725
C8 C 0.2427(4) 0.2924(3) 0.22085(19)
C9 C 0.4680(4) 0.2133(3) 0.16151(19)
H12 H 0.5719 0.1559 0.2096
C10 C 0.8059(4) 0.1389(3) -0.12303(19)
O2 O 0.9982(3) 0.0679(2) -0.16141(14)
O1 O 0.6970(3) 0.8424(2) 0.58447(14)
C1 C 0.3599(4) 0.7790(3) 1.2060(2)
H1 H 0.5000 0.7314 1.1579
H2 H 0.4247 0.8571 1.2424
H3 H 0.2610 0.6959 1.2707
N1 N 0.4788(3) 0.7768(2) 0.95530(16)
N2 N 0.2617(3) 0.8541(2) 1.00176(16)
H4 H 0.1681 0.8986 0.9526
C2 C 0.8952(5) 0.6018(3) 0.8500(2)
H5 H 0.8425 0.5805 0.9363
C3 C 1.1084(5) 0.5276(3) 0.7951(2)
H6 H 1.1987 0.4580 0.8440
C4 C 1.1852(5) 0.5577(3) 0.6679(2)
H7 H 1.3285 0.5083 0.6304
C5 C 1.0514(5) 0.6612(3) 0.5947(2)
H8 H 1.1048 0.6803 0.5085
C6 C 0.8374(4) 0.7366(3) 0.6494(2)
C7 C 0.7652(6) 0.8689(4) 0.4517(2)
H9 H 0.6473 0.9407 0.4177
H10 H 0.9349 0.9165 0.4209
H11 H 0.7592 0.7674 0.4275
C8 C 0.7573(4) 0.7076(3) 0.77915(19)
C9 C 0.5320(4) 0.7867(3) 0.83849(19)
H12 H 0.4281 0.8441 0.7904
C10 C 0.1941(4) 0.8611(3) 1.12303(19)
O2 O 0.0018(3) 0.9321(2) 1.16141(14)

#END
