./KABKOP_from_POSCAR.cif_generated_by_CrystalShift
_symmetry_cell_setting triclinic
_symmetry_space_group_name_H-M 'P 1'
loop_
_symmetry_equiv_pos_site_id
_symmetry_equiv_pos_as_xyz
1 x,y,z
_cell_length_a 5.734700
_cell_length_b 14.323700
_cell_length_c 13.772700
_cell_angle_alpha 90.000000
_cell_angle_beta 101.110000
_cell_angle_gamma 90.000000
_cell_volume 1110.116817
loop_
_atom_site_label
_atom_site_type_symbol
_atom_site_fract_x
_atom_site_fract_y
_atom_site_fract_z
H1 H 1.494800 0.882300 0.289600
H2 H 1.302100 0.842700 0.435900
H3 H 0.245900 0.892700 -0.115700
H4 H 0.407200 0.906900 0.052100
H5 H 0.832200 0.746900 0.343800
H6 H 0.991100 0.767500 0.011700
H7 H 0.991100 0.732500 0.511700
H8 H 0.832200 0.753100 -0.156200
H9 H -0.494800 0.382300 0.210400
H10 H 0.407200 0.593100 0.552100
H11 H -0.579800 0.474300 0.152500
H12 H 0.245900 0.607300 0.384300
H13 H 1.579800 0.974300 0.347500
H14 H -0.438500 0.479600 0.261800
H15 H 1.438500 0.979600 0.238200
H16 H -0.105000 0.574600 0.229100
H17 H -0.235000 0.587700 0.118900
H18 H 0.024900 0.548400 0.142600
H19 H 1.302100 0.657300 0.935900
H20 H 1.357500 0.559400 0.986000
H21 H 1.094300 0.594700 0.958100
H22 H -0.094300 0.405300 0.041900
H23 H 0.975100 0.451600 0.857400
H24 H 1.235000 0.412300 0.881100
H25 H 1.105000 0.425400 0.770900
H26 H -0.357500 0.440600 0.014000
H27 H 1.438500 0.520400 0.738200
H28 H 1.579800 0.525700 0.847500
H29 H 1.494800 0.617700 0.789600
H30 H -0.302100 0.342700 0.064100
H31 H 1.357500 0.940600 0.486000
H32 H 1.094300 0.905300 0.458100
H33 H 0.754100 0.392700 0.615700
H34 H 0.167800 0.246900 1.156200
H35 H 0.592800 0.406900 0.447900
H36 H 0.008900 0.232500 0.988300
H37 H 0.008900 0.267500 0.488300
H38 H 0.167800 0.253100 0.656200
H39 H 0.592800 0.093100 0.947900
H40 H -0.494800 0.117700 0.710400
H41 H 0.754100 0.107300 1.115700
H42 H 1.105000 1.074600 0.270900
H43 H -0.579800 0.025700 0.652500
H44 H 1.235000 1.087700 0.381100
H45 H 0.975100 1.048400 0.357400
H46 H -0.438500 0.020400 0.761800
H47 H -0.105000 -0.074600 0.729100
H48 H -0.302100 0.157300 0.564100
H49 H -0.357500 0.059400 0.514000
H50 H -0.094300 0.094700 0.541900
H51 H -0.235000 -0.087700 0.618900
H52 H 0.024900 -0.048400 0.642600
C53 C -0.125500 -0.049470 0.663400
C54 C -0.246300 0.094330 0.561350
C55 C -0.455480 0.053690 0.700340
C56 C -0.222770 0.049390 0.662710
C57 C 0.024870 0.096430 0.819810
C58 C 0.605600 0.132580 1.090060
C59 C 1.246300 0.905670 0.438650
C60 C 0.582600 0.307880 0.755540
C61 C 0.478370 0.320640 0.652170
C62 C 0.252810 0.283360 0.614470
C63 C 0.509800 0.123910 0.990020
C64 C 0.157870 0.292080 0.514480
C65 C 0.288200 0.162120 0.954140
C66 C 0.288200 0.337880 0.454140
C67 C 0.509800 0.376090 0.490020
C68 C 0.157870 0.207920 1.014480
C69 C 0.605600 0.367420 0.590060
C70 C 0.252810 0.216640 1.114470
C71 C 1.125500 1.049470 0.336600
C72 C 0.024870 0.403570 0.319810
C73 C 0.478370 0.179360 1.152170
C74 C 0.582600 0.192120 1.255540
C75 C -0.222770 0.450610 0.162710
C76 C -0.246300 0.405670 0.061350
C77 C 0.975130 0.903570 0.180190
C78 C 1.455480 0.553690 0.799660
C79 C 1.125500 0.450530 0.836600
C80 C -0.125500 0.549470 0.163400
C81 C 1.246300 0.594330 0.938650
C82 C 1.222770 0.549390 0.837290
C83 C 1.455480 0.946310 0.299660
C84 C -0.455480 0.446310 0.200340
C85 C 0.975130 0.596430 0.680190
C86 C 0.394400 0.632580 0.409940
C87 C 0.490200 0.623910 0.509980
C88 C 0.417400 0.692120 0.244460
C89 C 0.417400 0.807880 -0.255540
C90 C 0.521630 0.820640 -0.152170
C91 C 0.747190 0.783360 -0.114470
C92 C 0.711800 0.662120 0.545860
C93 C 0.842130 0.792080 -0.014480
C94 C 0.842130 0.707920 0.485520
C95 C 0.711800 0.837880 0.045860
C96 C 0.490200 0.876090 0.009980
C97 C 0.747190 0.716640 0.385530
C98 C 0.394400 0.867420 -0.090060
C99 C 0.521630 0.679360 0.347830
C100 C 1.222770 0.950610 0.337290
N101 N 0.667590 0.296490 0.837300
N102 N 0.667590 0.203510 1.337300
N103 N 0.332410 0.796490 -0.337300
N104 N 0.332410 0.703510 0.162700
O105 O 1.046630 0.960010 0.128870
O106 O 0.799520 0.840550 0.148360
O107 O -0.041480 0.389120 0.223380
O108 O -0.046630 0.460010 0.371130
O109 O 0.200480 0.340550 0.351640
O110 O -0.041480 0.110880 0.723380
O111 O -0.046630 0.039990 0.871130
O112 O 0.200480 0.159450 0.851640
O113 O 1.041480 0.610880 0.776620
O114 O 1.046630 0.539990 0.628870
O115 O 0.799520 0.659450 0.648360
O116 O 1.041480 0.889120 0.276620

#END
