./KABKUU_from_POSCAR.cif_generated_by_CrystalShift
_symmetry_cell_setting triclinic
_symmetry_space_group_name_H-M 'P 1'
loop_
_symmetry_equiv_pos_site_id
_symmetry_equiv_pos_as_xyz
1 x,y,z
_cell_length_a 10.128000
_cell_length_b 10.831000
_cell_length_c 11.889000
_cell_angle_alpha 82.860000
_cell_angle_beta 86.280000
_cell_angle_gamma 75.650000
_cell_volume 1252.903726
loop_
_atom_site_label
_atom_site_type_symbol
_atom_site_fract_x
_atom_site_fract_y
_atom_site_fract_z
H1 H 0.231000 0.691000 0.859000
H2 H 0.450400 0.293000 0.515400
H3 H 0.769000 0.309000 0.141000
H4 H 0.861100 0.571400 0.698900
H5 H 0.420900 0.090900 0.821000
H6 H 0.699400 0.746800 0.756400
H7 H 0.473600 0.745200 0.793300
H8 H 0.270700 0.189100 0.596800
H9 H 0.856900 0.434400 0.358500
H10 H 0.375000 0.530000 0.536000
H11 H 0.625000 0.470000 0.464000
H12 H 0.541000 0.212400 0.920600
H13 H 0.143100 0.565600 0.641500
H14 H 0.170500 0.203100 0.825500
H15 H 0.378300 0.399400 0.980700
H16 H 0.148300 0.408100 0.917700
H17 H 0.579100 0.909100 0.179000
H18 H 0.729300 0.810900 0.403200
H19 H 0.459000 0.787600 0.079400
H20 H 0.829500 0.796900 0.174500
H21 H 0.526400 0.254800 0.206700
H22 H 0.851700 0.591900 0.082300
H23 H 0.300600 0.253200 0.243600
H24 H 0.079900 0.355300 0.669800
H25 H 0.138900 0.428600 0.301100
H26 H 0.621700 0.600600 0.019300
H27 H 0.549600 0.707000 0.484600
H28 H 0.920100 0.644700 0.330200
C29 C 0.838700 0.630300 0.363300
C30 C 0.314100 0.730700 0.320300
C31 C 0.254100 0.996700 0.191700
C32 C 0.139200 1.108300 0.395300
C33 C 0.417400 0.976200 0.371100
C34 C 0.047300 0.907300 0.333900
C35 C 0.643500 0.661100 0.059200
C36 C 0.631000 0.666900 0.449500
C37 C 0.234700 0.859200 0.525100
C38 C 0.229400 0.431200 0.285800
C39 C 0.327600 0.327600 0.251700
C40 C 0.759500 0.769900 0.145900
C41 C 0.465100 0.327800 0.228700
C42 C 0.552000 0.766000 0.092200
C43 C 0.240500 0.230100 0.854100
C44 C 0.618500 0.834000 0.146800
C45 C 0.731500 0.724300 0.405200
C46 C 0.509400 0.437400 0.238800
C47 C 0.227200 0.344300 0.907600
C48 C 0.765300 0.140800 0.474900
C49 C 0.408600 0.538300 0.272700
C50 C 0.356500 0.338900 0.940800
C51 C 0.723300 0.461000 0.704700
C52 C 0.952700 0.092700 0.666100
C53 C 0.195500 0.487700 0.621100
C54 C 0.448000 0.234000 0.907800
C55 C 0.327900 0.463800 0.567300
C56 C 0.672100 0.536200 0.432700
C57 C 0.582600 0.023800 0.628900
C58 C 0.860800 -0.108300 0.604700
C59 C 0.745900 0.003300 0.808300
C60 C 0.591400 0.461700 0.727300
C61 C 0.490600 0.562600 0.761200
C62 C 0.268500 0.275700 0.594800
C63 C 0.804500 0.512300 0.378900
C64 C 0.685900 0.269300 0.679700
C65 C 0.534900 0.672200 0.771300
C66 C 0.381500 0.166000 0.853200
C67 C 0.672400 0.672400 0.748300
C68 C 0.276700 0.539000 0.295300
C69 C 0.770600 0.568800 0.714200
C70 C 0.843900 0.268900 0.090100
C71 C 0.369000 0.333100 0.550500
C72 C 0.156100 0.731100 0.909900
C73 C 0.161300 0.369700 0.636700
C74 C 0.772800 0.655700 0.092400
N75 N 0.568200 0.343700 0.711000
N76 N 0.431800 0.656300 0.289000
O77 O 0.729800 -0.035000 0.900100
O78 O 0.919700 -0.206600 0.583000
O79 O 0.762800 0.183900 0.383500
O80 O 0.484500 -0.009300 0.626700
O81 O 0.366100 0.543500 0.778200
O82 O 0.785500 0.341100 0.674800
O83 O 0.214500 0.658900 0.325200
O84 O 0.633900 0.456500 0.221800
O85 O -0.058800 0.899200 0.318100
O86 O 1.058800 0.100800 0.681900
O87 O 0.270200 1.035000 0.099900
O88 O 0.080300 1.206600 0.417000
O89 O 0.237200 0.816100 0.616500
O90 O 0.515500 1.009300 0.373300
Cl91 Cl 0.994500 0.294000 0.134830
Cl92 Cl 0.811000 0.344700 -0.045720
Cl93 Cl 0.845200 0.109900 0.097000
Cl94 Cl 0.154800 0.890100 0.903000
Cl95 Cl 0.189000 0.655300 1.045720
Cl96 Cl 0.005500 0.706000 0.865170
Mo97 Mo 0.649280 0.640940 0.257340
Mo98 Mo 0.350720 0.359060 0.742660
W99 W 0.236260 0.931940 0.357858
W100 W 0.763740 0.068060 0.642142

#END
