./KABLOQ_from_POSCAR.cif_generated_by_CrystalShift
_symmetry_cell_setting triclinic
_symmetry_space_group_name_H-M 'P 1'
loop_
_symmetry_equiv_pos_site_id
_symmetry_equiv_pos_as_xyz
1 x,y,z
_cell_length_a 8.489900
_cell_length_b 13.467000
_cell_length_c 10.015000
_cell_angle_alpha 90.000000
_cell_angle_beta 96.040000
_cell_angle_gamma 90.000000
_cell_volume 1138.693295
loop_
_atom_site_label
_atom_site_type_symbol
_atom_site_fract_x
_atom_site_fract_y
_atom_site_fract_z
H1 H 0.110200 0.259000 0.506300
H2 H -0.040500 0.182400 0.720000
H3 H 0.291600 0.286200 0.237200
H4 H -0.032400 0.127100 0.583200
H5 H 0.527900 0.441600 0.117100
H6 H -0.129000 0.226000 0.587600
H7 H 0.795300 0.099500 1.358600
H8 H 0.676800 0.472400 0.301400
H9 H 0.935600 0.002300 1.223800
H10 H 0.577300 0.187500 1.265800
H11 H 0.854200 -0.011700 0.998300
H12 H 0.496600 0.323500 0.539900
H13 H 0.496600 0.176500 1.039900
H14 H 0.854200 0.511700 0.498300
H15 H 0.676800 0.027600 0.801400
H16 H 0.577300 0.312500 0.765800
H17 H 0.527900 0.058400 0.617100
H18 H 0.935600 0.497700 0.723800
H19 H 0.291600 0.213800 0.737200
H20 H 0.795300 0.400500 0.858600
H21 H 0.889800 0.759000 0.993700
H22 H -0.129000 0.274000 0.087600
H23 H -0.032400 0.372900 0.083200
H24 H -0.040500 0.317600 0.220000
H25 H 0.897300 0.813800 0.856500
H26 H 0.102700 0.186200 0.143500
H27 H 0.110200 0.241000 0.006300
H28 H 1.040500 0.682400 0.780000
H29 H 1.032400 0.627100 0.916800
H30 H 0.708400 0.786200 0.262800
H31 H 1.129000 0.726000 0.912400
H32 H 0.472100 0.941600 0.382900
H33 H 0.204700 0.599500 0.141400
H34 H 0.064400 0.502300 0.276200
H35 H 0.323200 0.972400 0.198600
H36 H 0.422700 0.687500 0.234200
H37 H 0.145800 0.488300 0.501700
H38 H 0.503400 0.676500 0.460100
H39 H 0.503400 0.823500 -0.039900
H40 H 0.323200 0.527600 0.698600
H41 H 0.145800 1.011700 0.001700
H42 H 0.472100 0.558400 0.882900
H43 H 0.422700 0.812500 -0.265800
H44 H 0.708400 0.713800 0.762800
H45 H 0.064400 0.997700 -0.223800
H46 H 0.889800 0.741000 0.493700
H47 H 0.204700 0.900500 -0.358600
H48 H 0.897300 0.686200 0.356500
H49 H 1.129000 0.774000 0.412400
H50 H 1.032400 0.872900 0.416800
H51 H 1.040500 0.817600 0.280000
H52 H 0.102700 0.313800 0.643500
C53 C 1.036300 0.809100 0.374700
C54 C 0.236300 0.904880 -0.267000
C55 C 0.108300 0.249040 0.602000
C56 C -0.036300 0.190900 0.625300
C57 C 0.153500 0.963240 -0.186900
C58 C 0.618930 0.430360 0.351330
C59 C 0.367000 0.852510 -0.211390
C60 C 0.763700 0.095120 1.267000
C61 C 0.381070 0.569640 0.648670
C62 C 0.201700 0.971060 -0.051740
C63 C 0.664300 0.635840 0.910860
C64 C 0.332720 0.581140 0.505650
C65 C 0.415300 0.640940 0.423500
C66 C 0.415300 0.859060 -0.076500
C67 C 0.201700 0.528940 0.448260
C68 C 0.332720 0.918860 0.005650
C69 C 0.367000 0.647490 0.288610
C70 C 0.664300 0.864160 0.410860
C71 C 0.153500 0.536760 0.313100
C72 C 0.381070 0.930360 0.148670
C73 C 0.236300 0.595120 0.233000
C74 C 0.335700 0.364160 0.089140
C75 C 1.036300 0.690900 0.874700
C76 C 0.846500 0.036760 1.186900
C77 C 0.667280 0.418860 0.494350
C78 C 0.633000 0.147490 1.211390
C79 C 0.891700 0.749040 0.898000
C80 C 0.108300 0.250960 0.102000
C81 C -0.036300 0.309100 0.125300
C82 C 0.584700 0.359060 0.576500
C83 C 0.798300 0.028940 1.051740
C84 C 0.763700 0.404880 0.767000
C85 C 0.798300 0.471060 0.551740
C86 C 0.846500 0.463240 0.686900
C87 C 0.584700 0.140940 1.076500
C88 C 0.618930 0.069640 0.851330
C89 C 0.633000 0.352510 0.711390
C90 C 0.335700 0.135840 0.589140
C91 C 0.667280 0.081140 0.994350
C92 C 0.891700 0.750960 0.398000
N93 N 0.466200 0.095890 0.657710
N94 N 0.254910 0.200010 0.656030
N95 N 0.254910 0.299990 0.156030
N96 N 0.466200 0.404110 0.157710
N97 N 0.745090 0.799990 0.343970
N98 N 0.533800 0.904110 0.342290
N99 N 0.499900 0.884670 0.207430
N100 N 0.499900 0.615330 0.707430
N101 N 0.533800 0.595890 0.842290
N102 N 0.745090 0.700010 0.843970
N103 N 0.500100 0.384670 0.292570
N104 N 0.500100 0.115330 0.792570
S105 S 0.710330 0.604200 1.072920
S106 S 0.289670 0.104200 0.427080
S107 S 0.710330 0.895800 0.572920
S108 S 0.289670 0.395800 -0.072920

#END
