./KACVUI_from_POSCAR.cif_generated_by_CrystalShift
_symmetry_cell_setting triclinic
_symmetry_space_group_name_H-M 'P 1'
loop_
_symmetry_equiv_pos_site_id
_symmetry_equiv_pos_as_xyz
1 x,y,z
_cell_length_a 33.795000
_cell_length_b 8.871000
_cell_length_c 10.039000
_cell_angle_alpha 90.000000
_cell_angle_beta 98.337000
_cell_angle_gamma 90.000000
_cell_volume 2977.841617
loop_
_atom_site_label
_atom_site_type_symbol
_atom_site_fract_x
_atom_site_fract_y
_atom_site_fract_z
H1 H 0.601300 0.426500 0.422000
H2 H 0.560300 0.170700 0.230200
H3 H 0.813100 1.345800 0.540400
H4 H 0.530000 0.205300 0.100200
H5 H 0.820200 1.562600 0.420000
H6 H 0.544200 0.039400 0.132500
H7 H 0.794000 1.786500 0.480400
H8 H 0.620100 -0.018500 0.125100
H9 H 0.763500 1.797100 0.671400
H10 H 0.646200 0.110300 0.075400
H11 H 0.755400 1.584800 0.793200
H12 H 0.631300 0.123500 0.215700
H13 H 0.592900 0.275200 0.063400
H14 H 0.552300 0.192900 -0.125800
H15 H 0.541200 -0.058800 -0.071800
H16 H 0.585100 -0.099500 -0.092400
H17 H 0.541700 -0.164800 -0.285800
H18 H 0.525000 0.000400 -0.299500
H19 H 0.828400 0.787600 1.200100
H20 H 0.604600 -0.081400 -0.326800
H21 H 0.869200 0.602800 1.148900
H22 H 0.615100 0.170600 -0.375800
H23 H 0.928800 0.710100 1.354400
H24 H 0.884900 0.670600 1.375800
H25 H 0.571200 0.210100 -0.354400
H26 H 0.895400 0.418600 1.326800
H27 H 0.630800 0.102800 -0.148900
H28 H 0.975000 0.500400 1.299500
H29 H 0.958300 0.335200 1.285800
H30 H 0.671600 0.287600 -0.200100
H31 H 0.914900 0.400500 1.092400
H32 H 0.958800 0.441200 1.071800
H33 H 0.744600 1.084800 0.206800
H34 H 0.947700 0.692900 1.125800
H35 H 0.736500 1.297100 0.328600
H36 H 0.907100 0.775200 0.936600
H37 H 0.706000 1.286500 0.519600
H38 H 0.868700 0.623500 0.784300
H39 H 0.853800 0.610300 0.924600
H40 H 0.879900 0.481500 0.874900
H41 H 0.679800 1.062600 0.580000
H42 H 0.955800 0.539400 0.867500
H43 H 0.970000 0.705300 0.899800
H44 H 0.939700 0.670700 0.769800
H45 H 0.686900 0.845800 0.459600
H46 H 0.953800 0.520200 1.536400
H47 H 0.940400 0.351400 1.517400
H48 H 0.910100 0.473500 1.553100
H49 H 0.546200 0.020200 -0.536400
H50 H 0.842500 1.027100 0.677400
H51 H 0.559600 -0.148600 -0.517400
H52 H 0.589900 -0.026500 -0.553100
H53 H 0.920400 1.222500 0.874100
H54 H 0.398700 0.426500 0.578000
H55 H 0.988500 1.199900 0.865800
H56 H 0.466700 0.400500 0.577300
H57 H 0.488500 0.699900 0.865800
H58 H 0.966700 0.900500 0.577300
H59 H 0.420400 0.722500 0.874100
H60 H 0.898700 0.926500 0.578000
H61 H 0.342500 0.527100 0.677400
H62 H 0.410100 -0.026500 1.553100
H63 H 0.440400 -0.148600 1.517400
H64 H 0.453800 0.020200 1.536400
H65 H 0.439700 0.170700 0.769800
H66 H 0.533300 0.400500 0.422700
H67 H 0.470000 0.205300 0.899800
H68 H 0.455800 0.039400 0.867500
H69 H 0.511500 0.699900 0.134200
H70 H 0.379900 -0.018500 0.874900
H71 H 0.353800 0.110300 0.924600
H72 H 0.186900 1.345800 0.459600
H73 H 0.368700 0.123500 0.784300
H74 H 0.179800 1.562600 0.580000
H75 H 0.407100 0.275200 0.936600
H76 H 0.206000 1.786500 0.519600
H77 H 0.447700 0.192900 1.125800
H78 H 0.236500 1.797100 0.328600
H79 H 0.458800 -0.058800 1.071800
H80 H 0.244600 1.584800 0.206800
H81 H 0.414900 -0.099500 1.092400
H82 H 0.458300 -0.164800 1.285800
H83 H 0.475000 0.000400 1.299500
H84 H 0.395400 -0.081400 1.326800
H85 H 0.384900 0.170600 1.375800
H86 H 0.428800 0.210100 1.354400
H87 H 0.369200 0.102800 1.148900
H88 H 0.171600 0.787600 -0.200100
H89 H 0.328400 0.287600 1.200100
H90 H 0.130800 0.602800 -0.148900
H91 H 0.255400 1.084800 0.793200
H92 H 0.071200 0.710100 -0.354400
H93 H 0.115100 0.670600 -0.375800
H94 H 0.263500 1.297100 0.671400
H95 H 0.104600 0.418600 -0.326800
H96 H 0.294000 1.286500 0.480400
H97 H 0.025000 0.500400 -0.299500
H98 H 0.041700 0.335200 -0.285800
H99 H 0.320200 1.062600 0.420000
H100 H 0.085100 0.400500 -0.092400
H101 H 0.041200 0.441200 -0.071800
H102 H 0.313100 0.845800 0.540400
H103 H 0.052300 0.692900 -0.125800
H104 H 0.657500 0.527100 0.322600
H105 H 0.092900 0.775200 0.063400
H106 H 0.579600 0.722500 0.125900
H107 H 0.131300 0.623500 0.215700
H108 H 0.146200 0.610300 0.075400
H109 H 0.120100 0.481500 0.125100
H110 H 0.101300 0.926500 0.422000
H111 H 0.044200 0.539400 0.132500
H112 H 0.030000 0.705300 0.100200
H113 H 0.060300 0.670700 0.230200
H114 H 0.033300 0.900500 0.422700
H115 H 0.046200 0.520200 -0.536400
H116 H 0.059600 0.351400 -0.517400
H117 H 0.089900 0.473500 -0.553100
H118 H 0.011500 1.199900 0.134200
H119 H 0.157500 1.027100 0.322600
H120 H 0.079600 1.222500 0.125900
C121 C 0.070590 1.157800 0.188000
C122 C 0.096990 1.081300 0.274900
C123 C 0.029580 1.140800 0.190200
C124 C 0.140150 1.096100 0.275200
C125 C 0.015930 1.039500 0.272800
C126 C 0.042500 0.965100 0.360900
C127 C 0.068000 0.454400 -0.504300
C128 C 0.083350 0.982100 0.362300
C129 C 0.052100 0.643400 0.137700
C130 C 0.803000 1.436600 0.567300
C131 C 0.806930 1.566300 0.495000
C132 C 0.791780 1.700100 0.531300
C133 C 0.552100 0.143400 0.137700
C134 C 0.773170 1.705500 0.644700
C135 C 0.124620 0.588400 0.124800
C136 C 0.570590 0.657800 0.188000
C137 C 0.596990 0.581300 0.274900
C138 C 0.086970 0.667000 0.058700
C139 C 0.768640 1.579200 0.718300
C140 C 0.303000 0.936600 0.567300
C141 C 0.075400 0.629800 -0.092600
C142 C 0.306930 1.066300 0.495000
C143 C 0.062720 0.466700 -0.122300
C144 C 0.291780 1.200100 0.531300
C145 C 0.048770 0.440500 -0.271000
C146 C 0.273170 1.205500 0.644700
C147 C 0.081310 0.482800 -0.355700
C148 C 0.268640 1.079200 0.718300
C149 C 0.093650 0.644100 -0.325400
C150 C 0.283740 0.942200 0.681300
C151 C 0.277310 0.802900 0.757500
C152 C 0.285340 0.591600 0.863900
C153 C 0.326580 0.493800 1.102100
C154 C 0.327100 0.621800 1.171200
C155 C 0.344930 0.594400 1.312400
C156 C 0.346650 0.372300 1.194300
C157 C 0.107650 0.667800 -0.176600
C158 C 0.392350 0.167800 1.176600
C159 C 0.153350 0.872300 -0.194300
C160 C 0.406350 0.144100 1.325400
C161 C 0.155070 1.094400 -0.312400
C162 C 0.172900 1.121800 -0.171200
C163 C 0.418690 -0.017200 1.355700
C164 C 0.173420 0.993800 -0.102100
C165 C 0.451230 -0.059500 1.271000
C166 C 0.214660 1.091600 0.136100
C167 C 0.222690 1.302900 0.242500
C168 C 0.437280 -0.033300 1.122300
C169 C 0.216260 1.442200 0.318700
C170 C 0.231360 1.579200 0.281700
C171 C 0.424600 0.129800 1.092600
C172 C 0.226830 1.705500 0.355300
C173 C 0.413030 0.167000 0.941300
C174 C 0.208220 1.700100 0.468700
C175 C 0.375380 0.088400 0.875200
C176 C 0.193070 1.566300 0.505000
C177 C 0.197000 1.436600 0.432700
C178 C 0.529580 0.640800 0.190200
C179 C 0.447900 0.143400 0.862300
C180 C 0.515930 0.539500 0.272800
C181 C 0.542500 0.465100 0.360900
C182 C 0.783740 1.442200 0.681300
C183 C 0.432000 -0.045600 1.504300
C184 C 0.624620 0.088400 0.124800
C185 C 0.777310 1.302900 0.757500
C186 C 0.586970 0.167000 0.058700
C187 C 0.359850 0.596100 0.724800
C188 C 0.583350 0.482100 0.362300
C189 C 0.403010 0.581300 0.725100
C190 C 0.429410 0.657800 0.812000
C191 C 0.916650 0.982100 0.637700
C192 C 0.470420 0.640800 0.809800
C193 C 0.957500 0.965100 0.639100
C194 C 0.484070 0.539500 0.727200
C195 C 0.457500 0.465100 0.639100
C196 C 0.984070 1.039500 0.727200
C197 C 0.416650 0.482100 0.637700
C198 C 0.970420 1.140800 0.809800
C199 C 0.785340 1.091600 0.863900
C200 C 0.575400 0.129800 -0.092600
C201 C 0.826580 0.993800 1.102100
C202 C 0.827100 1.121800 1.171200
C203 C 0.562720 -0.033300 -0.122300
C204 C 0.640150 0.596100 0.275200
C205 C 0.929410 1.157800 0.812000
C206 C 0.903010 1.081300 0.725100
C207 C 0.859850 1.096100 0.724800
C208 C 0.844930 1.094400 1.312400
C209 C 0.697000 0.936600 0.432700
C210 C 0.932000 0.454400 1.504300
C211 C 0.693070 1.066300 0.505000
C212 C 0.947900 0.643400 0.862300
C213 C 0.708220 1.200100 0.468700
C214 C 0.875380 0.588400 0.875200
C215 C 0.726830 1.205500 0.355300
C216 C 0.913030 0.667000 0.941300
C217 C 0.731360 1.079200 0.281700
C218 C 0.924600 0.629800 1.092600
C219 C 0.716260 0.942200 0.318700
C220 C 0.722690 0.802900 0.242500
C221 C 0.714660 0.591600 0.136100
C222 C 0.673420 0.493800 -0.102100
C223 C 0.672900 0.621800 -0.171200
C224 C 0.655070 0.594400 -0.312400
C225 C 0.653350 0.372300 -0.194300
C226 C 0.937280 0.466700 1.122300
C227 C 0.607650 0.167800 -0.176600
C228 C 0.951230 0.440500 1.271000
C229 C 0.593650 0.144100 -0.325400
C230 C 0.918690 0.482800 1.355700
C231 C 0.906350 0.644100 1.325400
C232 C 0.581310 -0.017200 -0.355700
C233 C 0.892350 0.667800 1.176600
C234 C 0.548770 -0.059500 -0.271000
C235 C 0.846650 0.872300 1.194300
C236 C 0.568000 -0.045600 -0.504300
N237 N 0.346100 0.701700 0.788500
N238 N 0.304440 0.695000 0.792200
N239 N 0.248370 0.634100 0.867200
N240 N 0.243330 0.769200 0.799700
N241 N 0.751630 0.634100 0.132800
N242 N 0.743330 1.269200 0.799700
N243 N 0.748370 1.134100 0.867200
N244 N 0.804440 1.195000 0.792200
N245 N 0.846100 1.201700 0.788500
N246 N 0.695560 0.695000 0.207800
N247 N 0.153900 1.201700 0.211500
N248 N 0.195560 1.195000 0.207800
N249 N 0.251630 1.134100 0.132800
N250 N 0.256670 1.269200 0.200300
N251 N 0.653900 0.701700 0.211500
N252 N 0.756670 0.769200 0.200300
O253 O 0.150840 1.177200 -0.405900
O254 O 0.380730 0.324700 1.146800
O255 O 0.356010 0.445800 1.322800
O256 O 0.349160 0.677200 1.405900
O257 O 0.643990 0.445800 -0.322800
O258 O 0.119270 0.824700 -0.146800
O259 O 0.143990 0.945800 -0.322800
O260 O 0.619270 0.324700 -0.146800
O261 O 0.650840 0.677200 -0.405900
O262 O 0.849160 1.177200 1.405900
O263 O 0.880730 0.824700 1.146800
O264 O 0.856010 0.945800 1.322800
S265 S 0.191690 0.931700 0.059030
S266 S 0.308310 0.431700 0.940970
S267 S 0.808310 0.931700 0.940970
S268 S 0.691690 0.431700 0.059030
Cl269 Cl 0.534520 0.506600 0.735700
Cl270 Cl 1.034520 1.006600 0.735700
Cl271 Cl -0.034520 1.006600 0.264300
Cl272 Cl 0.465480 0.506600 0.264300
Br273 Br 0.192224 1.314850 -0.123780
Br274 Br 0.307776 0.814850 1.123780
Br275 Br 0.692224 0.814850 -0.123780
Br276 Br 0.807776 1.314850 1.123780

#END
