./MAPXOR_from_xyz.cif_generated_by_CrystalShift
_symmetry_cell_setting triclinic
_symmetry_space_group_name_H-M 'P 1'
loop_
_symmetry_equiv_pos_site_id
_symmetry_equiv_pos_as_xyz
1 x,y,z
_cell_length_a 8.920000
_cell_length_b 16.524000
_cell_length_c 9.857000
_cell_angle_alpha 90.000000
_cell_angle_beta 93.836000
_cell_angle_gamma 90.000000
_cell_volume 1449.608543
loop_
_atom_site_label
_atom_site_type_symbol
_atom_site_fract_x
_atom_site_fract_y
_atom_site_fract_z
O1 O 1.045860 0.249990 0.496240
N2 N 1.212000 0.112610 0.592800
H3 H 1.121350 0.078970 0.562850
H4 H 1.239750 0.134130 0.502020
N5 N 0.990930 0.283250 0.711130
H6 H 1.017400 0.273100 0.810800
C7 C 1.176700 0.178840 0.681200
H8 H 1.279760 0.210740 0.710960
H9 H 1.133960 0.153870 0.772580
C10 C 1.063000 0.239840 0.620680
C11 C 0.888100 0.351040 0.676190
C12 C 0.832300 0.381510 0.811300
H13 H 0.772720 0.333310 0.859160
H14 H 0.757500 0.432430 0.791850
H15 H 0.927430 0.400280 0.877920
C16 C 0.751300 0.320130 0.588360
C17 C 0.679100 0.365690 0.484390
H18 H 0.725880 0.423320 0.456330
C19 C 0.547600 0.337750 0.416400
H20 H 0.492980 0.373840 0.335770
C21 C 0.485700 0.264210 0.450700
H22 H 0.383200 0.242760 0.397450
C23 C 0.556400 0.218640 0.553800
H24 H 0.509200 0.161020 0.581390
C25 C 0.687200 0.246360 0.621790
H26 H 0.740880 0.210050 0.702610
C27 C 0.972200 0.419370 0.604470
H28 H 0.993320 0.399600 0.502750
H29 H 0.900050 0.472060 0.595090
C30 C 1.119800 0.443600 0.677560
C31 C 1.253300 0.406370 0.647600
H32 H 1.251590 0.360690 0.568720
C33 C 1.388600 0.426560 0.716500
H34 H 1.490890 0.396270 0.691640
C35 C 1.393600 0.485320 0.817200
H36 H 1.499080 0.500690 0.871930
C37 C 1.261800 0.524150 0.847100
H38 H 1.264420 0.570600 0.924730
C39 C 1.126500 0.503680 0.777600
H40 H 1.024590 0.534710 0.801420
O41 O -0.045860 0.749990 1.003760
N42 N -0.212000 0.612610 0.907200
H43 H -0.121350 0.578970 0.937150
H44 H -0.239750 0.634130 0.997980
N45 N 0.009070 0.783250 0.788870
H46 H -0.017400 0.773100 0.689200
C47 C -0.176700 0.678840 0.818800
H48 H -0.279760 0.710740 0.789040
H49 H -0.133960 0.653870 0.727420
C50 C -0.063000 0.739840 0.879320
C51 C 0.111900 0.851040 0.823810
C52 C 0.167700 0.881510 0.688700
H53 H 0.227280 0.833310 0.640840
H54 H 0.242500 0.932430 0.708150
H55 H 0.072570 0.900280 0.622080
C56 C 0.248700 0.820130 0.911640
C57 C 0.320900 0.865690 1.015610
H58 H 0.274120 0.923320 1.043670
C59 C 0.452400 0.837750 1.083600
H60 H 0.507020 0.873840 1.164230
C61 C 0.514300 0.764210 1.049300
H62 H 0.616800 0.742760 1.102550
C63 C 0.443600 0.718640 0.946200
H64 H 0.490800 0.661020 0.918610
C65 C 0.312800 0.746360 0.878210
H66 H 0.259120 0.710050 0.797390
C67 C 0.027800 0.919370 0.895530
H68 H 0.006680 0.899600 0.997250
H69 H 0.099950 0.972060 0.904910
C70 C -0.119800 0.943600 0.822440
C71 C -0.253300 0.906370 0.852400
H72 H -0.251590 0.860690 0.931280
C73 C -0.388600 0.926560 0.783500
H74 H -0.490890 0.896270 0.808360
C75 C -0.393600 0.985320 0.682800
H76 H -0.499080 1.000690 0.628070
C77 C -0.261800 1.024150 0.652900
H78 H -0.264420 1.070600 0.575270
C79 C -0.126500 1.003680 0.722400
H80 H -0.024590 1.034710 0.698580
O81 O -0.045860 0.750010 0.503760
N82 N -0.212000 0.887390 0.407200
H83 H -0.121350 0.921030 0.437150
H84 H -0.239750 0.865870 0.497980
N85 N 0.009070 0.716750 0.288870
H86 H -0.017400 0.726900 0.189200
C87 C -0.176700 0.821160 0.318800
H88 H -0.279760 0.789260 0.289040
H89 H -0.133960 0.846130 0.227420
C90 C -0.063000 0.760160 0.379320
C91 C 0.111900 0.648960 0.323810
C92 C 0.167700 0.618490 0.188700
H93 H 0.227280 0.666690 0.140840
H94 H 0.242500 0.567570 0.208150
H95 H 0.072570 0.599720 0.122080
C96 C 0.248700 0.679870 0.411640
C97 C 0.320900 0.634310 0.515610
H98 H 0.274120 0.576680 0.543670
C99 C 0.452400 0.662250 0.583600
H100 H 0.507020 0.626160 0.664230
C101 C 0.514300 0.735790 0.549300
H102 H 0.616800 0.757240 0.602550
C103 C 0.443600 0.781360 0.446200
H104 H 0.490800 0.838980 0.418610
C105 C 0.312800 0.753640 0.378210
H106 H 0.259120 0.789950 0.297390
C107 C 0.027800 0.580630 0.395530
H108 H 0.006680 0.600400 0.497250
H109 H 0.099950 0.527940 0.404910
C110 C -0.119800 0.556400 0.322440
C111 C -0.253300 0.593630 0.352400
H112 H -0.251590 0.639310 0.431280
C113 C -0.388600 0.573440 0.283500
H114 H -0.490890 0.603730 0.308360
C115 C -0.393600 0.514680 0.182800
H116 H -0.499080 0.499310 0.128070
C117 C -0.261800 0.475850 0.152900
H118 H -0.264420 0.429400 0.075270
C119 C -0.126500 0.496320 0.222400
H120 H -0.024590 0.465290 0.198580
O121 O 1.045860 0.250010 -0.003760
N122 N 1.212000 0.387390 0.092800
H123 H 1.121350 0.421030 0.062850
H124 H 1.239750 0.365870 0.002020
N125 N 0.990930 0.216750 0.211130
H126 H 1.017400 0.226900 0.310800
C127 C 1.176700 0.321160 0.181200
H128 H 1.279760 0.289260 0.210960
H129 H 1.133960 0.346130 0.272580
C130 C 1.063000 0.260160 0.120680
C131 C 0.888100 0.148960 0.176190
C132 C 0.832300 0.118490 0.311300
H133 H 0.772720 0.166690 0.359160
H134 H 0.757500 0.067570 0.291850
H135 H 0.927430 0.099720 0.377920
C136 C 0.751300 0.179870 0.088360
C137 C 0.679100 0.134310 -0.015610
H138 H 0.725880 0.076680 -0.043670
C139 C 0.547600 0.162250 -0.083600
H140 H 0.492980 0.126160 -0.164230
C141 C 0.485700 0.235790 -0.049300
H142 H 0.383200 0.257240 -0.102550
C143 C 0.556400 0.281360 0.053800
H144 H 0.509200 0.338980 0.081390
C145 C 0.687200 0.253640 0.121790
H146 H 0.740880 0.289950 0.202610
C147 C 0.972200 0.080630 0.104470
H148 H 0.993320 0.100400 0.002750
H149 H 0.900050 0.027940 0.095090
C150 C 1.119800 0.056400 0.177560
C151 C 1.253300 0.093630 0.147600
H152 H 1.251590 0.139310 0.068720
C153 C 1.388600 0.073440 0.216500
H154 H 1.490890 0.103730 0.191640
C155 C 1.393600 0.014680 0.317200
H156 H 1.499080 -0.000690 0.371930
C157 C 1.261800 -0.024150 0.347100
H158 H 1.264420 -0.070600 0.424730
C159 C 1.126500 -0.003680 0.277600
H160 H 1.024590 -0.034710 0.301420

#END
