
#######################################################################
#
#                 Cambridge Crystallographic Data Centre
#                                CCDC 
#
#######################################################################
#
# If this CIF has been generated from an entry in the Cambridge 
# Structural Database, then it will include bibliographic, chemical, 
# crystal, experimental, refinement or atomic coordinate data resulting 
# from the CCDC's data processing and validation procedures.
#
#######################################################################

data_MAPZOT
_symmetry_cell_setting           monoclinic
_symmetry_space_group_name_H-M   'P 21/c'
_symmetry_Int_Tables_number      14
_space_group_name_Hall           '-P 2ybc'
loop_
_symmetry_equiv_pos_site_id
_symmetry_equiv_pos_as_xyz
1 x,y,z
2 -x,1/2+y,1/2-z
3 -x,-y,-z
4 x,1/2-y,1/2+z
_cell_length_a                   11.173(1)
_cell_length_b                   12.536(2)
_cell_length_c                   13.026(1)
_cell_angle_alpha                90
_cell_angle_beta                 90.916(9)
_cell_angle_gamma                90
_cell_volume                     1824.25
loop_
_atom_site_label
_atom_site_type_symbol
_atom_site_fract_x
_atom_site_fract_y
_atom_site_fract_z
O1 O 0.1872(1) 0.1815(1) 0.26818(8)
N1 N 0.2322(1) 0.1474(1) 0.18478(9)
C1 C 0.3327(1) 0.2129(1) 0.1426(1)
C2 C 0.3851(1) 0.1570(1) 0.0512(1)
C3 C 0.3407(1) 0.0690(1) 0.0086(1)
C4 C 0.2357(1) 0.0162(1) 0.0483(1)
C5 C 0.1824(1) -0.0763(1) 0.0015(1)
C6 C 0.2253(2) -0.1237(2) -0.0891(1)
C7 C 0.1672(2) -0.2097(2) -0.1324(2)
C8 C 0.0662(2) -0.2539(2) -0.0879(2)
C9 C 0.0249(2) -0.2126(2) 0.0008(2)
C10 C 0.0810(1) -0.1237(1) 0.0477(1)
C11 C 0.0363(1) -0.0802(2) 0.1394(1)
C12 C 0.0858(1) 0.0077(1) 0.1836(1)
C13 C 0.1850(1) 0.0572(1) 0.1372(1)
C14 C 0.2788(1) 0.3217(1) 0.1143(1)
C15 C 0.2424(1) 0.3917(1) 0.1908(1)
C16 C 0.1855(2) 0.4859(2) 0.1655(1)
C17 C 0.1644(2) 0.5122(2) 0.0644(2)
C18 C 0.2020(2) 0.4452(2) -0.0114(2)
C19 C 0.2585(2) 0.3498(2) 0.0129(1)
C20 C 0.4317(1) 0.2192(1) 0.2258(1)
C21 C 0.5048(2) 0.3077(2) 0.2354(2)
C22 C 0.5972(2) 0.3098(2) 0.3073(2)
C23 C 0.6191(2) 0.2244(2) 0.3698(2)
C24 C 0.5488(2) 0.1357(2) 0.3604(2)
C25 C 0.4554(2) 0.1328(2) 0.2889(1)
H1 H 0.4554 0.1875 0.0215
H2 H 0.3794 0.0394 -0.0502
H3 H 0.2956 -0.0957 -0.1208
H4 H 0.1970 -0.2399 -0.1947
H5 H 0.0262 -0.3132 -0.1200
H6 H -0.0436 -0.2444 0.0324
H7 H -0.0310 -0.1136 0.1713
H8 H 0.0538 0.0361 0.2460
H9 H 0.2571 0.3742 0.2617
H10 H 0.1605 0.5334 0.2188
H11 H 0.1234 0.5774 0.0472
H12 H 0.1894 0.4644 -0.0822
H13 H 0.2836 0.3031 -0.0409
H14 H 0.4914 0.3685 0.1918
H15 H 0.6468 0.3721 0.3134
H16 H 0.6830 0.2269 0.4198
H17 H 0.5641 0.0749 0.4034
H18 H 0.4066 0.0700 0.2832
O1 O 0.8128(1) 0.6815(1) 0.23182(8)
N1 N 0.7678(1) 0.6474(1) 0.31522(9)
C1 C 0.6673(1) 0.7129(1) 0.3574(1)
C2 C 0.6149(1) 0.6570(1) 0.4488(1)
C3 C 0.6593(1) 0.5690(1) 0.4914(1)
C4 C 0.7643(1) 0.5162(1) 0.4517(1)
C5 C 0.8176(1) 0.4237(1) 0.4985(1)
C6 C 0.7747(2) 0.3763(2) 0.5891(1)
C7 C 0.8328(2) 0.2903(2) 0.6324(2)
C8 C 0.9338(2) 0.2461(2) 0.5879(2)
C9 C 0.9751(2) 0.2874(2) 0.4992(2)
C10 C 0.9190(1) 0.3763(1) 0.4523(1)
C11 C 0.9637(1) 0.4198(2) 0.3606(1)
C12 C 0.9142(1) 0.5077(1) 0.3164(1)
C13 C 0.8150(1) 0.5572(1) 0.3628(1)
C14 C 0.7212(1) 0.8217(1) 0.3857(1)
C15 C 0.7576(1) 0.8917(1) 0.3092(1)
C16 C 0.8145(2) 0.9859(2) 0.3345(1)
C17 C 0.8356(2) 1.0122(2) 0.4356(2)
C18 C 0.7980(2) 0.9452(2) 0.5114(2)
C19 C 0.7415(2) 0.8498(2) 0.4871(1)
C20 C 0.5683(1) 0.7192(1) 0.2742(1)
C21 C 0.4952(2) 0.8077(2) 0.2646(2)
C22 C 0.4028(2) 0.8098(2) 0.1927(2)
C23 C 0.3809(2) 0.7244(2) 0.1302(2)
C24 C 0.4512(2) 0.6357(2) 0.1396(2)
C25 C 0.5446(2) 0.6328(2) 0.2111(1)
H1 H 0.5446 0.6875 0.4785
H2 H 0.6206 0.5394 0.5502
H3 H 0.7044 0.4043 0.6208
H4 H 0.8030 0.2601 0.6947
H5 H 0.9738 0.1868 0.6200
H6 H 1.0436 0.2556 0.4676
H7 H 1.0310 0.3864 0.3287
H8 H 0.9462 0.5361 0.2540
H9 H 0.7429 0.8742 0.2383
H10 H 0.8395 1.0334 0.2812
H11 H 0.8766 1.0774 0.4528
H12 H 0.8106 0.9644 0.5822
H13 H 0.7164 0.8031 0.5409
H14 H 0.5086 0.8685 0.3082
H15 H 0.3532 0.8721 0.1866
H16 H 0.3170 0.7269 0.0802
H17 H 0.4359 0.5749 0.0966
H18 H 0.5934 0.5700 0.2168
O1 O 0.8128(1) 0.8185(1) 0.73182(8)
N1 N 0.7678(1) 0.8526(1) 0.81522(9)
C1 C 0.6673(1) 0.7871(1) 0.8574(1)
C2 C 0.6149(1) 0.8430(1) 0.9488(1)
C3 C 0.6593(1) 0.9310(1) 0.9914(1)
C4 C 0.7643(1) 0.9838(1) 0.9517(1)
C5 C 0.8176(1) 1.0763(1) 0.9985(1)
C6 C 0.7747(2) 1.1237(2) 1.0891(1)
C7 C 0.8328(2) 1.2097(2) 1.1324(2)
C8 C 0.9338(2) 1.2539(2) 1.0879(2)
C9 C 0.9751(2) 1.2126(2) 0.9992(2)
C10 C 0.9190(1) 1.1237(1) 0.9523(1)
C11 C 0.9637(1) 1.0802(2) 0.8606(1)
C12 C 0.9142(1) 0.9923(1) 0.8164(1)
C13 C 0.8150(1) 0.9428(1) 0.8628(1)
C14 C 0.7212(1) 0.6783(1) 0.8857(1)
C15 C 0.7576(1) 0.6083(1) 0.8092(1)
C16 C 0.8145(2) 0.5141(2) 0.8345(1)
C17 C 0.8356(2) 0.4878(2) 0.9356(2)
C18 C 0.7980(2) 0.5548(2) 1.0114(2)
C19 C 0.7415(2) 0.6502(2) 0.9871(1)
C20 C 0.5683(1) 0.7808(1) 0.7742(1)
C21 C 0.4952(2) 0.6923(2) 0.7646(2)
C22 C 0.4028(2) 0.6902(2) 0.6927(2)
C23 C 0.3809(2) 0.7756(2) 0.6302(2)
C24 C 0.4512(2) 0.8643(2) 0.6396(2)
C25 C 0.5446(2) 0.8672(2) 0.7111(1)
H1 H 0.5446 0.8125 0.9785
H2 H 0.6206 0.9606 1.0502
H3 H 0.7044 1.0957 1.1208
H4 H 0.8030 1.2399 1.1947
H5 H 0.9738 1.3132 1.1200
H6 H 1.0436 1.2444 0.9676
H7 H 1.0310 1.1136 0.8287
H8 H 0.9462 0.9639 0.7540
H9 H 0.7429 0.6258 0.7383
H10 H 0.8395 0.4666 0.7812
H11 H 0.8766 0.4226 0.9528
H12 H 0.8106 0.5356 1.0822
H13 H 0.7164 0.6969 1.0409
H14 H 0.5086 0.6315 0.8082
H15 H 0.3532 0.6279 0.6866
H16 H 0.3170 0.7731 0.5802
H17 H 0.4359 0.9251 0.5966
H18 H 0.5934 0.9300 0.7168
O1 O 0.1872(1) 0.3185(1) 0.76818(8)
N1 N 0.2322(1) 0.3526(1) 0.68478(9)
C1 C 0.3327(1) 0.2871(1) 0.6426(1)
C2 C 0.3851(1) 0.3430(1) 0.5512(1)
C3 C 0.3407(1) 0.4310(1) 0.5086(1)
C4 C 0.2357(1) 0.4838(1) 0.5483(1)
C5 C 0.1824(1) 0.5763(1) 0.5015(1)
C6 C 0.2253(2) 0.6237(2) 0.4109(1)
C7 C 0.1672(2) 0.7097(2) 0.3676(2)
C8 C 0.0662(2) 0.7539(2) 0.4121(2)
C9 C 0.0249(2) 0.7126(2) 0.5008(2)
C10 C 0.0810(1) 0.6237(1) 0.5477(1)
C11 C 0.0363(1) 0.5802(2) 0.6394(1)
C12 C 0.0858(1) 0.4923(1) 0.6836(1)
C13 C 0.1850(1) 0.4428(1) 0.6372(1)
C14 C 0.2788(1) 0.1783(1) 0.6143(1)
C15 C 0.2424(1) 0.1083(1) 0.6908(1)
C16 C 0.1855(2) 0.0141(2) 0.6655(1)
C17 C 0.1644(2) -0.0122(2) 0.5644(2)
C18 C 0.2020(2) 0.0548(2) 0.4886(2)
C19 C 0.2585(2) 0.1502(2) 0.5129(1)
C20 C 0.4317(1) 0.2808(1) 0.7258(1)
C21 C 0.5048(2) 0.1923(2) 0.7354(2)
C22 C 0.5972(2) 0.1902(2) 0.8073(2)
C23 C 0.6191(2) 0.2756(2) 0.8698(2)
C24 C 0.5488(2) 0.3643(2) 0.8604(2)
C25 C 0.4554(2) 0.3672(2) 0.7889(1)
H1 H 0.4554 0.3125 0.5215
H2 H 0.3794 0.4606 0.4498
H3 H 0.2956 0.5957 0.3792
H4 H 0.1970 0.7399 0.3053
H5 H 0.0262 0.8132 0.3800
H6 H -0.0436 0.7444 0.5324
H7 H -0.0310 0.6136 0.6713
H8 H 0.0538 0.4639 0.7460
H9 H 0.2571 0.1258 0.7617
H10 H 0.1605 -0.0334 0.7188
H11 H 0.1234 -0.0774 0.5472
H12 H 0.1894 0.0356 0.4178
H13 H 0.2836 0.1969 0.4591
H14 H 0.4914 0.1315 0.6918
H15 H 0.6468 0.1279 0.8134
H16 H 0.6830 0.2731 0.9198
H17 H 0.5641 0.4251 0.9034
H18 H 0.4066 0.4300 0.7832

#END
