
#######################################################################
#
#                 Cambridge Crystallographic Data Centre
#                                CCDC 
#
#######################################################################
#
# If this CIF has been generated from an entry in the Cambridge 
# Structural Database, then it will include bibliographic, chemical, 
# crystal, experimental, refinement or atomic coordinate data resulting 
# from the CCDC's data processing and validation procedures.
#
#######################################################################

data_MAQBAI
_symmetry_cell_setting           triclinic
_symmetry_space_group_name_H-M   'P -1'
_symmetry_Int_Tables_number      2
_space_group_name_Hall           '-P 1'
loop_
_symmetry_equiv_pos_site_id
_symmetry_equiv_pos_as_xyz
1 x,y,z
2 -x,-y,-z
_cell_length_a                   8.2068(8)
_cell_length_b                   12.7017(14)
_cell_length_c                   13.3725(14)
_cell_angle_alpha                94.106(2)
_cell_angle_beta                 99.216(2)
_cell_angle_gamma                94.645(2)
_cell_volume                     1366.36
loop_
_atom_site_label
_atom_site_type_symbol
_atom_site_fract_x
_atom_site_fract_y
_atom_site_fract_z
O1 O 0.6656(3) 0.4325(2) 0.33862(18)
O2 O 0.8471(3) 0.3388(2) 0.42571(18)
O3 O 0.9833(4) 0.0072(2) 0.2561(3)
O4 O 0.9004(5) -0.0270(3) 0.0961(3)
O5 O 0.4601(5) 0.1596(3) -0.0714(2)
O6 O 0.3494(4) 0.2715(2) 0.0152(2)
N1 N 0.9045(4) 0.0260(3) 0.1755(3)
N2 N 0.4561(4) 0.2126(3) 0.0058(2)
C1 C 0.5882(4) 0.2060(3) 0.0927(2)
C2 C 0.6057(4) 0.2805(3) 0.1757(3)
H15 H 0.5360 0.3347 0.1757
C3 C 0.7283(4) 0.2733(2) 0.2586(2)
C4 C 0.8275(4) 0.1906(3) 0.2587(3)
H16 H 0.9081 0.1838 0.3147
C5 C 0.8051(4) 0.1178(3) 0.1743(3)
C6 C 0.6872(4) 0.1242(3) 0.0890(3)
H17 H 0.6758 0.0757 0.0322
C7 C 0.7484(4) 0.3551(3) 0.3483(2)
O1 O 0.3344(3) 0.5675(2) 0.66138(18)
O2 O 0.1529(3) 0.6612(2) 0.57429(18)
O3 O 0.0167(4) 0.9928(2) 0.7439(3)
O4 O 0.0996(5) 1.0270(3) 0.9039(3)
O5 O 0.5399(5) 0.8404(3) 1.0714(2)
O6 O 0.6506(4) 0.7285(2) 0.9848(2)
N1 N 0.0955(4) 0.9740(3) 0.8245(3)
N2 N 0.5439(4) 0.7874(3) 0.9942(2)
C1 C 0.4118(4) 0.7940(3) 0.9073(2)
C2 C 0.3943(4) 0.7195(3) 0.8243(3)
H15 H 0.4640 0.6653 0.8243
C3 C 0.2717(4) 0.7267(2) 0.7414(2)
C4 C 0.1725(4) 0.8094(3) 0.7413(3)
H16 H 0.0919 0.8162 0.6853
C5 C 0.1949(4) 0.8822(3) 0.8257(3)
C6 C 0.3128(4) 0.8758(3) 0.9110(3)
H17 H 0.3242 0.9243 0.9678
C7 C 0.2516(4) 0.6449(3) 0.6517(2)
O7 O 0.7771(4) -0.1837(2) 0.3116(2)
O8 O 0.8834(4) -0.1384(2) 0.4651(3)
O9 O 0.7385(3) 0.1884(2) 0.63819(17)
O10 O 0.5261(3) 0.2663(2) 0.55944(18)
O11 O 0.2711(3) 0.1379(2) 0.2143(2)
O12 O 0.3151(4) -0.0148(3) 0.1530(2)
N3 N 0.6292(4) 0.1986(3) 0.5636(3)
N4 N 0.3428(4) 0.0583(2) 0.2188(2)
C8 C 0.6888(4) -0.0371(3) 0.3891(3)
C9 C 0.7139(4) 0.0376(3) 0.4717(3)
H18 H 0.7975 0.0329 0.5266
C10 C 0.6127(4) 0.1192(2) 0.4712(2)
C11 C 0.4900(4) 0.1266(2) 0.3878(2)
H19 H 0.4228 0.1822 0.3863
C12 C 0.4702(4) 0.0500(3) 0.3077(2)
C13 C 0.5667(4) -0.0333(3) 0.3057(3)
H20 H 0.5507 -0.0845 0.2509
C14 C 0.7909(4) -0.1262(2) 0.3884(3)
O7 O 0.2229(4) 1.1837(2) 0.6884(2)
O8 O 0.1166(4) 1.1384(2) 0.5349(3)
O9 O 0.2615(3) 0.8116(2) 0.36181(17)
O10 O 0.4739(3) 0.7337(2) 0.44056(18)
O11 O 0.7289(3) 0.8621(2) 0.7857(2)
O12 O 0.6849(4) 1.0148(3) 0.8470(2)
N3 N 0.3708(4) 0.8014(3) 0.4364(3)
N4 N 0.6572(4) 0.9417(2) 0.7812(2)
C8 C 0.3112(4) 1.0371(3) 0.6109(3)
C9 C 0.2861(4) 0.9624(3) 0.5283(3)
H18 H 0.2025 0.9671 0.4734
C10 C 0.3873(4) 0.8808(2) 0.5288(2)
C11 C 0.5100(4) 0.8734(2) 0.6122(2)
H19 H 0.5772 0.8178 0.6137
C12 C 0.5298(4) 0.9500(3) 0.6923(2)
C13 C 0.4333(4) 1.0333(3) 0.6943(3)
H20 H 0.4493 1.0845 0.7491
C14 C 0.2091(4) 1.1262(2) 0.6116(3)
N5 N 0.3882(3) 0.5571(2) 0.10130(19)
N6 N 0.1406(3) 0.6326(2) 0.03039(19)
N7 N 0.2771(3) 0.6891(2) 0.1950(2)
H1 H 0.285(5) 0.732(3) 0.2483(19)
N8 N 0.4997(4) 0.6072(2) 0.2680(2)
H2 H 0.5721 0.5621 0.2657
H3 H 0.4995 0.6461 0.3233
N9 N 0.2574(4) 0.5094(2) -0.0604(2)
H4 H 0.3326 0.4671 -0.0664
H5 H 0.1791 0.5136 -0.1107
N10 N 0.0420(4) 0.7604(3) 0.1298(2)
H6 H -0.0400 0.7654 0.0820
H7 H 0.0518 0.7993 0.1862
C15 C 0.3891(4) 0.6166(3) 0.1869(2)
C16 C 0.2621(4) 0.5678(3) 0.0258(2)
C17 C 0.1533(4) 0.6930(3) 0.1164(2)
N5 N 0.6118(3) 0.4429(2) 0.89870(19)
N6 N 0.8594(3) 0.3674(2) 0.96961(19)
N7 N 0.7229(3) 0.3109(2) 0.8050(2)
H1 H 0.715(5) 0.268(3) 0.7517(19)
N8 N 0.5003(4) 0.3928(2) 0.7320(2)
H2 H 0.4279 0.4379 0.7343
H3 H 0.5005 0.3539 0.6767
N9 N 0.7426(4) 0.4906(2) 1.0604(2)
H4 H 0.6674 0.5329 1.0664
H5 H 0.8209 0.4864 1.1107
N10 N 0.9580(4) 0.2396(3) 0.8702(2)
H6 H 1.0400 0.2346 0.9180
H7 H 0.9482 0.2007 0.8138
C15 C 0.6109(4) 0.3834(3) 0.8131(2)
C16 C 0.7379(4) 0.4322(3) 0.9742(2)
C17 C 0.8467(4) 0.3070(3) 0.8836(2)
N11 N 0.7816(4) 0.6229(2) 0.6774(2)
N12 N 0.9778(3) 0.5132(2) 0.7608(2)
N13 N 0.8578(4) 0.4728(2) 0.5904(2)
H8 H 0.858(4) 0.433(2) 0.5367(16)
N14 N 0.6781(4) 0.5786(3) 0.5093(2)
H9 H 0.6212 0.6326 0.5080
H10 H 0.6732 0.5367 0.4552
N15 N 1.0445(4) 0.3689(2) 0.6668(2)
H11 H 1.1115 0.3532 0.7187
H12 H 1.0324 0.3301 0.6103
N16 N 0.8944(3) 0.6576(2) 0.8438(2)
H13 H 0.8373 0.7113 0.8458
H14 H 0.9586 0.6434 0.8975
C18 C 0.9605(4) 0.4524(3) 0.6739(2)
C19 C 0.8834(4) 0.5966(3) 0.7580(2)
C20 C 0.7720(4) 0.5601(3) 0.5937(3)
N11 N 0.2184(4) 0.3771(2) 0.3226(2)
N12 N 0.0222(3) 0.4868(2) 0.2392(2)
N13 N 0.1422(4) 0.5272(2) 0.4096(2)
H8 H 0.142(4) 0.567(2) 0.4633(16)
N14 N 0.3219(4) 0.4214(3) 0.4907(2)
H9 H 0.3788 0.3674 0.4920
H10 H 0.3268 0.4633 0.5448
N15 N -0.0445(4) 0.6311(2) 0.3332(2)
H11 H -0.1115 0.6468 0.2813
H12 H -0.0324 0.6699 0.3897
N16 N 0.1056(3) 0.3424(2) 0.1562(2)
H13 H 0.1627 0.2887 0.1542
H14 H 0.0414 0.3566 0.1025
C18 C 0.0395(4) 0.5476(3) 0.3261(2)
C19 C 0.1166(4) 0.4034(3) 0.2420(2)
C20 C 0.2280(4) 0.4399(3) 0.4063(3)

#END
