./MAQBAI_from_xyz.cif_generated_by_CrystalShift
_symmetry_cell_setting triclinic
_symmetry_space_group_name_H-M 'P 1'
loop_
_symmetry_equiv_pos_site_id
_symmetry_equiv_pos_as_xyz
1 x,y,z
_cell_length_a 8.206800
_cell_length_b 12.701700
_cell_length_c 13.372500
_cell_angle_alpha 94.106000
_cell_angle_beta 99.216000
_cell_angle_gamma 94.645000
_cell_volume 1366.364306
loop_
_atom_site_label
_atom_site_type_symbol
_atom_site_fract_x
_atom_site_fract_y
_atom_site_fract_z
O1 O 0.665600 0.432500 0.338620
O2 O 0.847100 0.338800 0.425710
O3 O 0.983300 0.007200 0.256100
O4 O 0.900400 -0.027000 0.096100
O5 O 0.460100 0.159600 -0.071400
O6 O 0.349400 0.271500 0.015200
N7 N 0.904500 0.026000 0.175500
N8 N 0.456100 0.212600 0.005800
C9 C 0.588200 0.206000 0.092700
C10 C 0.605700 0.280500 0.175700
H11 H 0.536000 0.334700 0.175700
C12 C 0.728300 0.273300 0.258600
C13 C 0.827500 0.190600 0.258700
H14 H 0.908100 0.183800 0.314700
C15 C 0.805100 0.117800 0.174300
C16 C 0.687200 0.124200 0.089000
H17 H 0.675800 0.075700 0.032200
C18 C 0.748400 0.355100 0.348300
O19 O 0.334400 0.567500 0.661380
O20 O 0.152900 0.661200 0.574290
O21 O 0.016700 0.992800 0.743900
O22 O 0.099600 1.027000 0.903900
O23 O 0.539900 0.840400 1.071400
O24 O 0.650600 0.728500 0.984800
N25 N 0.095500 0.974000 0.824500
N26 N 0.543900 0.787400 0.994200
C27 C 0.411800 0.794000 0.907300
C28 C 0.394300 0.719500 0.824300
H29 H 0.464000 0.665300 0.824300
C30 C 0.271700 0.726700 0.741400
C31 C 0.172500 0.809400 0.741300
H32 H 0.091900 0.816200 0.685300
C33 C 0.194900 0.882200 0.825700
C34 C 0.312800 0.875800 0.911000
H35 H 0.324200 0.924300 0.967800
C36 C 0.251600 0.644900 0.651700
O37 O 0.777100 -0.183700 0.311600
O38 O 0.883400 -0.138400 0.465100
O39 O 0.738500 0.188400 0.638190
O40 O 0.526100 0.266300 0.559440
O41 O 0.271100 0.137900 0.214300
O42 O 0.315100 -0.014800 0.153000
N43 N 0.629200 0.198600 0.563600
N44 N 0.342800 0.058300 0.218800
C45 C 0.688800 -0.037100 0.389100
C46 C 0.713900 0.037600 0.471700
H47 H 0.797500 0.032900 0.526600
C48 C 0.612700 0.119200 0.471200
C49 C 0.490000 0.126600 0.387800
H50 H 0.422800 0.182200 0.386300
C51 C 0.470200 0.050000 0.307700
C52 C 0.566700 -0.033300 0.305700
H53 H 0.550700 -0.084500 0.250900
C54 C 0.790900 -0.126200 0.388400
O55 O 0.222900 1.183700 0.688400
O56 O 0.116600 1.138400 0.534900
O57 O 0.261500 0.811600 0.361810
O58 O 0.473900 0.733700 0.440560
O59 O 0.728900 0.862100 0.785700
O60 O 0.684900 1.014800 0.847000
N61 N 0.370800 0.801400 0.436400
N62 N 0.657200 0.941700 0.781200
C63 C 0.311200 1.037100 0.610900
C64 C 0.286100 0.962400 0.528300
H65 H 0.202500 0.967100 0.473400
C66 C 0.387300 0.880800 0.528800
C67 C 0.510000 0.873400 0.612200
H68 H 0.577200 0.817800 0.613700
C69 C 0.529800 0.950000 0.692300
C70 C 0.433300 1.033300 0.694300
H71 H 0.449300 1.084500 0.749100
C72 C 0.209100 1.126200 0.611600
N73 N 0.388200 0.557100 0.101300
N74 N 0.140600 0.632600 0.030390
N75 N 0.277100 0.689100 0.195000
H76 H 0.285000 0.732000 0.248300
N77 N 0.499700 0.607200 0.268000
H78 H 0.572100 0.562100 0.265700
H79 H 0.499500 0.646100 0.323300
N80 N 0.257400 0.509400 -0.060400
H81 H 0.332600 0.467100 -0.066400
H82 H 0.179100 0.513600 -0.110700
N83 N 0.042000 0.760400 0.129800
H84 H -0.040000 0.765400 0.082000
H85 H 0.051800 0.799300 0.186200
C86 C 0.389100 0.616600 0.186900
C87 C 0.262100 0.567800 0.025800
C88 C 0.153300 0.693000 0.116400
N89 N 0.611800 0.442900 0.898700
N90 N 0.859400 0.367400 0.969610
N91 N 0.722900 0.310900 0.805000
H92 H 0.715000 0.268000 0.751700
N93 N 0.500300 0.392800 0.732000
H94 H 0.427900 0.437900 0.734300
H95 H 0.500500 0.353900 0.676700
N96 N 0.742600 0.490600 1.060400
H97 H 0.667400 0.532900 1.066400
H98 H 0.820900 0.486400 1.110700
N99 N 0.958000 0.239600 0.870200
H100 H 1.040000 0.234600 0.918000
H101 H 0.948200 0.200700 0.813800
C102 C 0.610900 0.383400 0.813100
C103 C 0.737900 0.432200 0.974200
C104 C 0.846700 0.307000 0.883600
N105 N 0.781600 0.622900 0.677400
N106 N 0.977800 0.513200 0.760800
N107 N 0.857800 0.472800 0.590400
H108 H 0.858000 0.433000 0.536700
N109 N 0.678100 0.578600 0.509300
H110 H 0.621200 0.632600 0.508000
H111 H 0.673200 0.536700 0.455200
N112 N 1.044500 0.368900 0.666800
H113 H 1.111500 0.353200 0.718700
H114 H 1.032400 0.330100 0.610300
N115 N 0.894400 0.657600 0.843800
H116 H 0.837300 0.711300 0.845800
H117 H 0.958600 0.643400 0.897500
C118 C 0.960500 0.452400 0.673900
C119 C 0.883400 0.596600 0.758000
C120 C 0.772000 0.560100 0.593700
N121 N 0.218400 0.377100 0.322600
N122 N 0.022200 0.486800 0.239200
N123 N 0.142200 0.527200 0.409600
H124 H 0.142000 0.567000 0.463300
N125 N 0.321900 0.421400 0.490700
H126 H 0.378800 0.367400 0.492000
H127 H 0.326800 0.463300 0.544800
N128 N -0.044500 0.631100 0.333200
H129 H -0.111500 0.646800 0.281300
H130 H -0.032400 0.669900 0.389700
N131 N 0.105600 0.342400 0.156200
H132 H 0.162700 0.288700 0.154200
H133 H 0.041400 0.356600 0.102500
C134 C 0.039500 0.547600 0.326100
C135 C 0.116600 0.403400 0.242000
C136 C 0.228000 0.439900 0.406300

#END
