
#######################################################################
#
#                 Cambridge Crystallographic Data Centre
#                                CCDC 
#
#######################################################################
#
# If this CIF has been generated from an entry in the Cambridge 
# Structural Database, then it will include bibliographic, chemical, 
# crystal, experimental, refinement or atomic coordinate data resulting 
# from the CCDC's data processing and validation procedures.
#
#######################################################################

data_MAQCIR
_symmetry_cell_setting           monoclinic
_symmetry_space_group_name_H-M   'P 21/m'
_symmetry_Int_Tables_number      11
_space_group_name_Hall           '-P 2yb'
loop_
_symmetry_equiv_pos_site_id
_symmetry_equiv_pos_as_xyz
1 x,y,z
2 -x,1/2+y,-z
3 -x,-y,-z
4 x,1/2-y,z
_cell_length_a                   6.947(2)
_cell_length_b                   6.246(2)
_cell_length_c                   10.760(3)
_cell_angle_alpha                90
_cell_angle_beta                 104.23(2)
_cell_angle_gamma                90
_cell_volume                     452.561
loop_
_atom_site_label
_atom_site_type_symbol
_atom_site_fract_x
_atom_site_fract_y
_atom_site_fract_z
O1 O 0.65236(18) 0.2500 0.15144(12)
C1 C 0.6236(3) 0.2500 0.41145(16)
N1 N 0.5430(3) 0.2500 0.50800(15)
O2 O 0.3395(3) 0.2500 0.45694(14)
N2 N 0.2937(3) 0.2500 0.32613(15)
C2 C 0.4639(3) 0.2500 0.29895(14)
N3 N 0.48117(19) 0.2500 0.16810(13)
N4 N 0.31636(19) 0.2500 0.08294(13)
C3 C 0.3266(2) 0.2500 -0.04415(14)
N5 N 0.4840(2) 0.2500 -0.09139(13)
O3 O 0.4068(2) 0.2500 -0.22215(12)
N6 N 0.1995(3) 0.2500 -0.25390(14)
C4 C 0.1489(3) 0.2500 -0.14603(15)
C5 C 0.8413(3) 0.2500 0.4277(2)
H1 H 0.879(2) 0.129(3) 0.3830(17)
H2 H 0.896(3) 0.2500 0.526(2)
C6 C -0.0603(3) 0.2500 -0.1358(2)
H3 H -0.142(5) 0.2500 -0.212(2)
H4 H -0.092(3) 0.1313(16) -0.088(2)
H1C H 0.879(2) 0.371(3) 0.3830(17)
H4C H -0.092(3) 0.3687(16) -0.088(2)
O1 O 0.34764(18) 0.7500 0.84856(12)
C1 C 0.3764(3) 0.7500 0.58855(16)
N1 N 0.4570(3) 0.7500 0.49200(15)
O2 O 0.6605(3) 0.7500 0.54306(14)
N2 N 0.7063(3) 0.7500 0.67387(15)
C2 C 0.5361(3) 0.7500 0.70105(14)
N3 N 0.51883(19) 0.7500 0.83190(13)
N4 N 0.68364(19) 0.7500 0.91706(13)
C3 C 0.6734(2) 0.7500 1.04415(14)
N5 N 0.5160(2) 0.7500 1.09139(13)
O3 O 0.5932(2) 0.7500 1.22215(12)
N6 N 0.8005(3) 0.7500 1.25390(14)
C4 C 0.8511(3) 0.7500 1.14603(15)
C5 C 0.1587(3) 0.7500 0.5723(2)
H1 H 0.121(2) 0.629(3) 0.6170(17)
H2 H 0.104(3) 0.7500 0.474(2)
C6 C 1.0603(3) 0.7500 1.1358(2)
H3 H 1.142(5) 0.7500 1.212(2)
H4 H 1.092(3) 0.6313(16) 1.088(2)
H1C H 0.121(2) 0.871(3) 0.6170(17)
H4C H 1.092(3) 0.8687(16) 1.088(2)

#END
