./MAQCIS_from_xyz.cif_generated_by_CrystalShift
_symmetry_cell_setting triclinic
_symmetry_space_group_name_H-M 'P 1'
loop_
_symmetry_equiv_pos_site_id
_symmetry_equiv_pos_as_xyz
1 x,y,z
_cell_length_a 10.545200
_cell_length_b 7.388500
_cell_length_c 27.606400
_cell_angle_alpha 90.000000
_cell_angle_beta 100.074000
_cell_angle_gamma 90.000000
_cell_volume 2117.742059
loop_
_atom_site_label
_atom_site_type_symbol
_atom_site_fract_x
_atom_site_fract_y
_atom_site_fract_z
Pt1 Pt 0.461047 0.178752 0.171214
N2 N 0.515200 0.198700 0.107000
N3 N 0.401200 0.147600 0.236430
N4 N 0.232100 0.093000 0.408080
O5 O 0.542100 0.262000 -0.069340
O6 O 0.743100 0.188700 -0.034610
C7 C 0.638200 0.156400 0.103190
C8 C 0.676200 0.162700 0.057570
H9 H 0.762000 0.132900 0.054400
C10 C 0.587100 0.213000 0.016480
C11 C 0.459800 0.254100 0.021040
H12 H 0.398500 0.287600 -0.007000
C13 C 0.425000 0.245100 0.067170
C14 C 0.619700 0.222300 -0.033620
C15 C 0.778700 0.200100 -0.083210
H16 H 0.764500 0.324300 -0.096500
H17 H 0.726000 0.115200 -0.106200
C18 C 0.918900 0.150800 -0.077340
H19 H 0.946600 0.157200 -0.109400
H20 H 0.931600 0.027500 -0.064300
H21 H 0.969900 0.235600 -0.054500
C22 C 0.653300 0.110400 0.192160
C23 C 0.730400 0.067000 0.237340
H24 H 0.691900 0.061500 0.265900
C25 C 0.862000 0.031600 0.241660
H26 H 0.911900 0.006500 0.273000
C27 C 0.920200 0.032900 0.200130
H28 H 1.009700 0.008700 0.203000
C29 C 0.847200 0.069600 0.154750
H30 H 0.885700 0.066700 0.126100
C31 C 0.717400 0.110900 0.150760
C32 C 0.289000 0.260900 0.130230
C33 C 0.170300 0.302400 0.143060
H34 H 0.160600 0.293400 0.176500
C35 C 0.064800 0.357200 0.107840
H36 H -0.014200 0.387100 0.118000
C37 C 0.074100 0.368400 0.058510
H38 H 0.001100 0.400800 0.034800
C39 C 0.192000 0.331300 0.044070
H40 H 0.200400 0.339800 0.010400
C41 C 0.297400 0.281600 0.079600
C42 C 0.469400 0.217100 0.278170
H43 H 0.547400 0.279200 0.276400
C44 C 0.430800 0.202100 0.323380
H45 H 0.481400 0.252300 0.352100
C46 C 0.316400 0.112100 0.325850
C47 C 0.246800 0.035300 0.283480
H48 H 0.169900 -0.030200 0.284600
C49 C 0.291900 0.056300 0.239660
H50 H 0.244000 0.004400 0.210600
C51 C 0.270100 0.100300 0.371970
Pt52 Pt 0.538953 0.678752 0.328786
N53 N 0.484800 0.698700 0.393000
N54 N 0.598800 0.647600 0.263570
N55 N 0.767900 0.593000 0.091920
O56 O 0.457900 0.762000 0.569340
O57 O 0.256900 0.688700 0.534610
C58 C 0.361800 0.656400 0.396810
C59 C 0.323800 0.662700 0.442430
H60 H 0.238000 0.632900 0.445600
C61 C 0.412900 0.713000 0.483520
C62 C 0.540200 0.754100 0.478960
H63 H 0.601500 0.787600 0.507000
C64 C 0.575000 0.745100 0.432830
C65 C 0.380300 0.722300 0.533620
C66 C 0.221300 0.700100 0.583210
H67 H 0.235500 0.824300 0.596500
H68 H 0.274000 0.615200 0.606200
C69 C 0.081100 0.650800 0.577340
H70 H 0.053400 0.657200 0.609400
H71 H 0.068400 0.527500 0.564300
H72 H 0.030100 0.735600 0.554500
C73 C 0.346700 0.610400 0.307840
C74 C 0.269600 0.567000 0.262660
H75 H 0.308100 0.561500 0.234100
C76 C 0.138000 0.531600 0.258340
H77 H 0.088100 0.506500 0.227000
C78 C 0.079800 0.532900 0.299870
H79 H -0.009700 0.508700 0.297000
C80 C 0.152800 0.569600 0.345250
H81 H 0.114300 0.566700 0.373900
C82 C 0.282600 0.610900 0.349240
C83 C 0.711000 0.760900 0.369770
C84 C 0.829700 0.802400 0.356940
H85 H 0.839400 0.793400 0.323500
C86 C 0.935200 0.857200 0.392160
H87 H 1.014200 0.887100 0.382000
C88 C 0.925900 0.868400 0.441490
H89 H 0.998900 0.900800 0.465200
C90 C 0.808000 0.831300 0.455930
H91 H 0.799600 0.839800 0.489600
C92 C 0.702600 0.781600 0.420400
C93 C 0.530600 0.717100 0.221830
H94 H 0.452600 0.779200 0.223600
C95 C 0.569200 0.702100 0.176620
H96 H 0.518600 0.752300 0.147900
C97 C 0.683600 0.612100 0.174150
C98 C 0.753200 0.535300 0.216520
H99 H 0.830100 0.469800 0.215400
C100 C 0.708100 0.556300 0.260340
H101 H 0.756000 0.504400 0.289400
C102 C 0.729900 0.600300 0.128030
Pt103 Pt 0.538953 0.821248 0.828786
N104 N 0.484800 0.801300 0.893000
N105 N 0.598800 0.852400 0.763570
N106 N 0.767900 0.907000 0.591920
O107 O 0.457900 0.738000 1.069340
O108 O 0.256900 0.811300 1.034610
C109 C 0.361800 0.843600 0.896810
C110 C 0.323800 0.837300 0.942430
H111 H 0.238000 0.867100 0.945600
C112 C 0.412900 0.787000 0.983520
C113 C 0.540200 0.745900 0.978960
H114 H 0.601500 0.712400 1.007000
C115 C 0.575000 0.754900 0.932830
C116 C 0.380300 0.777700 1.033620
C117 C 0.221300 0.799900 1.083210
H118 H 0.235500 0.675700 1.096500
H119 H 0.274000 0.884800 1.106200
C120 C 0.081100 0.849200 1.077340
H121 H 0.053400 0.842800 1.109400
H122 H 0.068400 0.972500 1.064300
H123 H 0.030100 0.764400 1.054500
C124 C 0.346700 0.889600 0.807840
C125 C 0.269600 0.933000 0.762660
H126 H 0.308100 0.938500 0.734100
C127 C 0.138000 0.968400 0.758340
H128 H 0.088100 0.993500 0.727000
C129 C 0.079800 0.967100 0.799870
H130 H -0.009700 0.991300 0.797000
C131 C 0.152800 0.930400 0.845250
H132 H 0.114300 0.933300 0.873900
C133 C 0.282600 0.889100 0.849240
C134 C 0.711000 0.739100 0.869770
C135 C 0.829700 0.697600 0.856940
H136 H 0.839400 0.706600 0.823500
C137 C 0.935200 0.642800 0.892160
H138 H 1.014200 0.612900 0.882000
C139 C 0.925900 0.631600 0.941490
H140 H 0.998900 0.599200 0.965200
C141 C 0.808000 0.668700 0.955930
H142 H 0.799600 0.660200 0.989600
C143 C 0.702600 0.718400 0.920400
C144 C 0.530600 0.782900 0.721830
H145 H 0.452600 0.720800 0.723600
C146 C 0.569200 0.797900 0.676620
H147 H 0.518600 0.747700 0.647900
C148 C 0.683600 0.887900 0.674150
C149 C 0.753200 0.964700 0.716520
H150 H 0.830100 1.030200 0.715400
C151 C 0.708100 0.943700 0.760340
H152 H 0.756000 0.995600 0.789400
C153 C 0.729900 0.899700 0.628030
Pt154 Pt 0.461047 0.321248 0.671214
N155 N 0.515200 0.301300 0.607000
N156 N 0.401200 0.352400 0.736430
N157 N 0.232100 0.407000 0.908080
O158 O 0.542100 0.238000 0.430660
O159 O 0.743100 0.311300 0.465390
C160 C 0.638200 0.343600 0.603190
C161 C 0.676200 0.337300 0.557570
H162 H 0.762000 0.367100 0.554400
C163 C 0.587100 0.287000 0.516480
C164 C 0.459800 0.245900 0.521040
H165 H 0.398500 0.212400 0.493000
C166 C 0.425000 0.254900 0.567170
C167 C 0.619700 0.277700 0.466380
C168 C 0.778700 0.299900 0.416790
H169 H 0.764500 0.175700 0.403500
H170 H 0.726000 0.384800 0.393800
C171 C 0.918900 0.349200 0.422660
H172 H 0.946600 0.342800 0.390600
H173 H 0.931600 0.472500 0.435700
H174 H 0.969900 0.264400 0.445500
C175 C 0.653300 0.389600 0.692160
C176 C 0.730400 0.433000 0.737340
H177 H 0.691900 0.438500 0.765900
C178 C 0.862000 0.468400 0.741660
H179 H 0.911900 0.493500 0.773000
C180 C 0.920200 0.467100 0.700130
H181 H 1.009700 0.491300 0.703000
C182 C 0.847200 0.430400 0.654750
H183 H 0.885700 0.433300 0.626100
C184 C 0.717400 0.389100 0.650760
C185 C 0.289000 0.239100 0.630230
C186 C 0.170300 0.197600 0.643060
H187 H 0.160600 0.206600 0.676500
C188 C 0.064800 0.142800 0.607840
H189 H -0.014200 0.112900 0.618000
C190 C 0.074100 0.131600 0.558510
H191 H 0.001100 0.099200 0.534800
C192 C 0.192000 0.168700 0.544070
H193 H 0.200400 0.160200 0.510400
C194 C 0.297400 0.218400 0.579600
C195 C 0.469400 0.282900 0.778170
H196 H 0.547400 0.220800 0.776400
C197 C 0.430800 0.297900 0.823380
H198 H 0.481400 0.247700 0.852100
C199 C 0.316400 0.387900 0.825850
C200 C 0.246800 0.464700 0.783480
H201 H 0.169900 0.530200 0.784600
C202 C 0.291900 0.443700 0.739660
H203 H 0.244000 0.495600 0.710600
C204 C 0.270100 0.399700 0.871970

#END
