./MAQFAO_from_xyz.cif_generated_by_CrystalShift
_symmetry_cell_setting triclinic
_symmetry_space_group_name_H-M 'P 1'
loop_
_symmetry_equiv_pos_site_id
_symmetry_equiv_pos_as_xyz
1 x,y,z
_cell_length_a 6.021600
_cell_length_b 8.009100
_cell_length_c 24.370000
_cell_angle_alpha 82.837000
_cell_angle_beta 82.968000
_cell_angle_gamma 81.082000
_cell_volume 1145.647022
loop_
_atom_site_label
_atom_site_type_symbol
_atom_site_fract_x
_atom_site_fract_y
_atom_site_fract_z
C1 C 0.664000 0.723600 0.753250
C2 C 0.440700 0.789000 0.747350
H3 H 0.328400 0.764400 0.775600
C4 C 0.383900 0.890500 0.699820
H5 H 0.233700 0.935300 0.696300
C6 C 0.550200 0.926200 0.657090
C7 C 0.773600 0.862400 0.663180
H8 H 0.885900 0.887500 0.634900
C9 C 0.831100 0.761300 0.711080
H10 H 0.981700 0.718800 0.715000
C11 C 0.496400 1.031600 0.604360
C12 C 0.206000 1.169400 0.550480
H13 H 0.260700 1.277100 0.546200
H14 H 0.044100 1.187400 0.552300
H15 H 0.267800 1.108200 0.519300
C16 C 0.720200 0.609600 0.804300
C17 C 1.012500 0.479300 0.859070
H18 H 1.175700 0.450700 0.854100
H19 H 0.948400 0.374500 0.861100
C20 C 1.131800 0.715900 0.918750
H21 H 1.282500 0.658500 0.910800
H22 H 1.119700 0.763500 0.953400
H23 H 1.098900 0.805200 0.889500
O24 O 0.636500 1.074000 0.568000
O25 O 0.274900 1.071700 0.601340
O26 O 0.583800 0.541500 0.835850
O27 O 0.940800 0.589690 0.810750
S28 S 0.934260 0.567270 0.923320
C29 C 0.336000 0.276400 0.246750
C30 C 0.559300 0.211000 0.252650
H31 H 0.671600 0.235600 0.224400
C32 C 0.616100 0.109500 0.300180
H33 H 0.766300 0.064700 0.303700
C34 C 0.449800 0.073800 0.342910
C35 C 0.226400 0.137600 0.336820
H36 H 0.114100 0.112500 0.365100
C37 C 0.168900 0.238700 0.288920
H38 H 0.018300 0.281200 0.285000
C39 C 0.503600 -0.031600 0.395640
C40 C 0.794000 -0.169400 0.449520
H41 H 0.739300 -0.277100 0.453800
H42 H 0.955900 -0.187400 0.447700
H43 H 0.732200 -0.108200 0.480700
C44 C 0.279800 0.390400 0.195700
C45 C -0.012500 0.520700 0.140930
H46 H -0.175700 0.549300 0.145900
H47 H 0.051600 0.625500 0.138900
C48 C -0.131800 0.284100 0.081250
H49 H -0.282500 0.341500 0.089200
H50 H -0.119700 0.236500 0.046600
H51 H -0.098900 0.194800 0.110500
O52 O 0.363500 -0.074000 0.432000
O53 O 0.725100 -0.071700 0.398660
O54 O 0.416200 0.458500 0.164150
O55 O 0.059200 0.410310 0.189250
S56 S 0.065740 0.432730 0.076680
C57 C 0.351600 0.776800 0.246250
C58 C 0.574200 0.711300 0.253810
H59 H 0.689500 0.734500 0.226200
C60 C 0.624600 0.611300 0.302380
H61 H 0.774100 0.567900 0.307300
C62 C 0.453900 0.575300 0.343790
C63 C 0.231800 0.641100 0.335980
H64 H 0.116000 0.617100 0.363400
C65 C 0.181800 0.741900 0.287820
H66 H 0.032600 0.786900 0.283200
C67 C 0.501800 0.469100 0.396580
C68 C 0.787500 0.329000 0.451510
H69 H 0.724800 0.390000 0.482600
H70 H 0.949400 0.310200 0.450200
H71 H 0.732000 0.221600 0.455400
C72 C 0.288200 0.884600 0.194800
C73 C 0.420100 0.991200 0.103460
H74 H 0.561900 1.019900 0.084000
H75 H 0.324300 1.096700 0.110900
C76 C 0.516600 0.725600 0.040010
H77 H 0.648100 0.778300 0.026200
H78 H 0.475800 0.666800 0.011600
H79 H 0.548900 0.646200 0.071900
O80 O 0.359100 0.427600 0.432250
O81 O 0.722000 0.427100 0.400670
O82 O 0.099500 0.955400 0.188590
O83 O 0.464700 0.892900 0.155830
S84 S 0.287450 0.885040 0.059400
C85 C 0.648400 0.223200 0.753750
C86 C 0.425800 0.288700 0.746190
H87 H 0.310500 0.265500 0.773800
C88 C 0.375400 0.388700 0.697620
H89 H 0.225900 0.432100 0.692700
C90 C 0.546100 0.424700 0.656210
C91 C 0.768200 0.358900 0.664020
H92 H 0.884000 0.382900 0.636600
C93 C 0.818200 0.258100 0.712180
H94 H 0.967400 0.213100 0.716800
C95 C 0.498200 0.530900 0.603420
C96 C 0.212500 0.671000 0.548490
H97 H 0.275200 0.610000 0.517400
H98 H 0.050600 0.689800 0.549800
H99 H 0.268000 0.778400 0.544600
C100 C 0.711800 0.115400 0.805200
C101 C 0.579900 0.008800 0.896540
H102 H 0.438100 -0.019900 0.916000
H103 H 0.675700 -0.096700 0.889100
C104 C 0.483400 0.274400 0.959990
H105 H 0.351900 0.221700 0.973800
H106 H 0.524200 0.333200 0.988400
H107 H 0.451100 0.353800 0.928100
O108 O 0.640900 0.572400 0.567750
O109 O 0.278000 0.572900 0.599330
O110 O 0.900500 0.044600 0.811410
O111 O 0.535300 0.107100 0.844170
S112 S 0.712550 0.114960 0.940600

#END
