./MAQGAM_from_xyz.cif_generated_by_CrystalShift
_symmetry_cell_setting triclinic
_symmetry_space_group_name_H-M 'P 1'
loop_
_symmetry_equiv_pos_site_id
_symmetry_equiv_pos_as_xyz
1 x,y,z
_cell_length_a 14.241000
_cell_length_b 9.440100
_cell_length_c 11.648000
_cell_angle_alpha 90.000000
_cell_angle_beta 90.000000
_cell_angle_gamma 90.000000
_cell_volume 1565.915934
loop_
_atom_site_label
_atom_site_type_symbol
_atom_site_fract_x
_atom_site_fract_y
_atom_site_fract_z
C1 C 0.119520 0.634900 0.416300
H2 H 0.108400 0.605600 0.495000
H3 H 0.060000 0.630500 0.376000
O4 O 0.184020 0.536010 0.363460
C5 C 0.218840 0.571400 0.261200
O6 O 0.258540 0.479700 0.205740
C7 C 0.215000 0.718100 0.226660
H8 H 0.229200 0.741200 0.151000
C9 C 0.191750 0.821800 0.299200
C10 C 0.207920 0.974400 0.271000
H11 H 0.219700 0.983300 0.189300
H12 H 0.263500 1.007000 0.311200
C13 C 0.125390 1.068700 0.303350
H14 H 0.073500 1.050300 0.251600
H15 H 0.143400 1.167200 0.294400
C16 C 0.093420 1.043660 0.426400
H17 H 0.145000 1.067500 0.478600
C18 C 0.068170 0.885810 0.441900
H19 H 0.021500 0.864500 0.382600
C20 C 0.153850 0.787630 0.416380
C21 C 0.020790 0.852300 0.556750
H22 H -0.002900 0.756000 0.554700
H23 H 0.067300 0.857700 0.617400
C24 C -0.060160 0.952900 0.585090
H25 H -0.111200 0.937400 0.531400
H26 H -0.083300 0.932700 0.661700
C27 C -0.029150 1.106490 0.578770
C28 C 0.008260 1.132640 0.457470
H29 H -0.041900 1.104400 0.404600
C30 C 0.015740 1.294700 0.449200
H31 H 0.008200 1.326500 0.370500
H32 H 0.075800 1.327800 0.478100
C33 C -0.065480 1.347500 0.525100
H34 H -0.042200 1.412000 0.583300
H35 H -0.111900 1.396700 0.479000
C36 C -0.108780 1.216200 0.580980
H37 H -0.160300 1.182200 0.532400
O38 O -0.145330 1.252010 0.690210
H39 H -0.182000 1.178000 0.716000
C40 C 0.233510 0.803800 0.504250
H41 H 0.209900 0.784200 0.579800
H42 H 0.257400 0.898900 0.501700
H43 H 0.283000 0.738500 0.486200
C44 C 0.041370 1.140700 0.672980
H45 H 0.061400 1.237400 0.665700
H46 H 0.094700 1.079200 0.666100
H47 H 0.012500 1.127100 0.746600
C48 C 0.380480 0.365100 0.916300
H49 H 0.391600 0.394400 0.995000
H50 H 0.440000 0.369500 0.876000
O51 O 0.315980 0.463990 0.863460
C52 C 0.281160 0.428600 0.761200
O53 O 0.241460 0.520300 0.705740
C54 C 0.285000 0.281900 0.726660
H55 H 0.270800 0.258800 0.651000
C56 C 0.308250 0.178200 0.799200
C57 C 0.292080 0.025600 0.771000
H58 H 0.280300 0.016700 0.689300
H59 H 0.236500 -0.007000 0.811200
C60 C 0.374610 -0.068700 0.803350
H61 H 0.426500 -0.050300 0.751600
H62 H 0.356600 -0.167200 0.794400
C63 C 0.406580 -0.043660 0.926400
H64 H 0.355000 -0.067500 0.978600
C65 C 0.431830 0.114190 0.941900
H66 H 0.478500 0.135500 0.882600
C67 C 0.346150 0.212370 0.916380
C68 C 0.479210 0.147700 1.056750
H69 H 0.502900 0.244000 1.054700
H70 H 0.432700 0.142300 1.117400
C71 C 0.560160 0.047100 1.085090
H72 H 0.611200 0.062600 1.031400
H73 H 0.583300 0.067300 1.161700
C74 C 0.529150 -0.106490 1.078770
C75 C 0.491740 -0.132640 0.957470
H76 H 0.541900 -0.104400 0.904600
C77 C 0.484260 -0.294700 0.949200
H78 H 0.491800 -0.326500 0.870500
H79 H 0.424200 -0.327800 0.978100
C80 C 0.565480 -0.347500 1.025100
H81 H 0.542200 -0.412000 1.083300
H82 H 0.611900 -0.396700 0.979000
C83 C 0.608780 -0.216200 1.080980
H84 H 0.660300 -0.182200 1.032400
O85 O 0.645330 -0.252010 1.190210
H86 H 0.682000 -0.178000 1.216000
C87 C 0.266490 0.196200 1.004250
H88 H 0.290100 0.215800 1.079800
H89 H 0.242600 0.101100 1.001700
H90 H 0.217000 0.261500 0.986200
C91 C 0.458630 -0.140700 1.172980
H92 H 0.438600 -0.237400 1.165700
H93 H 0.405300 -0.079200 1.166100
H94 H 0.487500 -0.127100 1.246600
C95 C 0.880480 0.134900 0.083700
H96 H 0.891600 0.105600 0.005000
H97 H 0.940000 0.130500 0.124000
O98 O 0.815980 0.036010 0.136540
C99 C 0.781160 0.071400 0.238800
O100 O 0.741460 -0.020300 0.294260
C101 C 0.785000 0.218100 0.273340
H102 H 0.770800 0.241200 0.349000
C103 C 0.808250 0.321800 0.200800
C104 C 0.792080 0.474400 0.229000
H105 H 0.780300 0.483300 0.310700
H106 H 0.736500 0.507000 0.188800
C107 C 0.874610 0.568700 0.196650
H108 H 0.926500 0.550300 0.248400
H109 H 0.856600 0.667200 0.205600
C110 C 0.906580 0.543660 0.073600
H111 H 0.855000 0.567500 0.021400
C112 C 0.931830 0.385810 0.058100
H113 H 0.978500 0.364500 0.117400
C114 C 0.846150 0.287630 0.083620
C115 C 0.979210 0.352300 -0.056750
H116 H 1.002900 0.256000 -0.054700
H117 H 0.932700 0.357700 -0.117400
C118 C 1.060160 0.452900 -0.085090
H119 H 1.111200 0.437400 -0.031400
H120 H 1.083300 0.432700 -0.161700
C121 C 1.029150 0.606490 -0.078770
C122 C 0.991740 0.632640 0.042530
H123 H 1.041900 0.604400 0.095400
C124 C 0.984260 0.794700 0.050800
H125 H 0.991800 0.826500 0.129500
H126 H 0.924200 0.827800 0.021900
C127 C 1.065480 0.847500 -0.025100
H128 H 1.042200 0.912000 -0.083300
H129 H 1.111900 0.896700 0.021000
C130 C 1.108780 0.716200 -0.080980
H131 H 1.160300 0.682200 -0.032400
O132 O 1.145330 0.752010 -0.190210
H133 H 1.182000 0.678000 -0.216000
C134 C 0.766490 0.303800 -0.004250
H135 H 0.790100 0.284200 -0.079800
H136 H 0.742600 0.398900 -0.001700
H137 H 0.717000 0.238500 0.013800
C138 C 0.958630 0.640700 -0.172980
H139 H 0.938600 0.737400 -0.165700
H140 H 0.905300 0.579200 -0.166100
H141 H 0.987500 0.627100 -0.246600
C142 C 0.619520 0.865100 0.583700
H143 H 0.608400 0.894400 0.505000
H144 H 0.560000 0.869500 0.624000
O145 O 0.684020 0.963990 0.636540
C146 C 0.718840 0.928600 0.738800
O147 O 0.758540 1.020300 0.794260
C148 C 0.715000 0.781900 0.773340
H149 H 0.729200 0.758800 0.849000
C150 C 0.691750 0.678200 0.700800
C151 C 0.707920 0.525600 0.729000
H152 H 0.719700 0.516700 0.810700
H153 H 0.763500 0.493000 0.688800
C154 C 0.625390 0.431300 0.696650
H155 H 0.573500 0.449700 0.748400
H156 H 0.643400 0.332800 0.705600
C157 C 0.593420 0.456340 0.573600
H158 H 0.645000 0.432500 0.521400
C159 C 0.568170 0.614190 0.558100
H160 H 0.521500 0.635500 0.617400
C161 C 0.653850 0.712370 0.583620
C162 C 0.520790 0.647700 0.443250
H163 H 0.497100 0.744000 0.445300
H164 H 0.567300 0.642300 0.382600
C165 C 0.439840 0.547100 0.414910
H166 H 0.388800 0.562600 0.468600
H167 H 0.416700 0.567300 0.338300
C168 C 0.470850 0.393510 0.421230
C169 C 0.508260 0.367360 0.542530
H170 H 0.458100 0.395600 0.595400
C171 C 0.515740 0.205300 0.550800
H172 H 0.508200 0.173500 0.629500
H173 H 0.575800 0.172200 0.521900
C174 C 0.434520 0.152500 0.474900
H175 H 0.457800 0.088000 0.416700
H176 H 0.388100 0.103300 0.521000
C177 C 0.391220 0.283800 0.419020
H178 H 0.339700 0.317800 0.467600
O179 O 0.354670 0.247990 0.309790
H180 H 0.318000 0.322000 0.284000
C181 C 0.733510 0.696200 0.495750
H182 H 0.709900 0.715800 0.420200
H183 H 0.757400 0.601100 0.498300
H184 H 0.783000 0.761500 0.513800
C185 C 0.541370 0.359300 0.327020
H186 H 0.561400 0.262600 0.334300
H187 H 0.594700 0.420800 0.333900
H188 H 0.512500 0.372900 0.253400

#END
