./MARBOX_from_xyz.cif_generated_by_CrystalShift
_symmetry_cell_setting triclinic
_symmetry_space_group_name_H-M 'P 1'
loop_
_symmetry_equiv_pos_site_id
_symmetry_equiv_pos_as_xyz
1 x,y,z
_cell_length_a 10.450300
_cell_length_b 10.835800
_cell_length_c 12.635000
_cell_angle_alpha 90.000000
_cell_angle_beta 108.837900
_cell_angle_gamma 90.000000
_cell_volume 1354.116932
loop_
_atom_site_label
_atom_site_type_symbol
_atom_site_fract_x
_atom_site_fract_y
_atom_site_fract_z
C1 C 0.337670 0.716980 0.727260
C2 C 0.427120 0.613230 0.720720
C3 C 0.350650 0.525880 0.654770
C4 C 0.207260 0.569730 0.611490
C5 C 0.160310 0.575550 0.484110
C6 C 0.180300 0.448800 0.438390
C7 C 0.328400 0.408920 0.481710
C8 C 0.385360 0.407350 0.610790
O9 O 0.363800 0.811320 0.780650
O10 O 0.208990 0.690670 0.660790
H11 H 0.142900 0.513300 0.631500
H12 H 0.214600 0.638600 0.459500
H13 H 0.062500 0.598600 0.455500
H14 H 0.124300 0.386700 0.462300
H15 H 0.150400 0.452800 0.354900
H16 H 0.383100 0.467700 0.452900
H17 H 0.336100 0.324100 0.453300
H18 H 0.485800 0.397500 0.635200
H19 H 0.344800 0.337000 0.640200
C20 C 0.662330 0.716980 0.772740
C21 C 0.572880 0.613230 0.779280
C22 C 0.649350 0.525880 0.845230
C23 C 0.792740 0.569730 0.888510
C24 C 0.839690 0.575550 1.015890
C25 C 0.819700 0.448800 1.061610
C26 C 0.671600 0.408920 1.018290
C27 C 0.614640 0.407350 0.889210
O28 O 0.636200 0.811320 0.719350
O29 O 0.791010 0.690670 0.839210
H30 H 0.857100 0.513300 0.868500
H31 H 0.785400 0.638600 1.040500
H32 H 0.937500 0.598600 1.044500
H33 H 0.875700 0.386700 1.037700
H34 H 0.849600 0.452800 1.145100
H35 H 0.616900 0.467700 1.047100
H36 H 0.663900 0.324100 1.046700
H37 H 0.514200 0.397500 0.864800
H38 H 0.655200 0.337000 0.859800
C39 C -0.162330 0.216980 0.727260
C40 C -0.072880 0.113230 0.720720
C41 C -0.149350 0.025880 0.654770
C42 C -0.292740 0.069730 0.611490
C43 C -0.339690 0.075550 0.484110
C44 C -0.319700 -0.051200 0.438390
C45 C -0.171600 -0.091080 0.481710
C46 C -0.114640 -0.092650 0.610790
O47 O -0.136200 0.311320 0.780650
O48 O -0.291010 0.190670 0.660790
H49 H -0.357100 0.013300 0.631500
H50 H -0.285400 0.138600 0.459500
H51 H -0.437500 0.098600 0.455500
H52 H -0.375700 -0.113300 0.462300
H53 H -0.349600 -0.047200 0.354900
H54 H -0.116900 -0.032300 0.452900
H55 H -0.163900 -0.175900 0.453300
H56 H -0.014200 -0.102500 0.635200
H57 H -0.155200 -0.163000 0.640200
C58 C 0.162330 0.216980 0.772740
C59 C 0.072880 0.113230 0.779280
C60 C 0.149350 0.025880 0.845230
C61 C 0.292740 0.069730 0.888510
C62 C 0.339690 0.075550 1.015890
C63 C 0.319700 -0.051200 1.061610
C64 C 0.171600 -0.091080 1.018290
C65 C 0.114640 -0.092650 0.889210
O66 O 0.136200 0.311320 0.719350
O67 O 0.291010 0.190670 0.839210
H68 H 0.357100 0.013300 0.868500
H69 H 0.285400 0.138600 1.040500
H70 H 0.437500 0.098600 1.044500
H71 H 0.375700 -0.113300 1.037700
H72 H 0.349600 -0.047200 1.145100
H73 H 0.116900 -0.032300 1.047100
H74 H 0.163900 -0.175900 1.046700
H75 H 0.014200 -0.102500 0.864800
H76 H 0.155200 -0.163000 0.859800
C77 C 0.837670 0.216980 0.727260
C78 C 0.927120 0.113230 0.720720
C79 C 0.850650 0.025880 0.654770
C80 C 0.707260 0.069730 0.611490
C81 C 0.660310 0.075550 0.484110
C82 C 0.680300 -0.051200 0.438390
C83 C 0.828400 -0.091080 0.481710
C84 C 0.885360 -0.092650 0.610790
O85 O 0.863800 0.311320 0.780650
O86 O 0.708990 0.190670 0.660790
H87 H 0.642900 0.013300 0.631500
H88 H 0.714600 0.138600 0.459500
H89 H 0.562500 0.098600 0.455500
H90 H 0.624300 -0.113300 0.462300
H91 H 0.650400 -0.047200 0.354900
H92 H 0.883100 -0.032300 0.452900
H93 H 0.836100 -0.175900 0.453300
H94 H 0.985800 -0.102500 0.635200
H95 H 0.844800 -0.163000 0.640200
C96 C 1.162330 0.216980 0.772740
C97 C 1.072880 0.113230 0.779280
C98 C 1.149350 0.025880 0.845230
C99 C 1.292740 0.069730 0.888510
C100 C 1.339690 0.075550 1.015890
C101 C 1.319700 -0.051200 1.061610
C102 C 1.171600 -0.091080 1.018290
C103 C 1.114640 -0.092650 0.889210
O104 O 1.136200 0.311320 0.719350
O105 O 1.291010 0.190670 0.839210
H106 H 1.357100 0.013300 0.868500
H107 H 1.285400 0.138600 1.040500
H108 H 1.437500 0.098600 1.044500
H109 H 1.375700 -0.113300 1.037700
H110 H 1.349600 -0.047200 1.145100
H111 H 1.116900 -0.032300 1.047100
H112 H 1.163900 -0.175900 1.046700
H113 H 1.014200 -0.102500 0.864800
H114 H 1.155200 -0.163000 0.859800
C115 C 0.662330 0.283020 0.272740
C116 C 0.572880 0.386770 0.279280
C117 C 0.649350 0.474120 0.345230
C118 C 0.792740 0.430270 0.388510
C119 C 0.839690 0.424450 0.515890
C120 C 0.819700 0.551200 0.561610
C121 C 0.671600 0.591080 0.518290
C122 C 0.614640 0.592650 0.389210
O123 O 0.636200 0.188680 0.219350
O124 O 0.791010 0.309330 0.339210
H125 H 0.857100 0.486700 0.368500
H126 H 0.785400 0.361400 0.540500
H127 H 0.937500 0.401400 0.544500
H128 H 0.875700 0.613300 0.537700
H129 H 0.849600 0.547200 0.645100
H130 H 0.616900 0.532300 0.547100
H131 H 0.663900 0.675900 0.546700
H132 H 0.514200 0.602500 0.364800
H133 H 0.655200 0.663000 0.359800
C134 C 0.337670 0.283020 0.227260
C135 C 0.427120 0.386770 0.220720
C136 C 0.350650 0.474120 0.154770
C137 C 0.207260 0.430270 0.111490
C138 C 0.160310 0.424450 -0.015890
C139 C 0.180300 0.551200 -0.061610
C140 C 0.328400 0.591080 -0.018290
C141 C 0.385360 0.592650 0.110790
O142 O 0.363800 0.188680 0.280650
O143 O 0.208990 0.309330 0.160790
H144 H 0.142900 0.486700 0.131500
H145 H 0.214600 0.361400 -0.040500
H146 H 0.062500 0.401400 -0.044500
H147 H 0.124300 0.613300 -0.037700
H148 H 0.150400 0.547200 -0.145100
H149 H 0.383100 0.532300 -0.047100
H150 H 0.336100 0.675900 -0.046700
H151 H 0.485800 0.602500 0.135200
H152 H 0.344800 0.663000 0.140200
C153 C 0.162330 0.783020 0.272740
C154 C 0.072880 0.886770 0.279280
C155 C 0.149350 0.974120 0.345230
C156 C 0.292740 0.930270 0.388510
C157 C 0.339690 0.924450 0.515890
C158 C 0.319700 1.051200 0.561610
C159 C 0.171600 1.091080 0.518290
C160 C 0.114640 1.092650 0.389210
O161 O 0.136200 0.688680 0.219350
O162 O 0.291010 0.809330 0.339210
H163 H 0.357100 0.986700 0.368500
H164 H 0.285400 0.861400 0.540500
H165 H 0.437500 0.901400 0.544500
H166 H 0.375700 1.113300 0.537700
H167 H 0.349600 1.047200 0.645100
H168 H 0.116900 1.032300 0.547100
H169 H 0.163900 1.175900 0.546700
H170 H 0.014200 1.102500 0.364800
H171 H 0.155200 1.163000 0.359800
C172 C -0.162330 0.783020 0.227260
C173 C -0.072880 0.886770 0.220720
C174 C -0.149350 0.974120 0.154770
C175 C -0.292740 0.930270 0.111490
C176 C -0.339690 0.924450 -0.015890
C177 C -0.319700 1.051200 -0.061610
C178 C -0.171600 1.091080 -0.018290
C179 C -0.114640 1.092650 0.110790
O180 O -0.136200 0.688680 0.280650
O181 O -0.291010 0.809330 0.160790
H182 H -0.357100 0.986700 0.131500
H183 H -0.285400 0.861400 -0.040500
H184 H -0.437500 0.901400 -0.044500
H185 H -0.375700 1.113300 -0.037700
H186 H -0.349600 1.047200 -0.145100
H187 H -0.116900 1.032300 -0.047100
H188 H -0.163900 1.175900 -0.046700
H189 H -0.014200 1.102500 0.135200
H190 H -0.155200 1.163000 0.140200
C191 C 1.162330 0.783020 0.272740
C192 C 1.072880 0.886770 0.279280
C193 C 1.149350 0.974120 0.345230
C194 C 1.292740 0.930270 0.388510
C195 C 1.339690 0.924450 0.515890
C196 C 1.319700 1.051200 0.561610
C197 C 1.171600 1.091080 0.518290
C198 C 1.114640 1.092650 0.389210
O199 O 1.136200 0.688680 0.219350
O200 O 1.291010 0.809330 0.339210
H201 H 1.357100 0.986700 0.368500
H202 H 1.285400 0.861400 0.540500
H203 H 1.437500 0.901400 0.544500
H204 H 1.375700 1.113300 0.537700
H205 H 1.349600 1.047200 0.645100
H206 H 1.116900 1.032300 0.547100
H207 H 1.163900 1.175900 0.546700
H208 H 1.014200 1.102500 0.364800
H209 H 1.155200 1.163000 0.359800
C210 C 0.837670 0.783020 0.227260
C211 C 0.927120 0.886770 0.220720
C212 C 0.850650 0.974120 0.154770
C213 C 0.707260 0.930270 0.111490
C214 C 0.660310 0.924450 -0.015890
C215 C 0.680300 1.051200 -0.061610
C216 C 0.828400 1.091080 -0.018290
C217 C 0.885360 1.092650 0.110790
O218 O 0.863800 0.688680 0.280650
O219 O 0.708990 0.809330 0.160790
H220 H 0.642900 0.986700 0.131500
H221 H 0.714600 0.861400 -0.040500
H222 H 0.562500 0.901400 -0.044500
H223 H 0.624300 1.113300 -0.037700
H224 H 0.650400 1.047200 -0.145100
H225 H 0.883100 1.032300 -0.047100
H226 H 0.836100 1.175900 -0.046700
H227 H 0.985800 1.102500 0.135200
H228 H 0.844800 1.163000 0.140200

#END
