./MARBUF_from_xyz.cif_generated_by_CrystalShift
_symmetry_cell_setting triclinic
_symmetry_space_group_name_H-M 'P 1'
loop_
_symmetry_equiv_pos_site_id
_symmetry_equiv_pos_as_xyz
1 x,y,z
_cell_length_a 6.677000
_cell_length_b 9.479900
_cell_length_c 23.959300
_cell_angle_alpha 90.000000
_cell_angle_beta 90.000000
_cell_angle_gamma 90.000000
_cell_volume 1516.558815
loop_
_atom_site_label
_atom_site_type_symbol
_atom_site_fract_x
_atom_site_fract_y
_atom_site_fract_z
O1 O 0.823800 0.443480 0.653430
O2 O 1.111930 0.330140 0.656310
O3 O 0.197430 0.682330 0.639570
O4 O -0.044560 0.655720 0.504250
H5 H 0.066000 0.642100 0.488400
N6 N -0.195000 0.938300 0.558540
C7 C 0.998800 0.407710 0.680800
C8 C 1.027500 0.466640 0.736010
H9 H 1.142600 0.440700 0.756900
C10 C 0.895100 0.556940 0.758220
H11 H 0.919700 0.596000 0.794100
C12 C 0.716700 0.595310 0.728420
C13 C 0.568800 0.688090 0.748480
H14 H 0.586500 0.732600 0.783700
C15 C 0.399500 0.715090 0.717930
H16 H 0.301000 0.778100 0.732000
C17 C 0.371400 0.649710 0.665800
C18 C 0.514300 0.559090 0.644560
H19 H 0.496400 0.515100 0.609300
C20 C 0.685100 0.533960 0.676270
C21 C 0.177600 0.639630 0.582040
H22 H 0.167800 0.535600 0.579400
H23 H 0.295700 0.670800 0.560300
C24 C -0.011200 0.707670 0.559260
H25 H -0.126500 0.678600 0.583300
C26 C 0.002200 0.868430 0.559730
H27 H 0.075000 0.898700 0.593700
H28 H 0.080900 0.899700 0.527000
C29 C -0.282500 0.939140 0.615040
H30 H -0.190600 0.988600 0.640900
H31 H -0.297700 0.840800 0.628300
C32 C -0.484800 1.011430 0.615870
H33 H -0.539500 1.010100 0.654300
H34 H -0.579000 0.959900 0.591300
C35 C -0.465200 1.163900 0.595860
H36 H -0.599700 1.207200 0.592800
H37 H -0.386300 1.219000 0.623200
C38 C -0.361900 1.167330 0.539260
H39 H -0.451900 1.126200 0.510800
H40 H -0.334800 1.266500 0.528700
C41 C -0.166400 1.085680 0.540140
H42 H -0.107100 1.086100 0.502300
H43 H -0.071100 1.133200 0.565600
O44 O -0.323800 0.556520 0.153430
O45 O -0.611930 0.669860 0.156310
O46 O 0.302570 0.317670 0.139570
O47 O 0.544560 0.344280 0.004250
H48 H 0.434000 0.357900 -0.011600
N49 N 0.695000 0.061700 0.058540
C50 C -0.498800 0.592290 0.180800
C51 C -0.527500 0.533360 0.236010
H52 H -0.642600 0.559300 0.256900
C53 C -0.395100 0.443060 0.258220
H54 H -0.419700 0.404000 0.294100
C55 C -0.216700 0.404690 0.228420
C56 C -0.068800 0.311910 0.248480
H57 H -0.086500 0.267400 0.283700
C58 C 0.100500 0.284910 0.217930
H59 H 0.199000 0.221900 0.232000
C60 C 0.128600 0.350290 0.165800
C61 C -0.014300 0.440910 0.144560
H62 H 0.003600 0.484900 0.109300
C63 C -0.185100 0.466040 0.176270
C64 C 0.322400 0.360370 0.082040
H65 H 0.332200 0.464400 0.079400
H66 H 0.204300 0.329200 0.060300
C67 C 0.511200 0.292330 0.059260
H68 H 0.626500 0.321400 0.083300
C69 C 0.497800 0.131570 0.059730
H70 H 0.425000 0.101300 0.093700
H71 H 0.419100 0.100300 0.027000
C72 C 0.782500 0.060860 0.115040
H73 H 0.690600 0.011400 0.140900
H74 H 0.797700 0.159200 0.128300
C75 C 0.984800 -0.011430 0.115870
H76 H 1.039500 -0.010100 0.154300
H77 H 1.079000 0.040100 0.091300
C78 C 0.965200 -0.163900 0.095860
H79 H 1.099700 -0.207200 0.092800
H80 H 0.886300 -0.219000 0.123200
C81 C 0.861900 -0.167330 0.039260
H82 H 0.951900 -0.126200 0.010800
H83 H 0.834800 -0.266500 0.028700
C84 C 0.666400 -0.085680 0.040140
H85 H 0.607100 -0.086100 0.002300
H86 H 0.571100 -0.133200 0.065600
O87 O 0.176200 -0.056520 0.846570
O88 O -0.111930 -0.169860 0.843690
O89 O 0.802570 0.182330 0.860430
O90 O 1.044560 0.155720 0.995750
H91 H 0.934000 0.142100 1.011600
N92 N 1.195000 0.438300 0.941460
C93 C 0.001200 -0.092290 0.819200
C94 C -0.027500 -0.033360 0.763990
H95 H -0.142600 -0.059300 0.743100
C96 C 0.104900 0.056940 0.741780
H97 H 0.080300 0.096000 0.705900
C98 C 0.283300 0.095310 0.771580
C99 C 0.431200 0.188090 0.751520
H100 H 0.413500 0.232600 0.716300
C101 C 0.600500 0.215090 0.782070
H102 H 0.699000 0.278100 0.768000
C103 C 0.628600 0.149710 0.834200
C104 C 0.485700 0.059090 0.855440
H105 H 0.503600 0.015100 0.890700
C106 C 0.314900 0.033960 0.823730
C107 C 0.822400 0.139630 0.917960
H108 H 0.832200 0.035600 0.920600
H109 H 0.704300 0.170800 0.939700
C110 C 1.011200 0.207670 0.940740
H111 H 1.126500 0.178600 0.916700
C112 C 0.997800 0.368430 0.940270
H113 H 0.925000 0.398700 0.906300
H114 H 0.919100 0.399700 0.973000
C115 C 1.282500 0.439140 0.884960
H116 H 1.190600 0.488600 0.859100
H117 H 1.297700 0.340800 0.871700
C118 C 1.484800 0.511430 0.884130
H119 H 1.539500 0.510100 0.845700
H120 H 1.579000 0.459900 0.908700
C121 C 1.465200 0.663900 0.904140
H122 H 1.599700 0.707200 0.907200
H123 H 1.386300 0.719000 0.876800
C124 C 1.361900 0.667330 0.960740
H125 H 1.451900 0.626200 0.989200
H126 H 1.334800 0.766500 0.971300
C127 C 1.166400 0.585680 0.959860
H128 H 1.107100 0.586100 0.997700
H129 H 1.071100 0.633200 0.934400
O130 O 1.323800 1.056520 0.346570
O131 O 1.611930 1.169860 0.343690
O132 O 0.697430 0.817670 0.360430
O133 O 0.455440 0.844280 0.495750
H134 H 0.566000 0.857900 0.511600
N135 N 0.305000 0.561700 0.441460
C136 C 1.498800 1.092290 0.319200
C137 C 1.527500 1.033360 0.263990
H138 H 1.642600 1.059300 0.243100
C139 C 1.395100 0.943060 0.241780
H140 H 1.419700 0.904000 0.205900
C141 C 1.216700 0.904690 0.271580
C142 C 1.068800 0.811910 0.251520
H143 H 1.086500 0.767400 0.216300
C144 C 0.899500 0.784910 0.282070
H145 H 0.801000 0.721900 0.268000
C146 C 0.871400 0.850290 0.334200
C147 C 1.014300 0.940910 0.355440
H148 H 0.996400 0.984900 0.390700
C149 C 1.185100 0.966040 0.323730
C150 C 0.677600 0.860370 0.417960
H151 H 0.667800 0.964400 0.420600
H152 H 0.795700 0.829200 0.439700
C153 C 0.488800 0.792330 0.440740
H154 H 0.373500 0.821400 0.416700
C155 C 0.502200 0.631570 0.440270
H156 H 0.575000 0.601300 0.406300
H157 H 0.580900 0.600300 0.473000
C158 C 0.217500 0.560860 0.384960
H159 H 0.309400 0.511400 0.359100
H160 H 0.202300 0.659200 0.371700
C161 C 0.015200 0.488570 0.384130
H162 H -0.039500 0.489900 0.345700
H163 H -0.079000 0.540100 0.408700
C164 C 0.034800 0.336100 0.404140
H165 H -0.099700 0.292800 0.407200
H166 H 0.113700 0.281000 0.376800
C167 C 0.138100 0.332670 0.460740
H168 H 0.048100 0.373800 0.489200
H169 H 0.165200 0.233500 0.471300
C170 C 0.333600 0.414320 0.459860
H171 H 0.392900 0.413900 0.497700
H172 H 0.428900 0.366800 0.434400

#END
