
#######################################################################
#
#                 Cambridge Crystallographic Data Centre
#                                CCDC 
#
#######################################################################
#
# If this CIF has been generated from an entry in the Cambridge 
# Structural Database, then it will include bibliographic, chemical, 
# crystal, experimental, refinement or atomic coordinate data resulting 
# from the CCDC's data processing and validation procedures.
#
#######################################################################

data_MARHUK
_symmetry_cell_setting           triclinic
_symmetry_space_group_name_H-M   'P -1'
_symmetry_Int_Tables_number      2
_space_group_name_Hall           '-P 1'
loop_
_symmetry_equiv_pos_site_id
_symmetry_equiv_pos_as_xyz
1 x,y,z
2 -x,-y,-z
_cell_length_a                   7.3324(7)
_cell_length_b                   7.3383(7)
_cell_length_c                   37.984(3)
_cell_angle_alpha                89.627(7)
_cell_angle_beta                 89.836(7)
_cell_angle_gamma                85.628(7)
_cell_volume                     2037.82
loop_
_atom_site_label
_atom_site_type_symbol
_atom_site_fract_x
_atom_site_fract_y
_atom_site_fract_z
C1 C 0.6258(8) 0.5390(9) 0.02652(15)
C2 C 0.8723(7) 0.5628(9) 0.14812(17)
C3 C 1.0071(9) 0.6245(10) 0.17174(18)
C4 C 0.9163(8) 0.5623(9) 0.11103(17)
C5 C 0.6540(8) 0.5854(9) -0.00841(16)
H1 H 0.7577 0.6442 -0.0145
C8 C 0.7640(8) 0.5799(10) 0.05315(16)
H3 H 0.8519 0.6580 0.0463
C11 C 1.0857(9) 0.5999(10) 0.10010(18)
H6 H 1.1149 0.5883 0.0763
C13 C 0.7052(9) 0.5239(10) 0.16259(18)
H7 H 0.6147 0.4861 0.1478
C15 C 0.7737(8) 0.5157(10) 0.08567(16)
H8 H 0.6871 0.4374 0.0931
C16 C 1.1800(9) 0.6674(11) 0.1585(2)
H9 H 1.2685 0.7040 0.1739
C17 C 1.2173(9) 0.6553(11) 0.12321(19)
H10 H 1.3307 0.6841 0.1147
C20 C 0.4694(9) 0.4541(10) 0.03443(17)
H13 H 0.4459 0.4227 0.0577
C24 C 0.6692(10) 0.5393(11) 0.19781(19)
H16 H 0.5564 0.5102 0.2066
C25 C 0.9604(10) 0.6395(11) 0.20825(18)
H17 H 1.0458 0.6796 0.2239
C28 C 0.7987(10) 0.5977(11) 0.22044(19)
H20 H 0.7729 0.6079 0.2444
C1A C 0.3742(8) 0.4610(9) -0.02652(15)
C2A C 0.1277(7) 0.4372(9) -0.14812(17)
C3A C -0.0071(9) 0.3755(10) -0.17174(18)
C4A C 0.0837(8) 0.4377(9) -0.11103(17)
C5A C 0.3460(8) 0.4146(9) 0.00841(16)
H1A H 0.2423 0.3558 0.0145
C8A C 0.2360(8) 0.4201(10) -0.05315(16)
H3A H 0.1481 0.3420 -0.0463
C11A C -0.0857(9) 0.4001(10) -0.10010(18)
H6A H -0.1149 0.4117 -0.0763
C13A C 0.2948(9) 0.4761(10) -0.16259(18)
H7A H 0.3853 0.5139 -0.1478
C15A C 0.2263(8) 0.4843(10) -0.08567(16)
H8A H 0.3129 0.5626 -0.0931
C16A C -0.1800(9) 0.3326(11) -0.1585(2)
H9A H -0.2685 0.2960 -0.1739
C17A C -0.2173(9) 0.3447(11) -0.12321(19)
H10A H -0.3307 0.3159 -0.1147
C20A C 0.5306(9) 0.5459(10) -0.03443(17)
H13A H 0.5541 0.5773 -0.0577
C24A C 0.3308(10) 0.4607(11) -0.19781(19)
H16A H 0.4436 0.4898 -0.2066
C25A C 0.0396(10) 0.3605(11) -0.20825(18)
H17A H -0.0458 0.3204 -0.2239
C28A C 0.2013(10) 0.4023(11) -0.22044(19)
H20A H 0.2271 0.3921 -0.2444
C1 C 0.6258(8) 0.5390(9) 1.02652(15)
C2 C 0.8723(7) 0.5628(9) 1.14812(17)
C3 C 1.0071(9) 0.6245(10) 1.17174(18)
C4 C 0.9163(8) 0.5623(9) 1.11103(17)
C5 C 0.6540(8) 0.5854(9) 0.99159(16)
H1 H 0.7577 0.6442 0.9855
C8 C 0.7640(8) 0.5799(10) 1.05315(16)
H3 H 0.8519 0.6580 1.0463
C11 C 1.0857(9) 0.5999(10) 1.10010(18)
H6 H 1.1149 0.5883 1.0763
C13 C 0.7052(9) 0.5239(10) 1.16259(18)
H7 H 0.6147 0.4861 1.1478
C15 C 0.7737(8) 0.5157(10) 1.08567(16)
H8 H 0.6871 0.4374 1.0931
C16 C 1.1800(9) 0.6674(11) 1.1585(2)
H9 H 1.2685 0.7040 1.1739
C17 C 1.2173(9) 0.6553(11) 1.12321(19)
H10 H 1.3307 0.6841 1.1147
C20 C 0.4694(9) 0.4541(10) 1.03443(17)
H13 H 0.4459 0.4227 1.0577
C24 C 0.6692(10) 0.5393(11) 1.19781(19)
H16 H 0.5564 0.5102 1.2066
C25 C 0.9604(10) 0.6395(11) 1.20825(18)
H17 H 1.0458 0.6796 1.2239
C28 C 0.7987(10) 0.5977(11) 1.22044(19)
H20 H 0.7729 0.6079 1.2444
C1A C 0.3742(8) 0.4610(9) 0.97348(15)
C2A C 0.1277(7) 0.4372(9) 0.85188(17)
C3A C -0.0071(9) 0.3755(10) 0.82826(18)
C4A C 0.0837(8) 0.4377(9) 0.88897(17)
C5A C 0.3460(8) 0.4146(9) 1.00841(16)
H1A H 0.2423 0.3558 1.0145
C8A C 0.2360(8) 0.4201(10) 0.94685(16)
H3A H 0.1481 0.3420 0.9537
C11A C -0.0857(9) 0.4001(10) 0.89990(18)
H6A H -0.1149 0.4117 0.9237
C13A C 0.2948(9) 0.4761(10) 0.83741(18)
H7A H 0.3853 0.5139 0.8522
C15A C 0.2263(8) 0.4843(10) 0.91433(16)
H8A H 0.3129 0.5626 0.9069
C16A C -0.1800(9) 0.3326(11) 0.8415(2)
H9A H -0.2685 0.2960 0.8261
C17A C -0.2173(9) 0.3447(11) 0.87679(19)
H10A H -0.3307 0.3159 0.8853
C20A C 0.5306(9) 0.5459(10) 0.96557(17)
H13A H 0.5541 0.5773 0.9423
C24A C 0.3308(10) 0.4607(11) 0.80219(19)
H16A H 0.4436 0.4898 0.7934
C25A C 0.0396(10) 0.3605(11) 0.79175(18)
H17A H -0.0458 0.3204 0.7761
C28A C 0.2013(10) 0.4023(11) 0.77956(19)
H20A H 0.2271 0.3921 0.7556
C6 C 0.3792(8) 0.1029(9) 0.14619(17)
C7 C 0.2767(9) -0.0067(10) 0.05404(16)
H2 H 0.3794 -0.0866 0.0502
C9 C 0.2731(8) 0.0920(10) 0.08307(17)
H4 H 0.1726 0.1746 0.0870
C10 C 0.2012(9) 0.1564(10) 0.15918(17)
H5 H 0.1060 0.1793 0.1433
C12 C 0.1306(8) -0.0005(10) 0.02703(17)
C14 C 0.4211(9) 0.0774(9) 0.10956(17)
C18 C 0.1659(9) -0.0990(10) -0.00353(16)
H11 H 0.2776 -0.1664 -0.0063
C19 C -0.0357(9) 0.0978(10) 0.03001(17)
H12 H -0.0617 0.1654 0.0503
C21 C 0.5203(9) 0.0736(10) 0.17106(18)
C22 C 0.5992(9) 0.0328(10) 0.09962(19)
H14 H 0.6273 0.0206 0.0758
C23 C 0.7022(9) 0.0219(10) 0.1594(2)
H15 H 0.7948 -0.0005 0.1759
C26 C 0.1663(11) 0.1749(11) 0.19391(17)
H18 H 0.0482 0.2093 0.2016
C27 C 0.7413(10) 0.0050(11) 0.1249(2)
H19 H 0.8610 -0.0247 0.1175
C29 C 0.3063(12) 0.1427(12) 0.2182(2)
H21 H 0.2813 0.1579 0.2421
C30 C 0.4785(11) 0.0893(12) 0.20770(19)
H22 H 0.5697 0.0630 0.2243
C6A C -0.3792(8) -0.1029(9) -0.14619(17)
C7A C -0.2767(9) 0.0067(10) -0.05404(16)
H2A H -0.3794 0.0866 -0.0502
C9A C -0.2731(8) -0.0920(10) -0.08307(17)
H4A H -0.1726 -0.1746 -0.0870
C10A C -0.2012(9) -0.1564(10) -0.15918(17)
H5A H -0.1060 -0.1793 -0.1433
C12A C -0.1306(8) 0.0005(10) -0.02703(17)
C14A C -0.4211(9) -0.0774(9) -0.10956(17)
C18A C -0.1659(9) 0.0990(10) 0.00353(16)
H11A H -0.2776 0.1664 0.0063
C19A C 0.0357(9) -0.0978(10) -0.03001(17)
H12A H 0.0617 -0.1654 -0.0503
C21A C -0.5203(9) -0.0736(10) -0.17106(18)
C22A C -0.5992(9) -0.0328(10) -0.09962(19)
H14A H -0.6273 -0.0206 -0.0758
C23A C -0.7022(9) -0.0219(10) -0.1594(2)
H15A H -0.7948 0.0005 -0.1759
C26A C -0.1663(11) -0.1749(11) -0.19391(17)
H18A H -0.0482 -0.2093 -0.2016
C27A C -0.7413(10) -0.0050(11) -0.1249(2)
H19A H -0.8610 0.0247 -0.1175
C29A C -0.3063(12) -0.1427(12) -0.2182(2)
H21A H -0.2813 -0.1579 -0.2421
C30A C -0.4785(11) -0.0893(12) -0.20770(19)
H22A H -0.5697 -0.0630 -0.2243
C6 C 0.3792(8) 0.1029(9) 1.14619(17)
C7 C 0.2767(9) -0.0067(10) 1.05404(16)
H2 H 0.3794 -0.0866 1.0502
C9 C 0.2731(8) 0.0920(10) 1.08307(17)
H4 H 0.1726 0.1746 1.0870
C10 C 0.2012(9) 0.1564(10) 1.15918(17)
H5 H 0.1060 0.1793 1.1433
C12 C 0.1306(8) -0.0005(10) 1.02703(17)
C14 C 0.4211(9) 0.0774(9) 1.10956(17)
C18 C 0.1659(9) -0.0990(10) 0.99647(16)
H11 H 0.2776 -0.1664 0.9937
C19 C -0.0357(9) 0.0978(10) 1.03001(17)
H12 H -0.0617 0.1654 1.0503
C21 C 0.5203(9) 0.0736(10) 1.17106(18)
C22 C 0.5992(9) 0.0328(10) 1.09962(19)
H14 H 0.6273 0.0206 1.0758
C23 C 0.7022(9) 0.0219(10) 1.1594(2)
H15 H 0.7948 -0.0005 1.1759
C26 C 0.1663(11) 0.1749(11) 1.19391(17)
H18 H 0.0482 0.2093 1.2016
C27 C 0.7413(10) 0.0050(11) 1.1249(2)
H19 H 0.8610 -0.0247 1.1175
C29 C 0.3063(12) 0.1427(12) 1.2182(2)
H21 H 0.2813 0.1579 1.2421
C30 C 0.4785(11) 0.0893(12) 1.20770(19)
H22 H 0.5697 0.0630 1.2243
C6A C -0.3792(8) -0.1029(9) 0.85381(17)
C7A C -0.2767(9) 0.0067(10) 0.94596(16)
H2A H -0.3794 0.0866 0.9498
C9A C -0.2731(8) -0.0920(10) 0.91693(17)
H4A H -0.1726 -0.1746 0.9130
C10A C -0.2012(9) -0.1564(10) 0.84082(17)
H5A H -0.1060 -0.1793 0.8567
C12A C -0.1306(8) 0.0005(10) 0.97297(17)
C14A C -0.4211(9) -0.0774(9) 0.89044(17)
C18A C -0.1659(9) 0.0990(10) 1.00353(16)
H11A H -0.2776 0.1664 1.0063
C19A C 0.0357(9) -0.0978(10) 0.96999(17)
H12A H 0.0617 -0.1654 0.9497
C21A C -0.5203(9) -0.0736(10) 0.82894(18)
C22A C -0.5992(9) -0.0328(10) 0.90038(19)
H14A H -0.6273 -0.0206 0.9242
C23A C -0.7022(9) -0.0219(10) 0.8406(2)
H15A H -0.7948 0.0005 0.8241
C26A C -0.1663(11) -0.1749(11) 0.80609(17)
H18A H -0.0482 -0.2093 0.7984
C27A C -0.7413(10) -0.0050(11) 0.8751(2)
H19A H -0.8610 0.0247 0.8825
C29A C -0.3063(12) -0.1427(12) 0.7818(2)
H21A H -0.2813 -0.1579 0.7579
C30A C -0.4785(11) -0.0893(12) 0.79230(19)
H22A H -0.5697 -0.0630 0.7757
C6 C 0.3792(8) 1.1029(9) 0.14619(17)
C7 C 0.2767(9) 0.9933(10) 0.05404(16)
H2 H 0.3794 0.9134 0.0502
C9 C 0.2731(8) 1.0920(10) 0.08307(17)
H4 H 0.1726 1.1746 0.0870
C10 C 0.2012(9) 1.1564(10) 0.15918(17)
H5 H 0.1060 1.1793 0.1433
C12 C 0.1306(8) 0.9995(10) 0.02703(17)
C14 C 0.4211(9) 1.0774(9) 0.10956(17)
C18 C 0.1659(9) 0.9010(10) -0.00353(16)
H11 H 0.2776 0.8336 -0.0063
C19 C -0.0357(9) 1.0978(10) 0.03001(17)
H12 H -0.0617 1.1654 0.0503
C21 C 0.5203(9) 1.0736(10) 0.17106(18)
C22 C 0.5992(9) 1.0328(10) 0.09962(19)
H14 H 0.6273 1.0206 0.0758
C23 C 0.7022(9) 1.0219(10) 0.1594(2)
H15 H 0.7948 0.9995 0.1759
C26 C 0.1663(11) 1.1749(11) 0.19391(17)
H18 H 0.0482 1.2093 0.2016
C27 C 0.7413(10) 1.0050(11) 0.1249(2)
H19 H 0.8610 0.9753 0.1175
C29 C 0.3063(12) 1.1427(12) 0.2182(2)
H21 H 0.2813 1.1579 0.2421
C30 C 0.4785(11) 1.0893(12) 0.20770(19)
H22 H 0.5697 1.0630 0.2243
C6A C -0.3792(8) 0.8971(9) -0.14619(17)
C7A C -0.2767(9) 1.0067(10) -0.05404(16)
H2A H -0.3794 1.0866 -0.0502
C9A C -0.2731(8) 0.9080(10) -0.08307(17)
H4A H -0.1726 0.8254 -0.0870
C10A C -0.2012(9) 0.8436(10) -0.15918(17)
H5A H -0.1060 0.8207 -0.1433
C12A C -0.1306(8) 1.0005(10) -0.02703(17)
C14A C -0.4211(9) 0.9226(9) -0.10956(17)
C18A C -0.1659(9) 1.0990(10) 0.00353(16)
H11A H -0.2776 1.1664 0.0063
C19A C 0.0357(9) 0.9022(10) -0.03001(17)
H12A H 0.0617 0.8346 -0.0503
C21A C -0.5203(9) 0.9264(10) -0.17106(18)
C22A C -0.5992(9) 0.9672(10) -0.09962(19)
H14A H -0.6273 0.9794 -0.0758
C23A C -0.7022(9) 0.9781(10) -0.1594(2)
H15A H -0.7948 1.0005 -0.1759
C26A C -0.1663(11) 0.8251(11) -0.19391(17)
H18A H -0.0482 0.7907 -0.2016
C27A C -0.7413(10) 0.9950(11) -0.1249(2)
H19A H -0.8610 1.0247 -0.1175
C29A C -0.3063(12) 0.8573(12) -0.2182(2)
H21A H -0.2813 0.8421 -0.2421
C30A C -0.4785(11) 0.9107(12) -0.20770(19)
H22A H -0.5697 0.9370 -0.2243
C6 C 0.3792(8) 1.1029(9) 1.14619(17)
C7 C 0.2767(9) 0.9933(10) 1.05404(16)
H2 H 0.3794 0.9134 1.0502
C9 C 0.2731(8) 1.0920(10) 1.08307(17)
H4 H 0.1726 1.1746 1.0870
C10 C 0.2012(9) 1.1564(10) 1.15918(17)
H5 H 0.1060 1.1793 1.1433
C12 C 0.1306(8) 0.9995(10) 1.02703(17)
C14 C 0.4211(9) 1.0774(9) 1.10956(17)
C18 C 0.1659(9) 0.9010(10) 0.99647(16)
H11 H 0.2776 0.8336 0.9937
C19 C -0.0357(9) 1.0978(10) 1.03001(17)
H12 H -0.0617 1.1654 1.0503
C21 C 0.5203(9) 1.0736(10) 1.17106(18)
C22 C 0.5992(9) 1.0328(10) 1.09962(19)
H14 H 0.6273 1.0206 1.0758
C23 C 0.7022(9) 1.0219(10) 1.1594(2)
H15 H 0.7948 0.9995 1.1759
C26 C 0.1663(11) 1.1749(11) 1.19391(17)
H18 H 0.0482 1.2093 1.2016
C27 C 0.7413(10) 1.0050(11) 1.1249(2)
H19 H 0.8610 0.9753 1.1175
C29 C 0.3063(12) 1.1427(12) 1.2182(2)
H21 H 0.2813 1.1579 1.2421
C30 C 0.4785(11) 1.0893(12) 1.20770(19)
H22 H 0.5697 1.0630 1.2243
C6A C -0.3792(8) 0.8971(9) 0.85381(17)
C7A C -0.2767(9) 1.0067(10) 0.94596(16)
H2A H -0.3794 1.0866 0.9498
C9A C -0.2731(8) 0.9080(10) 0.91693(17)
H4A H -0.1726 0.8254 0.9130
C10A C -0.2012(9) 0.8436(10) 0.84082(17)
H5A H -0.1060 0.8207 0.8567
C12A C -0.1306(8) 1.0005(10) 0.97297(17)
C14A C -0.4211(9) 0.9226(9) 0.89044(17)
C18A C -0.1659(9) 1.0990(10) 1.00353(16)
H11A H -0.2776 1.1664 1.0063
C19A C 0.0357(9) 0.9022(10) 0.96999(17)
H12A H 0.0617 0.8346 0.9497
C21A C -0.5203(9) 0.9264(10) 0.82894(18)
C22A C -0.5992(9) 0.9672(10) 0.90038(19)
H14A H -0.6273 0.9794 0.9242
C23A C -0.7022(9) 0.9781(10) 0.8406(2)
H15A H -0.7948 1.0005 0.8241
C26A C -0.1663(11) 0.8251(11) 0.80609(17)
H18A H -0.0482 0.7907 0.7984
C27A C -0.7413(10) 0.9950(11) 0.8751(2)
H19A H -0.8610 1.0247 0.8825
C29A C -0.3063(12) 0.8573(12) 0.7818(2)
H21A H -0.2813 0.8421 0.7579
C30A C -0.4785(11) 0.9107(12) 0.79230(19)
H22A H -0.5697 0.9370 0.7757
C6 C 1.3792(8) 0.1029(9) 0.14619(17)
C7 C 1.2767(9) -0.0067(10) 0.05404(16)
H2 H 1.3794 -0.0866 0.0502
C9 C 1.2731(8) 0.0920(10) 0.08307(17)
H4 H 1.1726 0.1746 0.0870
C10 C 1.2012(9) 0.1564(10) 0.15918(17)
H5 H 1.1060 0.1793 0.1433
C12 C 1.1306(8) -0.0005(10) 0.02703(17)
C14 C 1.4211(9) 0.0774(9) 0.10956(17)
C18 C 1.1659(9) -0.0990(10) -0.00353(16)
H11 H 1.2776 -0.1664 -0.0063
C19 C 0.9643(9) 0.0978(10) 0.03001(17)
H12 H 0.9383 0.1654 0.0503
C21 C 1.5203(9) 0.0736(10) 0.17106(18)
C22 C 1.5992(9) 0.0328(10) 0.09962(19)
H14 H 1.6273 0.0206 0.0758
C23 C 1.7022(9) 0.0219(10) 0.1594(2)
H15 H 1.7948 -0.0005 0.1759
C26 C 1.1663(11) 0.1749(11) 0.19391(17)
H18 H 1.0482 0.2093 0.2016
C27 C 1.7413(10) 0.0050(11) 0.1249(2)
H19 H 1.8610 -0.0247 0.1175
C29 C 1.3063(12) 0.1427(12) 0.2182(2)
H21 H 1.2813 0.1579 0.2421
C30 C 1.4785(11) 0.0893(12) 0.20770(19)
H22 H 1.5697 0.0630 0.2243
C6A C 0.6208(8) -0.1029(9) -0.14619(17)
C7A C 0.7233(9) 0.0067(10) -0.05404(16)
H2A H 0.6206 0.0866 -0.0502
C9A C 0.7269(8) -0.0920(10) -0.08307(17)
H4A H 0.8274 -0.1746 -0.0870
C10A C 0.7988(9) -0.1564(10) -0.15918(17)
H5A H 0.8940 -0.1793 -0.1433
C12A C 0.8694(8) 0.0005(10) -0.02703(17)
C14A C 0.5789(9) -0.0774(9) -0.10956(17)
C18A C 0.8341(9) 0.0990(10) 0.00353(16)
H11A H 0.7224 0.1664 0.0063
C19A C 1.0357(9) -0.0978(10) -0.03001(17)
H12A H 1.0617 -0.1654 -0.0503
C21A C 0.4797(9) -0.0736(10) -0.17106(18)
C22A C 0.4008(9) -0.0328(10) -0.09962(19)
H14A H 0.3727 -0.0206 -0.0758
C23A C 0.2978(9) -0.0219(10) -0.1594(2)
H15A H 0.2052 0.0005 -0.1759
C26A C 0.8337(11) -0.1749(11) -0.19391(17)
H18A H 0.9518 -0.2093 -0.2016
C27A C 0.2587(10) -0.0050(11) -0.1249(2)
H19A H 0.1390 0.0247 -0.1175
C29A C 0.6937(12) -0.1427(12) -0.2182(2)
H21A H 0.7187 -0.1579 -0.2421
C30A C 0.5215(11) -0.0893(12) -0.20770(19)
H22A H 0.4303 -0.0630 -0.2243
C6 C 1.3792(8) 0.1029(9) 1.14619(17)
C7 C 1.2767(9) -0.0067(10) 1.05404(16)
H2 H 1.3794 -0.0866 1.0502
C9 C 1.2731(8) 0.0920(10) 1.08307(17)
H4 H 1.1726 0.1746 1.0870
C10 C 1.2012(9) 0.1564(10) 1.15918(17)
H5 H 1.1060 0.1793 1.1433
C12 C 1.1306(8) -0.0005(10) 1.02703(17)
C14 C 1.4211(9) 0.0774(9) 1.10956(17)
C18 C 1.1659(9) -0.0990(10) 0.99647(16)
H11 H 1.2776 -0.1664 0.9937
C19 C 0.9643(9) 0.0978(10) 1.03001(17)
H12 H 0.9383 0.1654 1.0503
C21 C 1.5203(9) 0.0736(10) 1.17106(18)
C22 C 1.5992(9) 0.0328(10) 1.09962(19)
H14 H 1.6273 0.0206 1.0758
C23 C 1.7022(9) 0.0219(10) 1.1594(2)
H15 H 1.7948 -0.0005 1.1759
C26 C 1.1663(11) 0.1749(11) 1.19391(17)
H18 H 1.0482 0.2093 1.2016
C27 C 1.7413(10) 0.0050(11) 1.1249(2)
H19 H 1.8610 -0.0247 1.1175
C29 C 1.3063(12) 0.1427(12) 1.2182(2)
H21 H 1.2813 0.1579 1.2421
C30 C 1.4785(11) 0.0893(12) 1.20770(19)
H22 H 1.5697 0.0630 1.2243
C6A C 0.6208(8) -0.1029(9) 0.85381(17)
C7A C 0.7233(9) 0.0067(10) 0.94596(16)
H2A H 0.6206 0.0866 0.9498
C9A C 0.7269(8) -0.0920(10) 0.91693(17)
H4A H 0.8274 -0.1746 0.9130
C10A C 0.7988(9) -0.1564(10) 0.84082(17)
H5A H 0.8940 -0.1793 0.8567
C12A C 0.8694(8) 0.0005(10) 0.97297(17)
C14A C 0.5789(9) -0.0774(9) 0.89044(17)
C18A C 0.8341(9) 0.0990(10) 1.00353(16)
H11A H 0.7224 0.1664 1.0063
C19A C 1.0357(9) -0.0978(10) 0.96999(17)
H12A H 1.0617 -0.1654 0.9497
C21A C 0.4797(9) -0.0736(10) 0.82894(18)
C22A C 0.4008(9) -0.0328(10) 0.90038(19)
H14A H 0.3727 -0.0206 0.9242
C23A C 0.2978(9) -0.0219(10) 0.8406(2)
H15A H 0.2052 0.0005 0.8241
C26A C 0.8337(11) -0.1749(11) 0.80609(17)
H18A H 0.9518 -0.2093 0.7984
C27A C 0.2587(10) -0.0050(11) 0.8751(2)
H19A H 0.1390 0.0247 0.8825
C29A C 0.6937(12) -0.1427(12) 0.7818(2)
H21A H 0.7187 -0.1579 0.7579
C30A C 0.5215(11) -0.0893(12) 0.79230(19)
H22A H 0.4303 -0.0630 0.7757
C6 C 1.3792(8) 1.1029(9) 0.14619(17)
C7 C 1.2767(9) 0.9933(10) 0.05404(16)
H2 H 1.3794 0.9134 0.0502
C9 C 1.2731(8) 1.0920(10) 0.08307(17)
H4 H 1.1726 1.1746 0.0870
C10 C 1.2012(9) 1.1564(10) 0.15918(17)
H5 H 1.1060 1.1793 0.1433
C12 C 1.1306(8) 0.9995(10) 0.02703(17)
C14 C 1.4211(9) 1.0774(9) 0.10956(17)
C18 C 1.1659(9) 0.9010(10) -0.00353(16)
H11 H 1.2776 0.8336 -0.0063
C19 C 0.9643(9) 1.0978(10) 0.03001(17)
H12 H 0.9383 1.1654 0.0503
C21 C 1.5203(9) 1.0736(10) 0.17106(18)
C22 C 1.5992(9) 1.0328(10) 0.09962(19)
H14 H 1.6273 1.0206 0.0758
C23 C 1.7022(9) 1.0219(10) 0.1594(2)
H15 H 1.7948 0.9995 0.1759
C26 C 1.1663(11) 1.1749(11) 0.19391(17)
H18 H 1.0482 1.2093 0.2016
C27 C 1.7413(10) 1.0050(11) 0.1249(2)
H19 H 1.8610 0.9753 0.1175
C29 C 1.3063(12) 1.1427(12) 0.2182(2)
H21 H 1.2813 1.1579 0.2421
C30 C 1.4785(11) 1.0893(12) 0.20770(19)
H22 H 1.5697 1.0630 0.2243
C6A C 0.6208(8) 0.8971(9) -0.14619(17)
C7A C 0.7233(9) 1.0067(10) -0.05404(16)
H2A H 0.6206 1.0866 -0.0502
C9A C 0.7269(8) 0.9080(10) -0.08307(17)
H4A H 0.8274 0.8254 -0.0870
C10A C 0.7988(9) 0.8436(10) -0.15918(17)
H5A H 0.8940 0.8207 -0.1433
C12A C 0.8694(8) 1.0005(10) -0.02703(17)
C14A C 0.5789(9) 0.9226(9) -0.10956(17)
C18A C 0.8341(9) 1.0990(10) 0.00353(16)
H11A H 0.7224 1.1664 0.0063
C19A C 1.0357(9) 0.9022(10) -0.03001(17)
H12A H 1.0617 0.8346 -0.0503
C21A C 0.4797(9) 0.9264(10) -0.17106(18)
C22A C 0.4008(9) 0.9672(10) -0.09962(19)
H14A H 0.3727 0.9794 -0.0758
C23A C 0.2978(9) 0.9781(10) -0.1594(2)
H15A H 0.2052 1.0005 -0.1759
C26A C 0.8337(11) 0.8251(11) -0.19391(17)
H18A H 0.9518 0.7907 -0.2016
C27A C 0.2587(10) 0.9950(11) -0.1249(2)
H19A H 0.1390 1.0247 -0.1175
C29A C 0.6937(12) 0.8573(12) -0.2182(2)
H21A H 0.7187 0.8421 -0.2421
C30A C 0.5215(11) 0.9107(12) -0.20770(19)
H22A H 0.4303 0.9370 -0.2243
C6 C 1.3792(8) 1.1029(9) 1.14619(17)
C7 C 1.2767(9) 0.9933(10) 1.05404(16)
H2 H 1.3794 0.9134 1.0502
C9 C 1.2731(8) 1.0920(10) 1.08307(17)
H4 H 1.1726 1.1746 1.0870
C10 C 1.2012(9) 1.1564(10) 1.15918(17)
H5 H 1.1060 1.1793 1.1433
C12 C 1.1306(8) 0.9995(10) 1.02703(17)
C14 C 1.4211(9) 1.0774(9) 1.10956(17)
C18 C 1.1659(9) 0.9010(10) 0.99647(16)
H11 H 1.2776 0.8336 0.9937
C19 C 0.9643(9) 1.0978(10) 1.03001(17)
H12 H 0.9383 1.1654 1.0503
C21 C 1.5203(9) 1.0736(10) 1.17106(18)
C22 C 1.5992(9) 1.0328(10) 1.09962(19)
H14 H 1.6273 1.0206 1.0758
C23 C 1.7022(9) 1.0219(10) 1.1594(2)
H15 H 1.7948 0.9995 1.1759
C26 C 1.1663(11) 1.1749(11) 1.19391(17)
H18 H 1.0482 1.2093 1.2016
C27 C 1.7413(10) 1.0050(11) 1.1249(2)
H19 H 1.8610 0.9753 1.1175
C29 C 1.3063(12) 1.1427(12) 1.2182(2)
H21 H 1.2813 1.1579 1.2421
C30 C 1.4785(11) 1.0893(12) 1.20770(19)
H22 H 1.5697 1.0630 1.2243
C6A C 0.6208(8) 0.8971(9) 0.85381(17)
C7A C 0.7233(9) 1.0067(10) 0.94596(16)
H2A H 0.6206 1.0866 0.9498
C9A C 0.7269(8) 0.9080(10) 0.91693(17)
H4A H 0.8274 0.8254 0.9130
C10A C 0.7988(9) 0.8436(10) 0.84082(17)
H5A H 0.8940 0.8207 0.8567
C12A C 0.8694(8) 1.0005(10) 0.97297(17)
C14A C 0.5789(9) 0.9226(9) 0.89044(17)
C18A C 0.8341(9) 1.0990(10) 1.00353(16)
H11A H 0.7224 1.1664 1.0063
C19A C 1.0357(9) 0.9022(10) 0.96999(17)
H12A H 1.0617 0.8346 0.9497
C21A C 0.4797(9) 0.9264(10) 0.82894(18)
C22A C 0.4008(9) 0.9672(10) 0.90038(19)
H14A H 0.3727 0.9794 0.9242
C23A C 0.2978(9) 0.9781(10) 0.8406(2)
H15A H 0.2052 1.0005 0.8241
C26A C 0.8337(11) 0.8251(11) 0.80609(17)
H18A H 0.9518 0.7907 0.7984
C27A C 0.2587(10) 0.9950(11) 0.8751(2)
H19A H 0.1390 1.0247 0.8825
C29A C 0.6937(12) 0.8573(12) 0.7818(2)
H21A H 0.7187 0.8421 0.7579
C30A C 0.5215(11) 0.9107(12) 0.79230(19)
H22A H 0.4303 0.9370 0.7757
C31 C -0.0409(8) 0.3731(10) 0.47313(16)
C32 C -0.0577(7) 0.0768(10) 0.38948(17)
C33 C -0.0780(8) 0.2367(10) 0.44749(16)
H23 H -0.1552 0.1491 0.4549
C34 C -0.1227(8) -0.0241(12) 0.33001(19)
C35 C -0.0640(7) 0.1146(10) 0.35274(18)
C36 C -0.0153(8) 0.2200(10) 0.41434(16)
H24 H 0.0618 0.3067 0.4064
C37 C -0.0245(8) 0.2815(11) 0.33780(17)
H25 H 0.0132 0.3724 0.3525
C38 C -0.1496(9) -0.2300(11) 0.3783(2)
H26 H -0.1769 -0.3436 0.3870
C39 C -0.0391(9) 0.3164(12) 0.30280(19)
H27 H -0.0073 0.4274 0.2936
C40 C -0.0859(8) 0.3496(10) 0.50847(16)
H28 H -0.1430 0.2454 0.5149
C41 C -0.1596(8) -0.1907(12) 0.34369(19)
H29 H -0.1930 -0.2806 0.3284
C42 C 0.0510(8) 0.5298(10) 0.46596(18)
H30 H 0.0892 0.5517 0.4431
C43 C -0.0962(8) -0.0920(10) 0.40110(18)
H31 H -0.0869 -0.1176 0.4251
C44 C -0.1416(9) 0.0212(13) 0.29349(18)
H32 H -0.1825 -0.0655 0.2782
C45 C -0.1031(10) 0.1819(13) 0.28054(19)
H33 H -0.1184 0.2063 0.2566
C31A C 0.0409(8) 0.6269(10) 0.52687(16)
C32A C 0.0577(7) 0.9232(10) 0.61052(17)
C33A C 0.0780(8) 0.7633(10) 0.55251(16)
H23A H 0.1552 0.8509 0.5451
C34A C 0.1227(8) 1.0241(12) 0.66999(19)
C35A C 0.0640(7) 0.8854(10) 0.64726(18)
C36A C 0.0153(8) 0.7800(10) 0.58566(16)
H24A H -0.0618 0.6933 0.5936
C37A C 0.0245(8) 0.7185(11) 0.66220(17)
H25A H -0.0132 0.6276 0.6475
C38A C 0.1496(9) 1.2300(11) 0.6217(2)
H26A H 0.1769 1.3436 0.6130
C39A C 0.0391(9) 0.6836(12) 0.69720(19)
H27A H 0.0073 0.5726 0.7064
C40A C 0.0859(8) 0.6504(10) 0.49153(16)
H28A H 0.1430 0.7546 0.4851
C41A C 0.1596(8) 1.1907(12) 0.65631(19)
H29A H 0.1930 1.2806 0.6716
C42A C -0.0510(8) 0.4702(10) 0.53404(18)
H30A H -0.0892 0.4483 0.5569
C43A C 0.0962(8) 1.0920(10) 0.59890(18)
H31A H 0.0869 1.1176 0.5749
C44A C 0.1416(9) 0.9788(13) 0.70651(18)
H32A H 0.1825 1.0655 0.7218
C45A C 0.1031(10) 0.8181(13) 0.71946(19)
H33A H 0.1184 0.7937 0.7434
C31 C 0.9591(8) 0.3731(10) 0.47313(16)
C32 C 0.9423(7) 0.0768(10) 0.38948(17)
C33 C 0.9220(8) 0.2367(10) 0.44749(16)
H23 H 0.8448 0.1491 0.4549
C34 C 0.8773(8) -0.0241(12) 0.33001(19)
C35 C 0.9360(7) 0.1146(10) 0.35274(18)
C36 C 0.9847(8) 0.2200(10) 0.41434(16)
H24 H 1.0618 0.3067 0.4064
C37 C 0.9755(8) 0.2815(11) 0.33780(17)
H25 H 1.0132 0.3724 0.3525
C38 C 0.8504(9) -0.2300(11) 0.3783(2)
H26 H 0.8231 -0.3436 0.3870
C39 C 0.9609(9) 0.3164(12) 0.30280(19)
H27 H 0.9927 0.4274 0.2936
C40 C 0.9141(8) 0.3496(10) 0.50847(16)
H28 H 0.8570 0.2454 0.5149
C41 C 0.8404(8) -0.1907(12) 0.34369(19)
H29 H 0.8070 -0.2806 0.3284
C42 C 1.0510(8) 0.5298(10) 0.46596(18)
H30 H 1.0892 0.5517 0.4431
C43 C 0.9038(8) -0.0920(10) 0.40110(18)
H31 H 0.9131 -0.1176 0.4251
C44 C 0.8584(9) 0.0212(13) 0.29349(18)
H32 H 0.8175 -0.0655 0.2782
C45 C 0.8969(10) 0.1819(13) 0.28054(19)
H33 H 0.8816 0.2063 0.2566
C31A C 1.0409(8) 0.6269(10) 0.52687(16)
C32A C 1.0577(7) 0.9232(10) 0.61052(17)
C33A C 1.0780(8) 0.7633(10) 0.55251(16)
H23A H 1.1552 0.8509 0.5451
C34A C 1.1227(8) 1.0241(12) 0.66999(19)
C35A C 1.0640(7) 0.8854(10) 0.64726(18)
C36A C 1.0153(8) 0.7800(10) 0.58566(16)
H24A H 0.9382 0.6933 0.5936
C37A C 1.0245(8) 0.7185(11) 0.66220(17)
H25A H 0.9868 0.6276 0.6475
C38A C 1.1496(9) 1.2300(11) 0.6217(2)
H26A H 1.1769 1.3436 0.6130
C39A C 1.0391(9) 0.6836(12) 0.69720(19)
H27A H 1.0073 0.5726 0.7064
C40A C 1.0859(8) 0.6504(10) 0.49153(16)
H28A H 1.1430 0.7546 0.4851
C41A C 1.1596(8) 1.1907(12) 0.65631(19)
H29A H 1.1930 1.2806 0.6716
C42A C 0.9490(8) 0.4702(10) 0.53404(18)
H30A H 0.9108 0.4483 0.5569
C43A C 1.0962(8) 1.0920(10) 0.59890(18)
H31A H 1.0869 1.1176 0.5749
C44A C 1.1416(9) 0.9788(13) 0.70651(18)
H32A H 1.1825 1.0655 0.7218
C45A C 1.1031(10) 0.8181(13) 0.71946(19)
H33A H 1.1184 0.7937 0.7434
C46 C 0.5006(8) -0.1279(10) 0.47268(16)
C47 C 0.4207(8) -0.4187(11) 0.38946(18)
C48 C 0.4290(8) -0.5198(12) 0.3283(2)
C49 C 0.3995(7) -0.3784(10) 0.35333(18)
C50 C 0.5069(8) -0.2713(10) 0.44577(17)
H34 H 0.5880 -0.3730 0.4498
C51 C 0.3486(9) -0.2031(12) 0.34053(17)
H35 H 0.3246 -0.1082 0.3564
C52 C 0.4008(9) 0.0401(10) 0.46969(19)
H36 H 0.3337 0.0681 0.4494
C53 C 0.4072(8) -0.2716(10) 0.41572(17)
H37 H 0.3244 -0.1716 0.4114
C54 C 0.4672(8) -0.5983(11) 0.3994(2)
H38 H 0.4804 -0.6261 0.4233
C55 C 0.4800(9) -0.6976(13) 0.3406(2)
H39 H 0.5043 -0.7906 0.3243
C56 C 0.5997(8) -0.1666(10) 0.50336(19)
H40 H 0.6671 -0.2785 0.5058
C57 C 0.4193(11) -0.4803(14) 0.2925(2)
H41 H 0.4455 -0.5731 0.2763
C58 C 0.4947(9) -0.7373(12) 0.3752(2)
H42 H 0.5230 -0.8570 0.3827
C59 C 0.3331(10) -0.1673(12) 0.30502(19)
H43 H 0.2966 -0.0498 0.2972
C60 C 0.3718(11) -0.3064(14) 0.2807(2)
H44 H 0.3653 -0.2814 0.2567
C46A C 0.4994(8) 0.1279(10) 0.52732(16)
C47A C 0.5793(8) 0.4187(11) 0.61054(18)
C48A C 0.5710(8) 0.5198(12) 0.6717(2)
C49A C 0.6005(7) 0.3784(10) 0.64667(18)
C50A C 0.4931(8) 0.2713(10) 0.55423(17)
H34A H 0.4120 0.3730 0.5502
C51A C 0.6514(9) 0.2031(12) 0.65947(17)
H35A H 0.6754 0.1082 0.6436
C52A C 0.5992(9) -0.0401(10) 0.53031(19)
H36A H 0.6663 -0.0681 0.5506
C53A C 0.5928(8) 0.2716(10) 0.58428(17)
H37A H 0.6756 0.1716 0.5886
C54A C 0.5328(8) 0.5983(11) 0.6006(2)
H38A H 0.5196 0.6261 0.5767
C55A C 0.5200(9) 0.6976(13) 0.6594(2)
H39A H 0.4957 0.7906 0.6757
C56A C 0.4003(8) 0.1666(10) 0.49664(19)
H40A H 0.3329 0.2785 0.4942
C57A C 0.5807(11) 0.4803(14) 0.7075(2)
H41A H 0.5545 0.5731 0.7237
C58A C 0.5053(9) 0.7373(12) 0.6248(2)
H42A H 0.4770 0.8570 0.6173
C59A C 0.6669(10) 0.1673(12) 0.69498(19)
H43A H 0.7034 0.0498 0.7028
C60A C 0.6282(11) 0.3064(14) 0.7193(2)
H44A H 0.6347 0.2814 0.7433
C46 C 0.5006(8) 0.8721(10) 0.47268(16)
C47 C 0.4207(8) 0.5813(11) 0.38946(18)
C48 C 0.4290(8) 0.4802(12) 0.3283(2)
C49 C 0.3995(7) 0.6216(10) 0.35333(18)
C50 C 0.5069(8) 0.7287(10) 0.44577(17)
H34 H 0.5880 0.6270 0.4498
C51 C 0.3486(9) 0.7969(12) 0.34053(17)
H35 H 0.3246 0.8918 0.3564
C52 C 0.4008(9) 1.0401(10) 0.46969(19)
H36 H 0.3337 1.0681 0.4494
C53 C 0.4072(8) 0.7284(10) 0.41572(17)
H37 H 0.3244 0.8284 0.4114
C54 C 0.4672(8) 0.4017(11) 0.3994(2)
H38 H 0.4804 0.3739 0.4233
C55 C 0.4800(9) 0.3024(13) 0.3406(2)
H39 H 0.5043 0.2094 0.3243
C56 C 0.5997(8) 0.8334(10) 0.50336(19)
H40 H 0.6671 0.7215 0.5058
C57 C 0.4193(11) 0.5197(14) 0.2925(2)
H41 H 0.4455 0.4269 0.2763
C58 C 0.4947(9) 0.2627(12) 0.3752(2)
H42 H 0.5230 0.1430 0.3827
C59 C 0.3331(10) 0.8327(12) 0.30502(19)
H43 H 0.2966 0.9502 0.2972
C60 C 0.3718(11) 0.6936(14) 0.2807(2)
H44 H 0.3653 0.7186 0.2567
C46A C 0.4994(8) 1.1279(10) 0.52732(16)
C47A C 0.5793(8) 1.4187(11) 0.61054(18)
C48A C 0.5710(8) 1.5198(12) 0.6717(2)
C49A C 0.6005(7) 1.3784(10) 0.64667(18)
C50A C 0.4931(8) 1.2713(10) 0.55423(17)
H34A H 0.4120 1.3730 0.5502
C51A C 0.6514(9) 1.2031(12) 0.65947(17)
H35A H 0.6754 1.1082 0.6436
C52A C 0.5992(9) 0.9599(10) 0.53031(19)
H36A H 0.6663 0.9319 0.5506
C53A C 0.5928(8) 1.2716(10) 0.58428(17)
H37A H 0.6756 1.1716 0.5886
C54A C 0.5328(8) 1.5983(11) 0.6006(2)
H38A H 0.5196 1.6261 0.5767
C55A C 0.5200(9) 1.6976(13) 0.6594(2)
H39A H 0.4957 1.7906 0.6757
C56A C 0.4003(8) 1.1666(10) 0.49664(19)
H40A H 0.3329 1.2785 0.4942
C57A C 0.5807(11) 1.4803(14) 0.7075(2)
H41A H 0.5545 1.5731 0.7237
C58A C 0.5053(9) 1.7373(12) 0.6248(2)
H42A H 0.4770 1.8570 0.6173
C59A C 0.6669(10) 1.1673(12) 0.69498(19)
H43A H 0.7034 1.0498 0.7028
C60A C 0.6282(11) 1.3064(14) 0.7193(2)
H44A H 0.6347 1.2814 0.7433

#END
