./MARJAT_from_xyz.cif_generated_by_CrystalShift
_symmetry_cell_setting triclinic
_symmetry_space_group_name_H-M 'P 1'
loop_
_symmetry_equiv_pos_site_id
_symmetry_equiv_pos_as_xyz
1 x,y,z
_cell_length_a 7.052600
_cell_length_b 8.705200
_cell_length_c 37.845000
_cell_angle_alpha 90.000000
_cell_angle_beta 90.000000
_cell_angle_gamma 90.000000
_cell_volume 2323.467038
loop_
_atom_site_label
_atom_site_type_symbol
_atom_site_fract_x
_atom_site_fract_y
_atom_site_fract_z
O1 O 0.563100 0.664000 -0.143710
H2 H 0.534700 0.729300 -0.158400
N3 N 0.554000 0.925600 -0.010600
O4 O 0.578300 0.620700 0.126340
O5 O 0.760500 1.274100 0.168930
O6 O 0.604300 1.295000 0.104020
H7 H 0.697600 1.335700 0.112900
C8 C 0.556200 0.832600 0.016760
N9 N 0.563000 0.747700 0.073720
O10 O 0.657100 1.040000 0.178610
C11 C 0.559700 0.727300 -0.110900
C12 C 0.552300 0.887500 -0.106190
H13 H 0.547100 0.951800 -0.125800
C14 C 0.552600 0.948800 -0.073390
H15 H 0.551400 1.055100 -0.070900
C16 C 0.554700 0.855100 -0.042620
C17 C 0.556900 0.879300 0.053590
C18 C 0.554600 1.019500 0.069010
H19 H 0.550600 1.108700 0.055500
C20 C 0.558500 1.025500 0.106160
C21 C 0.540600 1.176100 0.125910
C22 C 0.331000 1.200900 0.137800
H23 H 0.255300 1.223200 0.117000
H24 H 0.284300 1.105500 0.147800
C25 C 0.299600 1.326100 0.164190
H26 H 0.353000 1.296400 0.186500
H27 H 0.166000 1.343700 0.166900
H28 H 0.359600 1.418600 0.156100
C29 C 0.561100 0.669400 0.015100
C30 C 0.562300 0.606700 0.052300
H31 H 0.450300 0.545200 0.056900
H32 H 0.674500 0.545200 0.056700
C33 C 0.570100 0.745100 0.110190
C34 C 0.567000 0.893900 0.125910
C35 C 0.664600 1.167400 0.159070
C36 C 0.571000 0.902100 0.165130
H37 H 0.442100 0.895600 0.173900
H38 H 0.640200 0.814100 0.174100
C39 C 0.566200 0.597800 -0.016730
C40 C 0.560000 0.692000 -0.047290
C41 C 0.563700 0.633600 -0.082290
H42 H 0.568900 0.527900 -0.085700
C43 C 0.585500 0.426100 -0.019750
H44 H 0.629300 0.405600 -0.043600
H45 H 0.688200 0.396900 -0.004100
C46 C 0.453900 0.334200 -0.014000
H47 H 0.498800 0.231000 -0.017200
H48 H 0.352000 0.353800 -0.030200
H49 H 0.409300 0.347000 0.009800
O50 O 0.063100 0.836000 1.143710
H51 H 0.034700 0.770700 1.158400
N52 N 0.054000 0.574400 1.010600
O53 O 0.078300 0.879300 0.873660
O54 O 0.260500 0.225900 0.831070
O55 O 0.104300 0.205000 0.895980
H56 H 0.197600 0.164300 0.887100
C57 C 0.056200 0.667400 0.983240
N58 N 0.063000 0.752300 0.926280
O59 O 0.157100 0.460000 0.821390
C60 C 0.059700 0.772700 1.110900
C61 C 0.052300 0.612500 1.106190
H62 H 0.047100 0.548200 1.125800
C63 C 0.052600 0.551200 1.073390
H64 H 0.051400 0.444900 1.070900
C65 C 0.054700 0.644900 1.042620
C66 C 0.056900 0.620700 0.946410
C67 C 0.054600 0.480500 0.930990
H68 H 0.050600 0.391300 0.944500
C69 C 0.058500 0.474500 0.893840
C70 C 0.040600 0.323900 0.874090
C71 C -0.169000 0.299100 0.862200
H72 H -0.244700 0.276800 0.883000
H73 H -0.215700 0.394500 0.852200
C74 C -0.200400 0.173900 0.835810
H75 H -0.147000 0.203600 0.813500
H76 H -0.334000 0.156300 0.833100
H77 H -0.140400 0.081400 0.843900
C78 C 0.061100 0.830600 0.984900
C79 C 0.062300 0.893300 0.947700
H80 H -0.049700 0.954800 0.943100
H81 H 0.174500 0.954800 0.943300
C82 C 0.070100 0.754900 0.889810
C83 C 0.067000 0.606100 0.874090
C84 C 0.164600 0.332600 0.840930
C85 C 0.071000 0.597900 0.834870
H86 H -0.057900 0.604400 0.826100
H87 H 0.140200 0.685900 0.825900
C88 C 0.066200 0.902200 1.016730
C89 C 0.060000 0.808000 1.047290
C90 C 0.063700 0.866400 1.082290
H91 H 0.068900 0.972100 1.085700
C92 C 0.085500 1.073900 1.019750
H93 H 0.129300 1.094400 1.043600
H94 H 0.188200 1.103100 1.004100
C95 C -0.046100 1.165800 1.014000
H96 H -0.001200 1.269000 1.017200
H97 H -0.148000 1.146200 1.030200
H98 H -0.090700 1.153000 0.990200
O99 O 0.436900 0.164000 0.643710
H100 H 0.465300 0.229300 0.658400
N101 N 0.446000 0.425600 0.510600
O102 O 0.421700 0.120700 0.373660
O103 O 0.239500 0.774100 0.331070
O104 O 0.395700 0.795000 0.395980
H105 H 0.302400 0.835700 0.387100
C106 C 0.443800 0.332600 0.483240
N107 N 0.437000 0.247700 0.426280
O108 O 0.342900 0.540000 0.321390
C109 C 0.440300 0.227300 0.610900
C110 C 0.447700 0.387500 0.606190
H111 H 0.452900 0.451800 0.625800
C112 C 0.447400 0.448800 0.573390
H113 H 0.448600 0.555100 0.570900
C114 C 0.445300 0.355100 0.542620
C115 C 0.443100 0.379300 0.446410
C116 C 0.445400 0.519500 0.430990
H117 H 0.449400 0.608700 0.444500
C118 C 0.441500 0.525500 0.393840
C119 C 0.459400 0.676100 0.374090
C120 C 0.669000 0.700900 0.362200
H121 H 0.744700 0.723200 0.383000
H122 H 0.715700 0.605500 0.352200
C123 C 0.700400 0.826100 0.335810
H124 H 0.647000 0.796400 0.313500
H125 H 0.834000 0.843700 0.333100
H126 H 0.640400 0.918600 0.343900
C127 C 0.438900 0.169400 0.484900
C128 C 0.437700 0.106700 0.447700
H129 H 0.549700 0.045200 0.443100
H130 H 0.325500 0.045200 0.443300
C131 C 0.429900 0.245100 0.389810
C132 C 0.433000 0.393900 0.374090
C133 C 0.335400 0.667400 0.340930
C134 C 0.429000 0.402100 0.334870
H135 H 0.557900 0.395600 0.326100
H136 H 0.359800 0.314100 0.325900
C137 C 0.433800 0.097800 0.516730
C138 C 0.440000 0.192000 0.547290
C139 C 0.436300 0.133600 0.582290
H140 H 0.431100 0.027900 0.585700
C141 C 0.414500 -0.073900 0.519750
H142 H 0.370700 -0.094400 0.543600
H143 H 0.311800 -0.103100 0.504100
C144 C 0.546100 -0.165800 0.514000
H145 H 0.501200 -0.269000 0.517200
H146 H 0.648000 -0.146200 0.530200
H147 H 0.590700 -0.153000 0.490200
O148 O 0.936900 0.336000 0.356290
H149 H 0.965300 0.270700 0.341600
N150 N 0.946000 0.074400 0.489400
O151 O 0.921700 0.379300 0.626340
O152 O 0.739500 -0.274100 0.668930
O153 O 0.895700 -0.295000 0.604020
H154 H 0.802400 -0.335700 0.612900
C155 C 0.943800 0.167400 0.516760
N156 N 0.937000 0.252300 0.573720
O157 O 0.842900 -0.040000 0.678610
C158 C 0.940300 0.272700 0.389100
C159 C 0.947700 0.112500 0.393810
H160 H 0.952900 0.048200 0.374200
C161 C 0.947400 0.051200 0.426610
H162 H 0.948600 -0.055100 0.429100
C163 C 0.945300 0.144900 0.457380
C164 C 0.943100 0.120700 0.553590
C165 C 0.945400 -0.019500 0.569010
H166 H 0.949400 -0.108700 0.555500
C167 C 0.941500 -0.025500 0.606160
C168 C 0.959400 -0.176100 0.625910
C169 C 1.169000 -0.200900 0.637800
H170 H 1.244700 -0.223200 0.617000
H171 H 1.215700 -0.105500 0.647800
C172 C 1.200400 -0.326100 0.664190
H173 H 1.147000 -0.296400 0.686500
H174 H 1.334000 -0.343700 0.666900
H175 H 1.140400 -0.418600 0.656100
C176 C 0.938900 0.330600 0.515100
C177 C 0.937700 0.393300 0.552300
H178 H 1.049700 0.454800 0.556900
H179 H 0.825500 0.454800 0.556700
C180 C 0.929900 0.254900 0.610190
C181 C 0.933000 0.106100 0.625910
C182 C 0.835400 -0.167400 0.659070
C183 C 0.929000 0.097900 0.665130
H184 H 1.057900 0.104400 0.673900
H185 H 0.859800 0.185900 0.674100
C186 C 0.933800 0.402200 0.483270
C187 C 0.940000 0.308000 0.452710
C188 C 0.936300 0.366400 0.417710
H189 H 0.931100 0.472100 0.414300
C190 C 0.914500 0.573900 0.480250
H191 H 0.870700 0.594400 0.456400
H192 H 0.811800 0.603100 0.495900
C193 C 1.046100 0.665800 0.486000
H194 H 1.001200 0.769000 0.482800
H195 H 1.148000 0.646200 0.469800
H196 H 1.090700 0.653000 0.509800
O197 O 1.039600 0.647700 0.198180
C198 C 0.887400 0.583900 0.206010
H199 H 0.796400 0.571200 0.188500
N200 N 0.850100 0.534000 0.237740
C201 C 0.984100 0.544300 0.266010
H202 H 1.020200 0.442900 0.273300
H203 H 0.927800 0.597800 0.285600
H204 H 1.094300 0.599200 0.258100
C205 C 0.668700 0.460800 0.244590
H206 H 0.587600 0.473300 0.224400
H207 H 0.610600 0.507400 0.264900
H208 H 0.688000 0.353300 0.249000
O209 O 0.539600 0.852300 0.801820
C210 C 0.387400 0.916100 0.793990
H211 H 0.296400 0.928800 0.811500
N212 N 0.350100 0.966000 0.762260
C213 C 0.484100 0.955700 0.733990
H214 H 0.520200 1.057100 0.726700
H215 H 0.427800 0.902200 0.714400
H216 H 0.594300 0.900800 0.741900
C217 C 0.168700 1.039200 0.755410
H218 H 0.087600 1.026700 0.775600
H219 H 0.110600 0.992600 0.735100
H220 H 0.188000 1.146700 0.751000
O221 O -0.039600 0.147700 0.301820
C222 C 0.112600 0.083900 0.293990
H223 H 0.203600 0.071200 0.311500
N224 N 0.149900 0.034000 0.262260
C225 C 0.015900 0.044300 0.233990
H226 H -0.020200 -0.057100 0.226700
H227 H 0.072200 0.097800 0.214400
H228 H -0.094300 0.099200 0.241900
C229 C 0.331300 -0.039200 0.255410
H230 H 0.412400 -0.026700 0.275600
H231 H 0.389400 0.007400 0.235100
H232 H 0.312000 -0.146700 0.251000
O233 O 0.460400 0.352300 0.698180
C234 C 0.612600 0.416100 0.706010
H235 H 0.703600 0.428800 0.688500
N236 N 0.649900 0.466000 0.737740
C237 C 0.515900 0.455700 0.766010
H238 H 0.479800 0.557100 0.773300
H239 H 0.572200 0.402200 0.785600
H240 H 0.405700 0.400800 0.758100
C241 C 0.831300 0.539200 0.744590
H242 H 0.912400 0.526700 0.724400
H243 H 0.889400 0.492600 0.764900
H244 H 0.812000 0.646700 0.749000

#END
