
#######################################################################
#
#                 Cambridge Crystallographic Data Centre
#                                CCDC 
#
#######################################################################
#
# If this CIF has been generated from an entry in the Cambridge 
# Structural Database, then it will include bibliographic, chemical, 
# crystal, experimental, refinement or atomic coordinate data resulting 
# from the CCDC's data processing and validation procedures.
#
#######################################################################

data_AANHOX
_symmetry_cell_setting           orthorhombic
_symmetry_space_group_name_H-M   'P n a 21'
_symmetry_Int_Tables_number      33
_space_group_name_Hall           'P 2c -2n'
loop_
_symmetry_equiv_pos_site_id
_symmetry_equiv_pos_as_xyz
1 x,y,z
2 1/2-x,1/2+y,1/2+z
3 1/2+x,1/2-y,z
4 -x,-y,1/2+z
_cell_length_a                   7.750(4)
_cell_length_b                   11.572(1)
_cell_length_c                   17.701(1)
_cell_angle_alpha                90
_cell_angle_beta                 90
_cell_angle_gamma                90
_cell_volume                     1587.48
loop_
_atom_site_label
_atom_site_type_symbol
_atom_site_fract_x
_atom_site_fract_y
_atom_site_fract_z
O1 O 0.92090 0.57670 0.58650
O2 O 0.79510 0.60380 0.22440
N1 N 0.91100 0.69770 0.22310
C1 C 0.93000 0.60320 0.51230
C2 C 0.86400 0.53480 0.45600
C3 C 0.87600 0.56750 0.38030
C4 C 0.95900 0.67290 0.36260
C5 C 1.02600 0.73830 0.42230
C6 C 1.00900 0.70620 0.49570
C7 C 0.81400 0.48460 0.61090
C8 C 0.98100 0.72430 0.28570
O1 O 0.57910 0.07670 1.08650
O2 O 0.70490 0.10380 0.72440
N1 N 0.58900 0.19770 0.72310
C1 C 0.57000 0.10320 1.01230
C2 C 0.63600 0.03480 0.95600
C3 C 0.62400 0.06750 0.88030
C4 C 0.54100 0.17290 0.86260
C5 C 0.47400 0.23830 0.92230
C6 C 0.49100 0.20620 0.99570
C7 C 0.68600 -0.01540 1.11090
C8 C 0.51900 0.22430 0.78570
O1 O 0.42090 0.92330 0.58650
O2 O 0.29510 0.89620 0.22440
N1 N 0.41100 0.80230 0.22310
C1 C 0.43000 0.89680 0.51230
C2 C 0.36400 0.96520 0.45600
C3 C 0.37600 0.93250 0.38030
C4 C 0.45900 0.82710 0.36260
C5 C 0.52600 0.76170 0.42230
C6 C 0.50900 0.79380 0.49570
C7 C 0.31400 1.01540 0.61090
C8 C 0.48100 0.77570 0.28570
O1 O 0.07910 0.42330 1.08650
O2 O 0.20490 0.39620 0.72440
N1 N 0.08900 0.30230 0.72310
C1 C 0.07000 0.39680 1.01230
C2 C 0.13600 0.46520 0.95600
C3 C 0.12400 0.43250 0.88030
C4 C 0.04100 0.32710 0.86260
C5 C -0.02600 0.26170 0.92230
C6 C -0.00900 0.29380 0.99570
C7 C 0.18600 0.51540 1.11090
C8 C 0.01900 0.27570 0.78570
O3 O -0.04890 0.88790 0.72270
O4 O -0.01290 0.78650 1.08320
N2 N 0.12300 0.86430 1.08810
C9 C -0.18900 0.81870 0.69940
C10 C -0.00400 0.88780 0.79760
C11 C 0.11400 0.96760 0.81930
C12 C 0.16800 0.97360 0.89690
C13 C 0.10400 0.89460 0.94900
C14 C -0.01900 0.81260 0.92560
C15 C -0.07100 0.80860 0.84940
C16 C 0.16600 0.91190 1.02540
O3 O 0.54890 0.38790 0.22270
O4 O 0.51290 0.28650 0.58320
N2 N 0.37700 0.36430 0.58810
C9 C 0.68900 0.31870 0.19940
C10 C 0.50400 0.38780 0.29760
C11 C 0.38600 0.46760 0.31930
C12 C 0.33200 0.47360 0.39690
C13 C 0.39600 0.39460 0.44900
C14 C 0.51900 0.31260 0.42560
C15 C 0.57100 0.30860 0.34940
C16 C 0.33400 0.41190 0.52540
O3 O 0.45110 0.61210 0.72270
O4 O 0.48710 0.71350 1.08320
N2 N 0.62300 0.63570 1.08810
C9 C 0.31100 0.68130 0.69940
C10 C 0.49600 0.61220 0.79760
C11 C 0.61400 0.53240 0.81930
C12 C 0.66800 0.52640 0.89690
C13 C 0.60400 0.60540 0.94900
C14 C 0.48100 0.68740 0.92560
C15 C 0.42900 0.69140 0.84940
C16 C 0.66600 0.58810 1.02540
O3 O 1.04890 0.11210 0.22270
O4 O 1.01290 0.21350 0.58320
N2 N 0.87700 0.13570 0.58810
C9 C 1.18900 0.18130 0.19940
C10 C 1.00400 0.11220 0.29760
C11 C 0.88600 0.03240 0.31930
C12 C 0.83200 0.02640 0.39690
C13 C 0.89600 0.10540 0.44900
C14 C 1.01900 0.18740 0.42560
C15 C 1.07100 0.19140 0.34940
C16 C 0.83400 0.08810 0.52540

#END
