
#######################################################################
#
#                 Cambridge Crystallographic Data Centre
#                                CCDC 
#
#######################################################################
#
# If this CIF has been generated from an entry in the Cambridge 
# Structural Database, then it will include bibliographic, chemical, 
# crystal, experimental, refinement or atomic coordinate data resulting 
# from the CCDC's data processing and validation procedures.
#
#######################################################################

data_ABABEL
_symmetry_cell_setting           monoclinic
_symmetry_space_group_name_H-M   'P 21/c'
_symmetry_Int_Tables_number      14
_space_group_name_Hall           '-P 2ybc'
loop_
_symmetry_equiv_pos_site_id
_symmetry_equiv_pos_as_xyz
1 x,y,z
2 -x,1/2+y,1/2-z
3 -x,-y,-z
4 x,1/2-y,1/2+z
_cell_length_a                   11.1366(12)
_cell_length_b                   6.9872(7)
_cell_length_c                   15.3869(16)
_cell_angle_alpha                90
_cell_angle_beta                 93.796(2)
_cell_angle_gamma                90
_cell_volume                     1194.68
loop_
_atom_site_label
_atom_site_type_symbol
_atom_site_fract_x
_atom_site_fract_y
_atom_site_fract_z
Cl1 Cl 0.72083(6) 1.09418(9) 0.68032(5)
O1 O 0.84300(14) 0.4969(2) 0.52577(12)
N1 N 0.98694(15) 0.7154(2) 0.56335(12)
H1 H 1.0395 0.6419 0.5420
C1 C 0.87130(19) 0.6517(3) 0.56084(15)
C2 C 0.78474(18) 0.7753(3) 0.60122(14)
C3 C 0.8225(2) 0.9459(3) 0.63380(14)
C4 C 0.94472(19) 1.0112(3) 0.63352(14)
C5 C 0.9874(2) 1.1899(3) 0.66585(16)
H2 H 0.9345 1.2749 0.6899
C6 C 1.1052(3) 1.2382(4) 0.66196(17)
H3 H 1.1320 1.3565 0.6831
C7 C 1.1857(2) 1.1136(4) 0.62701(17)
H4 H 1.2661 1.1481 0.6254
C8 C 1.1473(2) 0.9387(3) 0.59469(16)
H5 H 1.2014 0.8549 0.5712
C9 C 1.02672(19) 0.8885(3) 0.59747(14)
C10 C 0.65855(19) 0.7054(3) 0.60428(15)
C11 C 0.6305(2) 0.5733(3) 0.66680(17)
H6 H 0.6908 0.5265 0.7058
C12 C 0.5135(2) 0.5104(4) 0.6718(2)
H7 H 0.4953 0.4228 0.7145
C13 C 0.4241(2) 0.5771(4) 0.6136(2)
H8 H 0.3453 0.5347 0.6169
C14 C 0.4510(2) 0.7052(4) 0.5512(2)
H9 H 0.3908 0.7491 0.5114
C15 C 0.5678(2) 0.7703(3) 0.54690(18)
H10 H 0.5851 0.8593 0.5045
Cl1 Cl 0.27917(6) 0.59418(9) 0.81968(5)
O1 O 0.15700(14) -0.0031(2) 0.97423(12)
N1 N 0.01306(15) 0.2154(2) 0.93665(12)
H1 H -0.0395 0.1419 0.9580
C1 C 0.12870(19) 0.1517(3) 0.93916(15)
C2 C 0.21526(18) 0.2753(3) 0.89878(14)
C3 C 0.1775(2) 0.4459(3) 0.86620(14)
C4 C 0.05528(19) 0.5112(3) 0.86648(14)
C5 C 0.0126(2) 0.6899(3) 0.83415(16)
H2 H 0.0655 0.7749 0.8101
C6 C -0.1052(3) 0.7382(4) 0.83804(17)
H3 H -0.1320 0.8565 0.8169
C7 C -0.1857(2) 0.6136(4) 0.87299(17)
H4 H -0.2661 0.6481 0.8746
C8 C -0.1473(2) 0.4387(3) 0.90531(16)
H5 H -0.2014 0.3549 0.9288
C9 C -0.02672(19) 0.3885(3) 0.90253(14)
C10 C 0.34145(19) 0.2054(3) 0.89572(15)
C11 C 0.3695(2) 0.0733(3) 0.83320(17)
H6 H 0.3092 0.0265 0.7942
C12 C 0.4865(2) 0.0104(4) 0.8282(2)
H7 H 0.5047 -0.0772 0.7855
C13 C 0.5759(2) 0.0771(4) 0.8864(2)
H8 H 0.6547 0.0347 0.8831
C14 C 0.5490(2) 0.2052(4) 0.9488(2)
H9 H 0.6092 0.2491 0.9886
C15 C 0.4322(2) 0.2703(3) 0.95310(18)
H10 H 0.4149 0.3593 0.9955
Cl1 Cl 0.27917(6) -0.09418(9) 0.31968(5)
O1 O 0.15700(14) 0.5031(2) 0.47423(12)
N1 N 0.01306(15) 0.2846(2) 0.43665(12)
H1 H -0.0395 0.3581 0.4580
C1 C 0.12870(19) 0.3483(3) 0.43916(15)
C2 C 0.21526(18) 0.2247(3) 0.39878(14)
C3 C 0.1775(2) 0.0541(3) 0.36620(14)
C4 C 0.05528(19) -0.0112(3) 0.36648(14)
C5 C 0.0126(2) -0.1899(3) 0.33415(16)
H2 H 0.0655 -0.2749 0.3101
C6 C -0.1052(3) -0.2382(4) 0.33804(17)
H3 H -0.1320 -0.3565 0.3169
C7 C -0.1857(2) -0.1136(4) 0.37299(17)
H4 H -0.2661 -0.1481 0.3746
C8 C -0.1473(2) 0.0613(3) 0.40531(16)
H5 H -0.2014 0.1451 0.4288
C9 C -0.02672(19) 0.1115(3) 0.40253(14)
C10 C 0.34145(19) 0.2946(3) 0.39572(15)
C11 C 0.3695(2) 0.4267(3) 0.33320(17)
H6 H 0.3092 0.4735 0.2942
C12 C 0.4865(2) 0.4896(4) 0.3282(2)
H7 H 0.5047 0.5772 0.2855
C13 C 0.5759(2) 0.4229(4) 0.3864(2)
H8 H 0.6547 0.4653 0.3831
C14 C 0.5490(2) 0.2948(4) 0.4488(2)
H9 H 0.6092 0.2509 0.4886
C15 C 0.4322(2) 0.2297(3) 0.45310(18)
H10 H 0.4149 0.1407 0.4955
Cl1 Cl 0.72083(6) 0.40582(9) 0.18032(5)
O1 O 0.84300(14) 1.0031(2) 0.02577(12)
N1 N 0.98694(15) 0.7846(2) 0.06335(12)
H1 H 1.0395 0.8581 0.0420
C1 C 0.87130(19) 0.8483(3) 0.06084(15)
C2 C 0.78474(18) 0.7247(3) 0.10122(14)
C3 C 0.8225(2) 0.5541(3) 0.13380(14)
C4 C 0.94472(19) 0.4888(3) 0.13352(14)
C5 C 0.9874(2) 0.3101(3) 0.16585(16)
H2 H 0.9345 0.2251 0.1899
C6 C 1.1052(3) 0.2618(4) 0.16196(17)
H3 H 1.1320 0.1435 0.1831
C7 C 1.1857(2) 0.3864(4) 0.12701(17)
H4 H 1.2661 0.3519 0.1254
C8 C 1.1473(2) 0.5613(3) 0.09469(16)
H5 H 1.2014 0.6451 0.0712
C9 C 1.02672(19) 0.6115(3) 0.09747(14)
C10 C 0.65855(19) 0.7946(3) 0.10428(15)
C11 C 0.6305(2) 0.9267(3) 0.16680(17)
H6 H 0.6908 0.9735 0.2058
C12 C 0.5135(2) 0.9896(4) 0.1718(2)
H7 H 0.4953 1.0772 0.2145
C13 C 0.4241(2) 0.9229(4) 0.1136(2)
H8 H 0.3453 0.9653 0.1169
C14 C 0.4510(2) 0.7948(4) 0.0512(2)
H9 H 0.3908 0.7509 0.0114
C15 C 0.5678(2) 0.7297(3) 0.04690(18)
H10 H 0.5851 0.6407 0.0045

#END
