
#######################################################################
#
#                 Cambridge Crystallographic Data Centre
#                                CCDC 
#
#######################################################################
#
# If this CIF has been generated from an entry in the Cambridge 
# Structural Database, then it will include bibliographic, chemical, 
# crystal, experimental, refinement or atomic coordinate data resulting 
# from the CCDC's data processing and validation procedures.
#
#######################################################################

data_ABEFAP
_symmetry_cell_setting           triclinic
_symmetry_space_group_name_H-M   'P -1'
_symmetry_Int_Tables_number      2
_space_group_name_Hall           '-P 1'
loop_
_symmetry_equiv_pos_site_id
_symmetry_equiv_pos_as_xyz
1 x,y,z
2 -x,-y,-z
_cell_length_a                   7.8320(10)
_cell_length_b                   9.151(2)
_cell_length_c                   12.201(3)
_cell_angle_alpha                92.68(4)
_cell_angle_beta                 104.56(4)
_cell_angle_gamma                113.45(3)
_cell_volume                     765.782
loop_
_atom_site_label
_atom_site_type_symbol
_atom_site_fract_x
_atom_site_fract_y
_atom_site_fract_z
S1 S 0.48384(6) 0.40889(5) 0.15572(3)
O1 O 1.08548(18) 0.82102(15) 0.24637(9)
O2 O 1.2894(2) 0.93484(15) -0.21987(11)
O3 O 0.81610(19) 0.77415(14) 0.48162(10)
N1 N 0.80446(17) 0.62660(15) 0.12521(10)
H1 H 0.7386 0.5936 0.0539
N2 N 0.82360(18) 0.58730(15) 0.31194(10)
H2 H 0.9388 0.6637 0.3266
C1 C 1.0072(2) 0.69176(17) -0.05047(13)
H3 H 0.9167 0.5856 -0.0580
C2 C 1.0888(2) 0.74035(19) -0.13741(13)
H4 H 1.0562 0.6663 -0.2025
C3 C 1.2201(2) 0.90004(18) -0.12825(13)
C4 C 1.2726(2) 1.00955(18) -0.03032(14)
H5 H 1.3601 1.1164 -0.0239
C5 C 1.1936(2) 0.95859(18) 0.05779(13)
H6 H 1.2311 1.0315 0.1244
C6 C 1.0591(2) 0.80033(17) 0.04867(12)
C7 C 0.9872(2) 0.75296(17) 0.14842(12)
C8 C 0.7146(2) 0.54660(17) 0.20346(12)
C9 C 0.7695(2) 0.51734(18) 0.40713(12)
C10 C 0.7723(2) 0.61863(19) 0.49694(12)
C11 C 0.7300(2) 0.5566(2) 0.59318(13)
H7 H 0.7278 0.6222 0.6529
C12 C 0.6914(3) 0.3974(2) 0.59989(15)
H8 H 0.6646 0.3564 0.6650
C13 C 0.6916(3) 0.2984(2) 0.51239(16)
H9 H 0.6656 0.1911 0.5183
C14 C 0.7307(2) 0.3587(2) 0.41473(14)
H10 H 0.7307 0.2920 0.3548
C15 C 1.4042(3) 1.0982(2) -0.22563(19)
H11 H 1.3268 1.1582 -0.2310
H12 H 1.4496 1.1024 -0.2920
H13 H 1.5137 1.1444 -0.1578
C16 C 0.8343(3) 0.8855(2) 0.57519(18)
H14 H 0.7128 0.8504 0.5928
H15 H 0.8680 0.9909 0.5541
H16 H 0.9344 0.8897 0.6414
S1 S 0.51616(6) 0.59111(5) 0.84428(3)
O1 O -0.08548(18) 0.17898(15) 0.75363(9)
O2 O -0.2894(2) 0.06516(15) 1.21987(11)
O3 O 0.18390(19) 0.22585(14) 0.51838(10)
N1 N 0.19554(17) 0.37340(15) 0.87479(10)
H1 H 0.2614 0.4064 0.9461
N2 N 0.17640(18) 0.41270(15) 0.68806(10)
H2 H 0.0612 0.3363 0.6734
C1 C -0.0072(2) 0.30824(17) 1.05047(13)
H3 H 0.0833 0.4144 1.0580
C2 C -0.0888(2) 0.25965(19) 1.13741(13)
H4 H -0.0562 0.3337 1.2025
C3 C -0.2201(2) 0.09996(18) 1.12825(13)
C4 C -0.2726(2) -0.00955(18) 1.03032(14)
H5 H -0.3601 -0.1164 1.0239
C5 C -0.1936(2) 0.04141(18) 0.94221(13)
H6 H -0.2311 -0.0315 0.8756
C6 C -0.0591(2) 0.19967(17) 0.95133(12)
C7 C 0.0128(2) 0.24704(17) 0.85158(12)
C8 C 0.2854(2) 0.45340(17) 0.79654(12)
C9 C 0.2305(2) 0.48266(18) 0.59287(12)
C10 C 0.2277(2) 0.38137(19) 0.50306(12)
C11 C 0.2700(2) 0.4434(2) 0.40682(13)
H7 H 0.2722 0.3778 0.3471
C12 C 0.3086(3) 0.6026(2) 0.40011(15)
H8 H 0.3354 0.6436 0.3350
C13 C 0.3084(3) 0.7016(2) 0.48761(16)
H9 H 0.3344 0.8089 0.4817
C14 C 0.2693(2) 0.6413(2) 0.58527(14)
H10 H 0.2693 0.7080 0.6452
C15 C -0.4042(3) -0.0982(2) 1.22563(19)
H11 H -0.3268 -0.1582 1.2310
H12 H -0.4496 -0.1024 1.2920
H13 H -0.5137 -0.1444 1.1578
C16 C 0.1657(3) 0.1145(2) 0.42481(18)
H14 H 0.2872 0.1496 0.4072
H15 H 0.1320 0.0091 0.4459
H16 H 0.0656 0.1103 0.3586

#END
