./ABPZCU02_from_POSCAR.cif_generated_by_CrystalShift
_symmetry_cell_setting triclinic
_symmetry_space_group_name_H-M 'P 1'
loop_
_symmetry_equiv_pos_site_id
_symmetry_equiv_pos_as_xyz
1 x,y,z
_cell_length_a 15.125000
_cell_length_b 12.442000
_cell_length_c 6.992000
_cell_angle_alpha 90.000000
_cell_angle_beta 105.940000
_cell_angle_gamma 90.000000
_cell_volume 1265.198851
loop_
_atom_site_label
_atom_site_type_symbol
_atom_site_fract_x
_atom_site_fract_y
_atom_site_fract_z
H1 H 1.089000 0.108000 0.123000
H2 H 1.075600 0.606000 0.269700
H3 H 0.704500 0.770500 0.302600
H4 H 0.733000 1.088900 0.314800
H5 H 0.704500 0.229500 0.802600
H6 H 0.589000 0.608000 0.123000
H7 H 0.798000 0.081200 0.829100
H8 H 0.589000 0.568000 0.289000
H9 H 0.733000 -0.088900 0.814800
H10 H 0.575600 1.106000 0.269700
H11 H 0.575600 -0.106000 0.769700
H12 H 0.795500 0.270500 0.197400
H13 H 1.089000 0.068000 0.289000
H14 H 1.233000 0.588900 0.314800
H15 H 0.424400 1.106000 0.230300
H16 H 0.411000 0.432000 0.711000
H17 H 0.411000 0.392000 0.877000
H18 H 0.267000 1.088900 0.185200
H19 H 1.298000 0.418800 0.329100
H20 H 0.202000 0.918800 0.170900
H21 H 0.295500 0.229500 0.697400
H22 H 0.295500 0.770500 0.197400
H23 H 0.202000 0.081200 0.670900
H24 H 0.411000 0.568000 0.211000
H25 H 0.267000 -0.088900 0.685200
H26 H 0.411000 0.608000 0.377000
H27 H 0.424400 -0.106000 0.730300
H28 H -0.089000 0.892000 0.877000
H29 H 1.204500 0.270500 0.302600
H30 H -0.089000 0.932000 0.711000
H31 H 0.589000 0.432000 0.789000
H32 H 0.589000 0.392000 0.623000
H33 H -0.089000 0.108000 0.377000
H34 H -0.089000 0.068000 0.211000
H35 H 0.075600 0.606000 0.269700
H36 H 0.911000 0.108000 0.377000
H37 H 0.233000 0.588900 0.314800
H38 H -0.204500 0.270500 0.197400
H39 H 0.298000 0.418800 0.329100
H40 H 0.924400 0.606000 0.230300
H41 H 0.075600 0.394000 0.769700
H42 H 0.204500 0.270500 0.302600
H43 H 0.233000 0.411100 0.814800
H44 H 1.204500 0.729500 0.802600
H45 H 0.298000 0.581200 0.829100
H46 H 1.298000 0.581200 0.829100
H47 H 0.204500 0.729500 0.802600
H48 H 1.233000 0.411100 0.814800
H49 H 0.089000 0.892000 0.623000
H50 H 1.075600 0.394000 0.769700
H51 H 0.089000 0.932000 0.789000
H52 H -0.298000 0.418800 0.170900
H53 H 0.702000 0.418800 0.170900
H54 H -0.075600 0.394000 0.730300
H55 H 0.911000 0.932000 0.711000
H56 H 0.911000 0.892000 0.877000
H57 H -0.233000 0.411100 0.685200
H58 H 0.089000 0.108000 0.123000
H59 H -0.298000 0.581200 0.670900
H60 H 0.795500 0.729500 0.697400
H61 H -0.204500 0.729500 0.697400
H62 H 0.702000 0.581200 0.670900
H63 H -0.233000 0.588900 0.185200
H64 H 0.767000 0.411100 0.685200
H65 H 0.767000 0.588900 0.185200
H66 H 0.924400 0.394000 0.730300
H67 H 0.089000 0.068000 0.289000
H68 H 0.911000 0.068000 0.211000
H69 H -0.075600 0.606000 0.230300
H70 H 1.089000 0.932000 0.789000
H71 H 1.089000 0.892000 0.623000
H72 H 0.798000 0.918800 0.329100
C73 C 0.897370 0.461580 0.722800
C74 C 0.803740 0.527980 0.196600
C75 C -0.102630 0.538420 0.222800
C76 C 0.803740 0.472020 0.696600
C77 C -0.178710 0.661250 0.703700
C78 C 0.764800 0.573100 0.687500
C79 C -0.235200 0.573100 0.687500
C80 C 0.821290 0.661250 0.703700
C81 C -0.196260 0.472020 0.696600
C82 C 0.949870 0.554000 0.737500
C83 C -0.102630 0.461580 0.722800
C84 C 0.050130 0.446000 0.262500
C85 C -0.050130 0.554000 0.737500
C86 C 0.178710 0.338750 0.296300
C87 C -0.196260 0.527980 0.196600
C88 C 0.897370 0.538420 0.222800
C89 C 1.050130 0.554000 0.762500
C90 C 1.102630 0.461580 0.777200
C91 C 0.050130 0.554000 0.762500
C92 C -0.235200 0.426900 0.187500
C93 C 0.178710 0.661250 0.796300
C94 C 1.196260 0.472020 0.803400
C95 C 0.235200 0.573100 0.812500
C96 C 1.235200 0.573100 0.812500
C97 C 0.196260 0.472020 0.803400
C98 C 1.178710 0.661250 0.796300
C99 C 0.102630 0.461580 0.777200
C100 C 0.235200 0.426900 0.312500
C101 C 0.196260 0.527980 0.303400
C102 C -0.178710 0.338750 0.203700
C103 C 0.102630 0.538420 0.277200
C104 C 1.178710 0.338750 0.296300
C105 C 1.235200 0.426900 0.312500
C106 C 0.949870 0.446000 0.237500
C107 C 0.821290 0.338750 0.203700
C108 C 0.764800 0.426900 0.187500
C109 C 0.397370 -0.038420 0.722800
C110 C 0.303740 -0.027980 0.696600
C111 C 0.321290 0.838750 0.203700
C112 C 0.264800 0.073100 0.687500
C113 C 0.264800 0.926900 0.187500
C114 C 0.321290 0.161250 0.703700
C115 C 0.303740 1.027980 0.196600
C116 C 0.449870 0.054000 0.737500
C117 C 0.397370 1.038420 0.222800
C118 C 1.196260 0.527980 0.303400
C119 C 0.449870 0.946000 0.237500
C120 C 0.550130 0.054000 0.762500
C121 C 0.602630 -0.038420 0.777200
C122 C 0.602630 1.038420 0.277200
C123 C 0.696260 -0.027980 0.803400
C124 C 0.735200 0.073100 0.812500
C125 C 0.550130 0.946000 0.262500
C126 C 0.678710 0.161250 0.796300
C127 C 0.678710 0.838750 0.296300
C128 C 1.102630 0.538420 0.277200
C129 C 0.735200 0.926900 0.312500
C130 C -0.050130 0.446000 0.237500
C131 C 0.696260 1.027980 0.303400
C132 C 1.050130 0.446000 0.262500
N133 N 0.587940 0.152650 0.771800
N134 N 0.412060 0.152650 0.728200
N135 N 1.087940 0.347350 0.271800
N136 N 1.087940 0.652650 0.771800
N137 N 0.087940 0.347350 0.271800
N138 N 0.412060 0.847350 0.228200
N139 N 0.912060 0.652650 0.728200
N140 N 0.587940 0.847350 0.271800
N141 N -0.087940 0.652650 0.728200
N142 N 0.912060 0.347350 0.228200
N143 N 0.087940 0.652650 0.771800
N144 N -0.087940 0.347350 0.228200
O145 O 0.574900 0.583820 0.868800
O146 O 0.034830 0.779960 1.113600
O147 O -0.094450 0.883190 0.752600
O148 O 0.094450 0.116810 0.247400
O149 O 0.465170 0.720040 0.886400
O150 O -0.074900 0.916180 0.131200
O151 O 0.034830 0.779960 0.113600
O152 O 0.425100 0.583820 0.631200
O153 O 0.074900 0.916180 0.368800
O154 O -0.034830 0.779960 0.386400
O155 O 0.965170 0.220040 -0.113600
O156 O 0.094450 0.883190 0.747400
O157 O 0.965170 0.779960 0.386400
O158 O 1.094450 0.883190 0.747400
O159 O 1.074900 0.916180 1.368800
O160 O -0.034830 0.220040 -0.113600
O161 O 0.074900 0.083820 -0.131200
O162 O 0.534830 0.720040 0.613600
O163 O 0.594450 0.616810 0.247400
O164 O 0.925100 0.916180 1.131200
O165 O 0.405550 0.616810 0.252600
O166 O 1.034830 0.779960 1.113600
O167 O 0.425100 0.583820 -0.368800
O168 O 0.905550 0.883190 0.752600
O169 O 0.965170 0.220040 0.886400
O170 O 0.425100 0.416180 0.131200
O171 O 0.534830 0.279960 0.113600
O172 O 0.574900 0.416180 0.368800
O173 O 1.074900 0.083820 0.868800
O174 O 0.034830 0.220040 -0.386400
O175 O -0.074900 0.083820 -0.368800
O176 O -0.094450 0.116810 0.252600
O177 O 1.094450 0.116810 0.247400
O178 O 0.465170 0.279960 0.386400
O179 O 0.034830 0.220040 0.613600
O180 O 0.925100 0.083820 0.631200
O181 O 1.034830 0.220040 0.613600
O182 O 0.905550 0.116810 0.252600
O183 O 0.534830 0.720040 -0.386400
O184 O 0.594450 0.383190 0.747400
O185 O 0.574900 0.416180 1.368800
O186 O 0.465170 0.279960 1.386400
O187 O 0.465170 0.720040 -0.113600
O188 O 0.425100 0.416180 1.131200
O189 O 0.534830 0.279960 1.113600
O190 O 0.574900 0.583820 -0.131200
O191 O 0.405550 0.383190 0.752600
O192 O 0.965170 0.779960 1.386400
S193 S 1.000000 0.153990 0.750000
S194 S 0.500000 0.346010 1.250000
S195 S 0.500000 0.346010 0.250000
S196 S 0.000000 0.153990 -0.250000
S197 S 1.000000 0.846010 1.250000
S198 S 0.000000 0.846010 0.250000
S199 S 0.500000 0.653990 0.750000
S200 S 0.500000 0.653990 -0.250000
Cu201 Cu 0.500000 0.725620 -0.750000
Cu202 Cu 0.500000 0.725620 0.250000
Cu203 Cu 0.500000 0.725620 1.250000
Cu204 Cu 0.000000 0.774380 0.750000
Cu205 Cu 1.000000 0.774380 1.750000
Cu206 Cu 0.000000 0.225620 0.250000
Cu207 Cu 1.000000 0.774380 0.750000
Cu208 Cu 0.500000 0.274380 -0.250000
Cu209 Cu 0.000000 0.225620 -0.750000
Cu210 Cu 0.500000 0.274380 1.750000
Cu211 Cu 1.000000 0.225620 0.250000
Cu212 Cu 0.000000 0.774380 -0.250000
Cu213 Cu 0.500000 0.274380 0.750000
Cu214 Cu 1.000000 0.225620 1.250000

#END
