
#######################################################################
#
#                 Cambridge Crystallographic Data Centre
#                                CCDC 
#
#######################################################################
#
# If this CIF has been generated from an entry in the Cambridge 
# Structural Database, then it will include bibliographic, chemical, 
# crystal, experimental, refinement or atomic coordinate data resulting 
# from the CCDC's data processing and validation procedures.
#
#######################################################################

data_ABUMAN
_symmetry_cell_setting           monoclinic
_symmetry_space_group_name_H-M   'P 21/c'
_symmetry_Int_Tables_number      14
_space_group_name_Hall           '-P 2ybc'
loop_
_symmetry_equiv_pos_site_id
_symmetry_equiv_pos_as_xyz
1 x,y,z
2 -x,1/2+y,1/2-z
3 -x,-y,-z
4 x,1/2-y,1/2+z
_cell_length_a                   21.764(2)
_cell_length_b                   5.7440(6)
_cell_length_c                   15.6847(16)
_cell_angle_alpha                90
_cell_angle_beta                 103.5890(10)
_cell_angle_gamma                90
_cell_volume                     1905.89
loop_
_atom_site_label
_atom_site_type_symbol
_atom_site_fract_x
_atom_site_fract_y
_atom_site_fract_z
C1 C 0.14181(6) -0.1077(3) 0.49558(9)
C2 C 0.20114(7) -0.0963(3) 0.47876(10)
C3 C 0.21789(6) 0.0960(3) 0.43501(9)
C4 C 0.17229(7) 0.2679(3) 0.41070(11)
C5 C 0.11366(7) 0.2446(3) 0.42996(10)
C6 C 0.27963(7) 0.1193(3) 0.41260(11)
C7 C 0.32619(7) -0.0331(3) 0.42995(11)
C8 C 0.38669(7) -0.0155(3) 0.40416(11)
C9 C 0.40241(8) 0.1701(3) 0.35681(12)
C10 C 0.46013(8) 0.1714(4) 0.33461(13)
C11 C 0.48773(8) -0.1791(3) 0.40082(13)
C12 C 0.43104(8) -0.1927(3) 0.42640(13)
C13 C -0.18495(6) 0.4528(2) 0.30090(9)
C14 C -0.21200(6) 0.2375(3) 0.27597(10)
C15 C -0.27155(7) 0.1885(3) 0.28903(10)
C16 C -0.30399(6) 0.3488(3) 0.32790(10)
C17 C -0.27591(7) 0.5633(3) 0.35400(11)
C18 C -0.21683(7) 0.6145(3) 0.34115(11)
C19 C -0.36692(7) 0.2937(3) 0.34536(11)
O1 O -0.12782(4) 0.52424(17) 0.28934(7)
C20 C -0.06014(6) 0.1730(2) 0.31069(8)
H1 H 0.1299(8) -0.239(3) 0.5253(11)
H2 H 0.2298(8) -0.222(3) 0.4969(11)
H3 H 0.1808(8) 0.406(3) 0.3801(11)
H4 H 0.0824(7) 0.362(3) 0.4135(10)
H5 H 0.3734(10) 0.297(4) 0.3385(13)
H6 H -0.1973(8) 0.759(3) 0.3574(11)
H7 H -0.1906(8) 0.124(3) 0.2509(11)
H8 H -0.2917(8) 0.040(3) 0.2719(12)
H9 H -0.4291(13) 0.060(5) 0.3300(17)
H10 H -0.2966(9) 0.676(3) 0.3833(12)
H11 H 0.2835(9) 0.259(4) 0.3816(12)
H12 H 0.3208(9) -0.176(4) 0.4601(13)
H13 H 0.4713(9) 0.303(4) 0.3018(13)
H14 H 0.5190(9) -0.309(4) 0.4159(12)
H15 H -0.0214(10) -0.238(4) 0.3630(14)
H16 H -0.0256(9) -0.438(4) 0.4135(13)
Mn1 Mn 0.0000 0.0000 0.5000
N1 N 0.09791(5) 0.0597(2) 0.47206(7)
N2 N 0.50238(6) 0.0001(3) 0.35585(11)
O2 O -0.38846(6) 0.0875(3) 0.31741(10)
O3 O -0.39423(6) 0.4260(3) 0.38418(11)
C21 C -0.09248(6) 0.3659(3) 0.24943(9)
O4 O -0.05006(6) -0.01265(18) 0.27658(7)
O5 O -0.04416(4) 0.22295(17) 0.39183(6)
O6 O -0.00669(5) -0.30224(19) 0.41331(7)
H17 H 0.4247(8) -0.321(3) 0.4609(11)
H18 H -0.1186(8) 0.293(3) 0.1959(11)
H19 H -0.0591(8) 0.459(3) 0.2330(10)
C1B C -0.14181(6) 0.1077(3) 0.50442(9)
C2B C -0.20114(7) 0.0963(3) 0.52124(10)
C3B C -0.21789(6) -0.0960(3) 0.56499(9)
C4B C -0.17229(7) -0.2679(3) 0.58930(11)
C5B C -0.11366(7) -0.2446(3) 0.57004(10)
C6B C -0.27963(7) -0.1193(3) 0.58740(11)
C7B C -0.32619(7) 0.0331(3) 0.57005(11)
C8B C -0.38669(7) 0.0155(3) 0.59584(11)
C9B C -0.40241(8) -0.1701(3) 0.64319(12)
C10B C -0.46013(8) -0.1714(4) 0.66539(13)
C11B C -0.48773(8) 0.1791(3) 0.59918(13)
C12B C -0.43104(8) 0.1927(3) 0.57360(13)
C13B C 0.18495(6) -0.4528(2) 0.69910(9)
C14B C 0.21200(6) -0.2375(3) 0.72403(10)
C15B C 0.27155(7) -0.1885(3) 0.71097(10)
C16B C 0.30399(6) -0.3488(3) 0.67210(10)
C17B C 0.27591(7) -0.5633(3) 0.64600(11)
C18B C 0.21683(7) -0.6145(3) 0.65885(11)
C19B C 0.36692(7) -0.2937(3) 0.65464(11)
O1B O 0.12782(4) -0.52424(17) 0.71066(7)
C20B C 0.06014(6) -0.1730(2) 0.68931(8)
H1B H -0.1299(8) 0.239(3) 0.4747(11)
H2B H -0.2298(8) 0.222(3) 0.5031(11)
H3B H -0.1808(8) -0.406(3) 0.6199(11)
H4B H -0.0824(7) -0.362(3) 0.5865(10)
H5B H -0.3734(10) -0.297(4) 0.6615(13)
H6B H 0.1973(8) -0.759(3) 0.6426(11)
H7B H 0.1906(8) -0.124(3) 0.7491(11)
H8B H 0.2917(8) -0.040(3) 0.7281(12)
H9B H 0.4291(13) -0.060(5) 0.6700(17)
H10B H 0.2966(9) -0.676(3) 0.6167(12)
H11B H -0.2835(9) -0.259(4) 0.6184(12)
H12B H -0.3208(9) 0.176(4) 0.5399(13)
H13B H -0.4713(9) -0.303(4) 0.6982(13)
H14B H -0.5190(9) 0.309(4) 0.5841(12)
H15B H 0.0214(10) 0.238(4) 0.6370(14)
H16B H 0.0256(9) 0.438(4) 0.5865(13)
N1B N -0.09791(5) -0.0597(2) 0.52794(7)
N2B N -0.50238(6) -0.0001(3) 0.64415(11)
O2B O 0.38846(6) -0.0875(3) 0.68259(10)
O3B O 0.39423(6) -0.4260(3) 0.61582(11)
C21B C 0.09248(6) -0.3659(3) 0.75057(9)
O4B O 0.05006(6) 0.01265(18) 0.72342(7)
O5B O 0.04416(4) -0.22295(17) 0.60817(6)
O6B O 0.00669(5) 0.30224(19) 0.58669(7)
H17B H -0.4247(8) 0.321(3) 0.5391(11)
H18B H 0.1186(8) -0.293(3) 0.8041(11)
H19B H 0.0591(8) -0.459(3) 0.7670(10)
C1 C 0.14181(6) 0.8923(3) 0.49558(9)
C2 C 0.20114(7) 0.9037(3) 0.47876(10)
C3 C 0.21789(6) 1.0960(3) 0.43501(9)
C4 C 0.17229(7) 1.2679(3) 0.41070(11)
C5 C 0.11366(7) 1.2446(3) 0.42996(10)
C6 C 0.27963(7) 1.1193(3) 0.41260(11)
C7 C 0.32619(7) 0.9669(3) 0.42995(11)
C8 C 0.38669(7) 0.9845(3) 0.40416(11)
C9 C 0.40241(8) 1.1701(3) 0.35681(12)
C10 C 0.46013(8) 1.1714(4) 0.33461(13)
C11 C 0.48773(8) 0.8209(3) 0.40082(13)
C12 C 0.43104(8) 0.8073(3) 0.42640(13)
C13 C -0.18495(6) 1.4528(2) 0.30090(9)
C14 C -0.21200(6) 1.2375(3) 0.27597(10)
C15 C -0.27155(7) 1.1885(3) 0.28903(10)
C16 C -0.30399(6) 1.3488(3) 0.32790(10)
C17 C -0.27591(7) 1.5633(3) 0.35400(11)
C18 C -0.21683(7) 1.6145(3) 0.34115(11)
C19 C -0.36692(7) 1.2937(3) 0.34536(11)
O1 O -0.12782(4) 1.52424(17) 0.28934(7)
C20 C -0.06014(6) 1.1730(2) 0.31069(8)
H1 H 0.1299(8) 0.761(3) 0.5253(11)
H2 H 0.2298(8) 0.778(3) 0.4969(11)
H3 H 0.1808(8) 1.406(3) 0.3801(11)
H4 H 0.0824(7) 1.362(3) 0.4135(10)
H5 H 0.3734(10) 1.297(4) 0.3385(13)
H6 H -0.1973(8) 1.759(3) 0.3574(11)
H7 H -0.1906(8) 1.124(3) 0.2509(11)
H8 H -0.2917(8) 1.040(3) 0.2719(12)
H9 H -0.4291(13) 1.060(5) 0.3300(17)
H10 H -0.2966(9) 1.676(3) 0.3833(12)
H11 H 0.2835(9) 1.259(4) 0.3816(12)
H12 H 0.3208(9) 0.824(4) 0.4601(13)
H13 H 0.4713(9) 1.303(4) 0.3018(13)
H14 H 0.5190(9) 0.691(4) 0.4159(12)
H15 H -0.0214(10) 0.762(4) 0.3630(14)
H16 H -0.0256(9) 0.562(4) 0.4135(13)
Mn1 Mn 0.0000 1.0000 0.5000
N1 N 0.09791(5) 1.0597(2) 0.47206(7)
N2 N 0.50238(6) 1.0001(3) 0.35585(11)
O2 O -0.38846(6) 1.0875(3) 0.31741(10)
O3 O -0.39423(6) 1.4260(3) 0.38418(11)
C21 C -0.09248(6) 1.3659(3) 0.24943(9)
O4 O -0.05006(6) 0.98735(18) 0.27658(7)
O5 O -0.04416(4) 1.22295(17) 0.39183(6)
O6 O -0.00669(5) 0.69776(19) 0.41331(7)
H17 H 0.4247(8) 0.679(3) 0.4609(11)
H18 H -0.1186(8) 1.293(3) 0.1959(11)
H19 H -0.0591(8) 1.459(3) 0.2330(10)
C1B C -0.14181(6) 1.1077(3) 0.50442(9)
C2B C -0.20114(7) 1.0963(3) 0.52124(10)
C3B C -0.21789(6) 0.9040(3) 0.56499(9)
C4B C -0.17229(7) 0.7321(3) 0.58930(11)
C5B C -0.11366(7) 0.7554(3) 0.57004(10)
C6B C -0.27963(7) 0.8807(3) 0.58740(11)
C7B C -0.32619(7) 1.0331(3) 0.57005(11)
C8B C -0.38669(7) 1.0155(3) 0.59584(11)
C9B C -0.40241(8) 0.8299(3) 0.64319(12)
C10B C -0.46013(8) 0.8286(4) 0.66539(13)
C11B C -0.48773(8) 1.1791(3) 0.59918(13)
C12B C -0.43104(8) 1.1927(3) 0.57360(13)
C13B C 0.18495(6) 0.5472(2) 0.69910(9)
C14B C 0.21200(6) 0.7625(3) 0.72403(10)
C15B C 0.27155(7) 0.8115(3) 0.71097(10)
C16B C 0.30399(6) 0.6512(3) 0.67210(10)
C17B C 0.27591(7) 0.4367(3) 0.64600(11)
C18B C 0.21683(7) 0.3855(3) 0.65885(11)
C19B C 0.36692(7) 0.7063(3) 0.65464(11)
O1B O 0.12782(4) 0.47576(17) 0.71066(7)
C20B C 0.06014(6) 0.8270(2) 0.68931(8)
H1B H -0.1299(8) 1.239(3) 0.4747(11)
H2B H -0.2298(8) 1.222(3) 0.5031(11)
H3B H -0.1808(8) 0.594(3) 0.6199(11)
H4B H -0.0824(7) 0.638(3) 0.5865(10)
H5B H -0.3734(10) 0.703(4) 0.6615(13)
H6B H 0.1973(8) 0.241(3) 0.6426(11)
H7B H 0.1906(8) 0.876(3) 0.7491(11)
H8B H 0.2917(8) 0.960(3) 0.7281(12)
H9B H 0.4291(13) 0.940(5) 0.6700(17)
H10B H 0.2966(9) 0.324(3) 0.6167(12)
H11B H -0.2835(9) 0.741(4) 0.6184(12)
H12B H -0.3208(9) 1.176(4) 0.5399(13)
H13B H -0.4713(9) 0.697(4) 0.6982(13)
H14B H -0.5190(9) 1.309(4) 0.5841(12)
H15B H 0.0214(10) 1.238(4) 0.6370(14)
H16B H 0.0256(9) 1.438(4) 0.5865(13)
N1B N -0.09791(5) 0.9403(2) 0.52794(7)
N2B N -0.50238(6) 0.9999(3) 0.64415(11)
O2B O 0.38846(6) 0.9125(3) 0.68259(10)
O3B O 0.39423(6) 0.5740(3) 0.61582(11)
C21B C 0.09248(6) 0.6341(3) 0.75057(9)
O4B O 0.05006(6) 1.01265(18) 0.72342(7)
O5B O 0.04416(4) 0.77705(17) 0.60817(6)
O6B O 0.00669(5) 1.30224(19) 0.58669(7)
H17B H -0.4247(8) 1.321(3) 0.5391(11)
H18B H 0.1186(8) 0.707(3) 0.8041(11)
H19B H 0.0591(8) 0.541(3) 0.7670(10)
C1 C 1.14181(6) -0.1077(3) 0.49558(9)
C2 C 1.20114(7) -0.0963(3) 0.47876(10)
C3 C 1.21789(6) 0.0960(3) 0.43501(9)
C4 C 1.17229(7) 0.2679(3) 0.41070(11)
C5 C 1.11366(7) 0.2446(3) 0.42996(10)
C6 C 1.27963(7) 0.1193(3) 0.41260(11)
C7 C 1.32619(7) -0.0331(3) 0.42995(11)
C8 C 1.38669(7) -0.0155(3) 0.40416(11)
C9 C 1.40241(8) 0.1701(3) 0.35681(12)
C10 C 1.46013(8) 0.1714(4) 0.33461(13)
C11 C 1.48773(8) -0.1791(3) 0.40082(13)
C12 C 1.43104(8) -0.1927(3) 0.42640(13)
C13 C 0.81505(6) 0.4528(2) 0.30090(9)
C14 C 0.78800(6) 0.2375(3) 0.27597(10)
C15 C 0.72845(7) 0.1885(3) 0.28903(10)
C16 C 0.69601(6) 0.3488(3) 0.32790(10)
C17 C 0.72409(7) 0.5633(3) 0.35400(11)
C18 C 0.78317(7) 0.6145(3) 0.34115(11)
C19 C 0.63308(7) 0.2937(3) 0.34536(11)
O1 O 0.87218(4) 0.52424(17) 0.28934(7)
C20 C 0.93986(6) 0.1730(2) 0.31069(8)
H1 H 1.1299(8) -0.239(3) 0.5253(11)
H2 H 1.2298(8) -0.222(3) 0.4969(11)
H3 H 1.1808(8) 0.406(3) 0.3801(11)
H4 H 1.0824(7) 0.362(3) 0.4135(10)
H5 H 1.3734(10) 0.297(4) 0.3385(13)
H6 H 0.8027(8) 0.759(3) 0.3574(11)
H7 H 0.8094(8) 0.124(3) 0.2509(11)
H8 H 0.7083(8) 0.040(3) 0.2719(12)
H9 H 0.5709(13) 0.060(5) 0.3300(17)
H10 H 0.7034(9) 0.676(3) 0.3833(12)
H11 H 1.2835(9) 0.259(4) 0.3816(12)
H12 H 1.3208(9) -0.176(4) 0.4601(13)
H13 H 1.4713(9) 0.303(4) 0.3018(13)
H14 H 1.5190(9) -0.309(4) 0.4159(12)
H15 H 0.9786(10) -0.238(4) 0.3630(14)
H16 H 0.9744(9) -0.438(4) 0.4135(13)
Mn1 Mn 1.0000 0.0000 0.5000
N1 N 1.09791(5) 0.0597(2) 0.47206(7)
N2 N 1.50238(6) 0.0001(3) 0.35585(11)
O2 O 0.61154(6) 0.0875(3) 0.31741(10)
O3 O 0.60577(6) 0.4260(3) 0.38418(11)
C21 C 0.90752(6) 0.3659(3) 0.24943(9)
O4 O 0.94994(6) -0.01265(18) 0.27658(7)
O5 O 0.95584(4) 0.22295(17) 0.39183(6)
O6 O 0.99331(5) -0.30224(19) 0.41331(7)
H17 H 1.4247(8) -0.321(3) 0.4609(11)
H18 H 0.8814(8) 0.293(3) 0.1959(11)
H19 H 0.9409(8) 0.459(3) 0.2330(10)
C1B C 0.85819(6) 0.1077(3) 0.50442(9)
C2B C 0.79886(7) 0.0963(3) 0.52124(10)
C3B C 0.78211(6) -0.0960(3) 0.56499(9)
C4B C 0.82771(7) -0.2679(3) 0.58930(11)
C5B C 0.88634(7) -0.2446(3) 0.57004(10)
C6B C 0.72037(7) -0.1193(3) 0.58740(11)
C7B C 0.67381(7) 0.0331(3) 0.57005(11)
C8B C 0.61331(7) 0.0155(3) 0.59584(11)
C9B C 0.59759(8) -0.1701(3) 0.64319(12)
C10B C 0.53987(8) -0.1714(4) 0.66539(13)
C11B C 0.51227(8) 0.1791(3) 0.59918(13)
C12B C 0.56896(8) 0.1927(3) 0.57360(13)
C13B C 1.18495(6) -0.4528(2) 0.69910(9)
C14B C 1.21200(6) -0.2375(3) 0.72403(10)
C15B C 1.27155(7) -0.1885(3) 0.71097(10)
C16B C 1.30399(6) -0.3488(3) 0.67210(10)
C17B C 1.27591(7) -0.5633(3) 0.64600(11)
C18B C 1.21683(7) -0.6145(3) 0.65885(11)
C19B C 1.36692(7) -0.2937(3) 0.65464(11)
O1B O 1.12782(4) -0.52424(17) 0.71066(7)
C20B C 1.06014(6) -0.1730(2) 0.68931(8)
H1B H 0.8701(8) 0.239(3) 0.4747(11)
H2B H 0.7702(8) 0.222(3) 0.5031(11)
H3B H 0.8192(8) -0.406(3) 0.6199(11)
H4B H 0.9176(7) -0.362(3) 0.5865(10)
H5B H 0.6266(10) -0.297(4) 0.6615(13)
H6B H 1.1973(8) -0.759(3) 0.6426(11)
H7B H 1.1906(8) -0.124(3) 0.7491(11)
H8B H 1.2917(8) -0.040(3) 0.7281(12)
H9B H 1.4291(13) -0.060(5) 0.6700(17)
H10B H 1.2966(9) -0.676(3) 0.6167(12)
H11B H 0.7165(9) -0.259(4) 0.6184(12)
H12B H 0.6792(9) 0.176(4) 0.5399(13)
H13B H 0.5287(9) -0.303(4) 0.6982(13)
H14B H 0.4810(9) 0.309(4) 0.5841(12)
H15B H 1.0214(10) 0.238(4) 0.6370(14)
H16B H 1.0256(9) 0.438(4) 0.5865(13)
N1B N 0.90209(5) -0.0597(2) 0.52794(7)
N2B N 0.49762(6) -0.0001(3) 0.64415(11)
O2B O 1.38846(6) -0.0875(3) 0.68259(10)
O3B O 1.39423(6) -0.4260(3) 0.61582(11)
C21B C 1.09248(6) -0.3659(3) 0.75057(9)
O4B O 1.05006(6) 0.01265(18) 0.72342(7)
O5B O 1.04416(4) -0.22295(17) 0.60817(6)
O6B O 1.00669(5) 0.30224(19) 0.58669(7)
H17B H 0.5753(8) 0.321(3) 0.5391(11)
H18B H 1.1186(8) -0.293(3) 0.8041(11)
H19B H 1.0591(8) -0.459(3) 0.7670(10)
C1 C 1.14181(6) 0.8923(3) 0.49558(9)
C2 C 1.20114(7) 0.9037(3) 0.47876(10)
C3 C 1.21789(6) 1.0960(3) 0.43501(9)
C4 C 1.17229(7) 1.2679(3) 0.41070(11)
C5 C 1.11366(7) 1.2446(3) 0.42996(10)
C6 C 1.27963(7) 1.1193(3) 0.41260(11)
C7 C 1.32619(7) 0.9669(3) 0.42995(11)
C8 C 1.38669(7) 0.9845(3) 0.40416(11)
C9 C 1.40241(8) 1.1701(3) 0.35681(12)
C10 C 1.46013(8) 1.1714(4) 0.33461(13)
C11 C 1.48773(8) 0.8209(3) 0.40082(13)
C12 C 1.43104(8) 0.8073(3) 0.42640(13)
C13 C 0.81505(6) 1.4528(2) 0.30090(9)
C14 C 0.78800(6) 1.2375(3) 0.27597(10)
C15 C 0.72845(7) 1.1885(3) 0.28903(10)
C16 C 0.69601(6) 1.3488(3) 0.32790(10)
C17 C 0.72409(7) 1.5633(3) 0.35400(11)
C18 C 0.78317(7) 1.6145(3) 0.34115(11)
C19 C 0.63308(7) 1.2937(3) 0.34536(11)
O1 O 0.87218(4) 1.52424(17) 0.28934(7)
C20 C 0.93986(6) 1.1730(2) 0.31069(8)
H1 H 1.1299(8) 0.761(3) 0.5253(11)
H2 H 1.2298(8) 0.778(3) 0.4969(11)
H3 H 1.1808(8) 1.406(3) 0.3801(11)
H4 H 1.0824(7) 1.362(3) 0.4135(10)
H5 H 1.3734(10) 1.297(4) 0.3385(13)
H6 H 0.8027(8) 1.759(3) 0.3574(11)
H7 H 0.8094(8) 1.124(3) 0.2509(11)
H8 H 0.7083(8) 1.040(3) 0.2719(12)
H9 H 0.5709(13) 1.060(5) 0.3300(17)
H10 H 0.7034(9) 1.676(3) 0.3833(12)
H11 H 1.2835(9) 1.259(4) 0.3816(12)
H12 H 1.3208(9) 0.824(4) 0.4601(13)
H13 H 1.4713(9) 1.303(4) 0.3018(13)
H14 H 1.5190(9) 0.691(4) 0.4159(12)
H15 H 0.9786(10) 0.762(4) 0.3630(14)
H16 H 0.9744(9) 0.562(4) 0.4135(13)
Mn1 Mn 1.0000 1.0000 0.5000
N1 N 1.09791(5) 1.0597(2) 0.47206(7)
N2 N 1.50238(6) 1.0001(3) 0.35585(11)
O2 O 0.61154(6) 1.0875(3) 0.31741(10)
O3 O 0.60577(6) 1.4260(3) 0.38418(11)
C21 C 0.90752(6) 1.3659(3) 0.24943(9)
O4 O 0.94994(6) 0.98735(18) 0.27658(7)
O5 O 0.95584(4) 1.22295(17) 0.39183(6)
O6 O 0.99331(5) 0.69776(19) 0.41331(7)
H17 H 1.4247(8) 0.679(3) 0.4609(11)
H18 H 0.8814(8) 1.293(3) 0.1959(11)
H19 H 0.9409(8) 1.459(3) 0.2330(10)
C1B C 0.85819(6) 1.1077(3) 0.50442(9)
C2B C 0.79886(7) 1.0963(3) 0.52124(10)
C3B C 0.78211(6) 0.9040(3) 0.56499(9)
C4B C 0.82771(7) 0.7321(3) 0.58930(11)
C5B C 0.88634(7) 0.7554(3) 0.57004(10)
C6B C 0.72037(7) 0.8807(3) 0.58740(11)
C7B C 0.67381(7) 1.0331(3) 0.57005(11)
C8B C 0.61331(7) 1.0155(3) 0.59584(11)
C9B C 0.59759(8) 0.8299(3) 0.64319(12)
C10B C 0.53987(8) 0.8286(4) 0.66539(13)
C11B C 0.51227(8) 1.1791(3) 0.59918(13)
C12B C 0.56896(8) 1.1927(3) 0.57360(13)
C13B C 1.18495(6) 0.5472(2) 0.69910(9)
C14B C 1.21200(6) 0.7625(3) 0.72403(10)
C15B C 1.27155(7) 0.8115(3) 0.71097(10)
C16B C 1.30399(6) 0.6512(3) 0.67210(10)
C17B C 1.27591(7) 0.4367(3) 0.64600(11)
C18B C 1.21683(7) 0.3855(3) 0.65885(11)
C19B C 1.36692(7) 0.7063(3) 0.65464(11)
O1B O 1.12782(4) 0.47576(17) 0.71066(7)
C20B C 1.06014(6) 0.8270(2) 0.68931(8)
H1B H 0.8701(8) 1.239(3) 0.4747(11)
H2B H 0.7702(8) 1.222(3) 0.5031(11)
H3B H 0.8192(8) 0.594(3) 0.6199(11)
H4B H 0.9176(7) 0.638(3) 0.5865(10)
H5B H 0.6266(10) 0.703(4) 0.6615(13)
H6B H 1.1973(8) 0.241(3) 0.6426(11)
H7B H 1.1906(8) 0.876(3) 0.7491(11)
H8B H 1.2917(8) 0.960(3) 0.7281(12)
H9B H 1.4291(13) 0.940(5) 0.6700(17)
H10B H 1.2966(9) 0.324(3) 0.6167(12)
H11B H 0.7165(9) 0.741(4) 0.6184(12)
H12B H 0.6792(9) 1.176(4) 0.5399(13)
H13B H 0.5287(9) 0.697(4) 0.6982(13)
H14B H 0.4810(9) 1.309(4) 0.5841(12)
H15B H 1.0214(10) 1.238(4) 0.6370(14)
H16B H 1.0256(9) 1.438(4) 0.5865(13)
N1B N 0.90209(5) 0.9403(2) 0.52794(7)
N2B N 0.49762(6) 0.9999(3) 0.64415(11)
O2B O 1.38846(6) 0.9125(3) 0.68259(10)
O3B O 1.39423(6) 0.5740(3) 0.61582(11)
C21B C 1.09248(6) 0.6341(3) 0.75057(9)
O4B O 1.05006(6) 1.01265(18) 0.72342(7)
O5B O 1.04416(4) 0.77705(17) 0.60817(6)
O6B O 1.00669(5) 1.30224(19) 0.58669(7)
H17B H 0.5753(8) 1.321(3) 0.5391(11)
H18B H 1.1186(8) 0.707(3) 0.8041(11)
H19B H 1.0591(8) 0.541(3) 0.7670(10)
C1 C -0.14181(6) 0.3923(3) 0.00442(9)
C2 C -0.20114(7) 0.4037(3) 0.02124(10)
C3 C -0.21789(6) 0.5960(3) 0.06499(9)
C4 C -0.17229(7) 0.7679(3) 0.08930(11)
C5 C -0.11366(7) 0.7446(3) 0.07004(10)
C6 C -0.27963(7) 0.6193(3) 0.08740(11)
C7 C -0.32619(7) 0.4669(3) 0.07005(11)
C8 C -0.38669(7) 0.4845(3) 0.09584(11)
C9 C -0.40241(8) 0.6701(3) 0.14319(12)
C10 C -0.46013(8) 0.6714(4) 0.16539(13)
C11 C -0.48773(8) 0.3209(3) 0.09918(13)
C12 C -0.43104(8) 0.3073(3) 0.07360(13)
C13 C 0.18495(6) 0.9528(2) 0.19910(9)
C14 C 0.21200(6) 0.7375(3) 0.22403(10)
C15 C 0.27155(7) 0.6885(3) 0.21097(10)
C16 C 0.30399(6) 0.8488(3) 0.17210(10)
C17 C 0.27591(7) 1.0633(3) 0.14600(11)
C18 C 0.21683(7) 1.1145(3) 0.15885(11)
C19 C 0.36692(7) 0.7937(3) 0.15464(11)
O1 O 0.12782(4) 1.02424(17) 0.21066(7)
C20 C 0.06014(6) 0.6730(2) 0.18931(8)
H1 H -0.1299(8) 0.261(3) -0.0253(11)
H2 H -0.2298(8) 0.278(3) 0.0031(11)
H3 H -0.1808(8) 0.906(3) 0.1199(11)
H4 H -0.0824(7) 0.862(3) 0.0865(10)
H5 H -0.3734(10) 0.797(4) 0.1615(13)
H6 H 0.1973(8) 1.259(3) 0.1426(11)
H7 H 0.1906(8) 0.624(3) 0.2491(11)
H8 H 0.2917(8) 0.540(3) 0.2281(12)
H9 H 0.4291(13) 0.560(5) 0.1700(17)
H10 H 0.2966(9) 1.176(3) 0.1167(12)
H11 H -0.2835(9) 0.759(4) 0.1184(12)
H12 H -0.3208(9) 0.324(4) 0.0399(13)
H13 H -0.4713(9) 0.803(4) 0.1982(13)
H14 H -0.5190(9) 0.191(4) 0.0841(12)
H15 H 0.0214(10) 0.262(4) 0.1370(14)
H16 H 0.0256(9) 0.062(4) 0.0865(13)
Mn1 Mn 0.0000 0.5000 0.0000
N1 N -0.09791(5) 0.5597(2) 0.02794(7)
N2 N -0.50238(6) 0.5001(3) 0.14415(11)
O2 O 0.38846(6) 0.5875(3) 0.18259(10)
O3 O 0.39423(6) 0.9260(3) 0.11582(11)
C21 C 0.09248(6) 0.8659(3) 0.25057(9)
O4 O 0.05006(6) 0.48735(18) 0.22342(7)
O5 O 0.04416(4) 0.72295(17) 0.10817(6)
O6 O 0.00669(5) 0.19776(19) 0.08669(7)
H17 H -0.4247(8) 0.179(3) 0.0391(11)
H18 H 0.1186(8) 0.793(3) 0.3041(11)
H19 H 0.0591(8) 0.959(3) 0.2670(10)
C1B C 0.14181(6) 0.6077(3) -0.00442(9)
C2B C 0.20114(7) 0.5963(3) -0.02124(10)
C3B C 0.21789(6) 0.4040(3) -0.06499(9)
C4B C 0.17229(7) 0.2321(3) -0.08930(11)
C5B C 0.11366(7) 0.2554(3) -0.07004(10)
C6B C 0.27963(7) 0.3807(3) -0.08740(11)
C7B C 0.32619(7) 0.5331(3) -0.07005(11)
C8B C 0.38669(7) 0.5155(3) -0.09584(11)
C9B C 0.40241(8) 0.3299(3) -0.14319(12)
C10B C 0.46013(8) 0.3286(4) -0.16539(13)
C11B C 0.48773(8) 0.6791(3) -0.09918(13)
C12B C 0.43104(8) 0.6927(3) -0.07360(13)
C13B C -0.18495(6) 0.0472(2) -0.19910(9)
C14B C -0.21200(6) 0.2625(3) -0.22403(10)
C15B C -0.27155(7) 0.3115(3) -0.21097(10)
C16B C -0.30399(6) 0.1512(3) -0.17210(10)
C17B C -0.27591(7) -0.0633(3) -0.14600(11)
C18B C -0.21683(7) -0.1145(3) -0.15885(11)
C19B C -0.36692(7) 0.2063(3) -0.15464(11)
O1B O -0.12782(4) -0.02424(17) -0.21066(7)
C20B C -0.06014(6) 0.3270(2) -0.18931(8)
H1B H 0.1299(8) 0.739(3) 0.0253(11)
H2B H 0.2298(8) 0.722(3) -0.0031(11)
H3B H 0.1808(8) 0.094(3) -0.1199(11)
H4B H 0.0824(7) 0.138(3) -0.0865(10)
H5B H 0.3734(10) 0.203(4) -0.1615(13)
H6B H -0.1973(8) -0.259(3) -0.1426(11)
H7B H -0.1906(8) 0.376(3) -0.2491(11)
H8B H -0.2917(8) 0.460(3) -0.2281(12)
H9B H -0.4291(13) 0.440(5) -0.1700(17)
H10B H -0.2966(9) -0.176(3) -0.1167(12)
H11B H 0.2835(9) 0.241(4) -0.1184(12)
H12B H 0.3208(9) 0.676(4) -0.0399(13)
H13B H 0.4713(9) 0.197(4) -0.1982(13)
H14B H 0.5190(9) 0.809(4) -0.0841(12)
H15B H -0.0214(10) 0.738(4) -0.1370(14)
H16B H -0.0256(9) 0.938(4) -0.0865(13)
N1B N 0.09791(5) 0.4403(2) -0.02794(7)
N2B N 0.50238(6) 0.4999(3) -0.14415(11)
O2B O -0.38846(6) 0.4125(3) -0.18259(10)
O3B O -0.39423(6) 0.0740(3) -0.11582(11)
C21B C -0.09248(6) 0.1341(3) -0.25057(9)
O4B O -0.05006(6) 0.51265(18) -0.22342(7)
O5B O -0.04416(4) 0.27705(17) -0.10817(6)
O6B O -0.00669(5) 0.80224(19) -0.08669(7)
H17B H 0.4247(8) 0.821(3) -0.0391(11)
H18B H -0.1186(8) 0.207(3) -0.3041(11)
H19B H -0.0591(8) 0.041(3) -0.2670(10)
C1 C -0.14181(6) 0.3923(3) 1.00442(9)
C2 C -0.20114(7) 0.4037(3) 1.02124(10)
C3 C -0.21789(6) 0.5960(3) 1.06499(9)
C4 C -0.17229(7) 0.7679(3) 1.08930(11)
C5 C -0.11366(7) 0.7446(3) 1.07004(10)
C6 C -0.27963(7) 0.6193(3) 1.08740(11)
C7 C -0.32619(7) 0.4669(3) 1.07005(11)
C8 C -0.38669(7) 0.4845(3) 1.09584(11)
C9 C -0.40241(8) 0.6701(3) 1.14319(12)
C10 C -0.46013(8) 0.6714(4) 1.16539(13)
C11 C -0.48773(8) 0.3209(3) 1.09918(13)
C12 C -0.43104(8) 0.3073(3) 1.07360(13)
C13 C 0.18495(6) 0.9528(2) 1.19910(9)
C14 C 0.21200(6) 0.7375(3) 1.22403(10)
C15 C 0.27155(7) 0.6885(3) 1.21097(10)
C16 C 0.30399(6) 0.8488(3) 1.17210(10)
C17 C 0.27591(7) 1.0633(3) 1.14600(11)
C18 C 0.21683(7) 1.1145(3) 1.15885(11)
C19 C 0.36692(7) 0.7937(3) 1.15464(11)
O1 O 0.12782(4) 1.02424(17) 1.21066(7)
C20 C 0.06014(6) 0.6730(2) 1.18931(8)
H1 H -0.1299(8) 0.261(3) 0.9747(11)
H2 H -0.2298(8) 0.278(3) 1.0031(11)
H3 H -0.1808(8) 0.906(3) 1.1199(11)
H4 H -0.0824(7) 0.862(3) 1.0865(10)
H5 H -0.3734(10) 0.797(4) 1.1615(13)
H6 H 0.1973(8) 1.259(3) 1.1426(11)
H7 H 0.1906(8) 0.624(3) 1.2491(11)
H8 H 0.2917(8) 0.540(3) 1.2281(12)
H9 H 0.4291(13) 0.560(5) 1.1700(17)
H10 H 0.2966(9) 1.176(3) 1.1167(12)
H11 H -0.2835(9) 0.759(4) 1.1184(12)
H12 H -0.3208(9) 0.324(4) 1.0399(13)
H13 H -0.4713(9) 0.803(4) 1.1982(13)
H14 H -0.5190(9) 0.191(4) 1.0841(12)
H15 H 0.0214(10) 0.262(4) 1.1370(14)
H16 H 0.0256(9) 0.062(4) 1.0865(13)
Mn1 Mn 0.0000 0.5000 1.0000
N1 N -0.09791(5) 0.5597(2) 1.02794(7)
N2 N -0.50238(6) 0.5001(3) 1.14415(11)
O2 O 0.38846(6) 0.5875(3) 1.18259(10)
O3 O 0.39423(6) 0.9260(3) 1.11582(11)
C21 C 0.09248(6) 0.8659(3) 1.25057(9)
O4 O 0.05006(6) 0.48735(18) 1.22342(7)
O5 O 0.04416(4) 0.72295(17) 1.10817(6)
O6 O 0.00669(5) 0.19776(19) 1.08669(7)
H17 H -0.4247(8) 0.179(3) 1.0391(11)
H18 H 0.1186(8) 0.793(3) 1.3041(11)
H19 H 0.0591(8) 0.959(3) 1.2670(10)
C1B C 0.14181(6) 0.6077(3) 0.99558(9)
C2B C 0.20114(7) 0.5963(3) 0.97876(10)
C3B C 0.21789(6) 0.4040(3) 0.93501(9)
C4B C 0.17229(7) 0.2321(3) 0.91070(11)
C5B C 0.11366(7) 0.2554(3) 0.92996(10)
C6B C 0.27963(7) 0.3807(3) 0.91260(11)
C7B C 0.32619(7) 0.5331(3) 0.92995(11)
C8B C 0.38669(7) 0.5155(3) 0.90416(11)
C9B C 0.40241(8) 0.3299(3) 0.85681(12)
C10B C 0.46013(8) 0.3286(4) 0.83461(13)
C11B C 0.48773(8) 0.6791(3) 0.90082(13)
C12B C 0.43104(8) 0.6927(3) 0.92640(13)
C13B C -0.18495(6) 0.0472(2) 0.80090(9)
C14B C -0.21200(6) 0.2625(3) 0.77597(10)
C15B C -0.27155(7) 0.3115(3) 0.78903(10)
C16B C -0.30399(6) 0.1512(3) 0.82790(10)
C17B C -0.27591(7) -0.0633(3) 0.85400(11)
C18B C -0.21683(7) -0.1145(3) 0.84115(11)
C19B C -0.36692(7) 0.2063(3) 0.84536(11)
O1B O -0.12782(4) -0.02424(17) 0.78934(7)
C20B C -0.06014(6) 0.3270(2) 0.81069(8)
H1B H 0.1299(8) 0.739(3) 1.0253(11)
H2B H 0.2298(8) 0.722(3) 0.9969(11)
H3B H 0.1808(8) 0.094(3) 0.8801(11)
H4B H 0.0824(7) 0.138(3) 0.9135(10)
H5B H 0.3734(10) 0.203(4) 0.8385(13)
H6B H -0.1973(8) -0.259(3) 0.8574(11)
H7B H -0.1906(8) 0.376(3) 0.7509(11)
H8B H -0.2917(8) 0.460(3) 0.7719(12)
H9B H -0.4291(13) 0.440(5) 0.8300(17)
H10B H -0.2966(9) -0.176(3) 0.8833(12)
H11B H 0.2835(9) 0.241(4) 0.8816(12)
H12B H 0.3208(9) 0.676(4) 0.9601(13)
H13B H 0.4713(9) 0.197(4) 0.8018(13)
H14B H 0.5190(9) 0.809(4) 0.9159(12)
H15B H -0.0214(10) 0.738(4) 0.8630(14)
H16B H -0.0256(9) 0.938(4) 0.9135(13)
N1B N 0.09791(5) 0.4403(2) 0.97206(7)
N2B N 0.50238(6) 0.4999(3) 0.85585(11)
O2B O -0.38846(6) 0.4125(3) 0.81741(10)
O3B O -0.39423(6) 0.0740(3) 0.88418(11)
C21B C -0.09248(6) 0.1341(3) 0.74943(9)
O4B O -0.05006(6) 0.51265(18) 0.77658(7)
O5B O -0.04416(4) 0.27705(17) 0.89183(6)
O6B O -0.00669(5) 0.80224(19) 0.91331(7)
H17B H 0.4247(8) 0.821(3) 0.9609(11)
H18B H -0.1186(8) 0.207(3) 0.6959(11)
H19B H -0.0591(8) 0.041(3) 0.7330(10)
C1 C 0.85819(6) 0.3923(3) 0.00442(9)
C2 C 0.79886(7) 0.4037(3) 0.02124(10)
C3 C 0.78211(6) 0.5960(3) 0.06499(9)
C4 C 0.82771(7) 0.7679(3) 0.08930(11)
C5 C 0.88634(7) 0.7446(3) 0.07004(10)
C6 C 0.72037(7) 0.6193(3) 0.08740(11)
C7 C 0.67381(7) 0.4669(3) 0.07005(11)
C8 C 0.61331(7) 0.4845(3) 0.09584(11)
C9 C 0.59759(8) 0.6701(3) 0.14319(12)
C10 C 0.53987(8) 0.6714(4) 0.16539(13)
C11 C 0.51227(8) 0.3209(3) 0.09918(13)
C12 C 0.56896(8) 0.3073(3) 0.07360(13)
C13 C 1.18495(6) 0.9528(2) 0.19910(9)
C14 C 1.21200(6) 0.7375(3) 0.22403(10)
C15 C 1.27155(7) 0.6885(3) 0.21097(10)
C16 C 1.30399(6) 0.8488(3) 0.17210(10)
C17 C 1.27591(7) 1.0633(3) 0.14600(11)
C18 C 1.21683(7) 1.1145(3) 0.15885(11)
C19 C 1.36692(7) 0.7937(3) 0.15464(11)
O1 O 1.12782(4) 1.02424(17) 0.21066(7)
C20 C 1.06014(6) 0.6730(2) 0.18931(8)
H1 H 0.8701(8) 0.261(3) -0.0253(11)
H2 H 0.7702(8) 0.278(3) 0.0031(11)
H3 H 0.8192(8) 0.906(3) 0.1199(11)
H4 H 0.9176(7) 0.862(3) 0.0865(10)
H5 H 0.6266(10) 0.797(4) 0.1615(13)
H6 H 1.1973(8) 1.259(3) 0.1426(11)
H7 H 1.1906(8) 0.624(3) 0.2491(11)
H8 H 1.2917(8) 0.540(3) 0.2281(12)
H9 H 1.4291(13) 0.560(5) 0.1700(17)
H10 H 1.2966(9) 1.176(3) 0.1167(12)
H11 H 0.7165(9) 0.759(4) 0.1184(12)
H12 H 0.6792(9) 0.324(4) 0.0399(13)
H13 H 0.5287(9) 0.803(4) 0.1982(13)
H14 H 0.4810(9) 0.191(4) 0.0841(12)
H15 H 1.0214(10) 0.262(4) 0.1370(14)
H16 H 1.0256(9) 0.062(4) 0.0865(13)
Mn1 Mn 1.0000 0.5000 0.0000
N1 N 0.90209(5) 0.5597(2) 0.02794(7)
N2 N 0.49762(6) 0.5001(3) 0.14415(11)
O2 O 1.38846(6) 0.5875(3) 0.18259(10)
O3 O 1.39423(6) 0.9260(3) 0.11582(11)
C21 C 1.09248(6) 0.8659(3) 0.25057(9)
O4 O 1.05006(6) 0.48735(18) 0.22342(7)
O5 O 1.04416(4) 0.72295(17) 0.10817(6)
O6 O 1.00669(5) 0.19776(19) 0.08669(7)
H17 H 0.5753(8) 0.179(3) 0.0391(11)
H18 H 1.1186(8) 0.793(3) 0.3041(11)
H19 H 1.0591(8) 0.959(3) 0.2670(10)
C1B C 1.14181(6) 0.6077(3) -0.00442(9)
C2B C 1.20114(7) 0.5963(3) -0.02124(10)
C3B C 1.21789(6) 0.4040(3) -0.06499(9)
C4B C 1.17229(7) 0.2321(3) -0.08930(11)
C5B C 1.11366(7) 0.2554(3) -0.07004(10)
C6B C 1.27963(7) 0.3807(3) -0.08740(11)
C7B C 1.32619(7) 0.5331(3) -0.07005(11)
C8B C 1.38669(7) 0.5155(3) -0.09584(11)
C9B C 1.40241(8) 0.3299(3) -0.14319(12)
C10B C 1.46013(8) 0.3286(4) -0.16539(13)
C11B C 1.48773(8) 0.6791(3) -0.09918(13)
C12B C 1.43104(8) 0.6927(3) -0.07360(13)
C13B C 0.81505(6) 0.0472(2) -0.19910(9)
C14B C 0.78800(6) 0.2625(3) -0.22403(10)
C15B C 0.72845(7) 0.3115(3) -0.21097(10)
C16B C 0.69601(6) 0.1512(3) -0.17210(10)
C17B C 0.72409(7) -0.0633(3) -0.14600(11)
C18B C 0.78317(7) -0.1145(3) -0.15885(11)
C19B C 0.63308(7) 0.2063(3) -0.15464(11)
O1B O 0.87218(4) -0.02424(17) -0.21066(7)
C20B C 0.93986(6) 0.3270(2) -0.18931(8)
H1B H 1.1299(8) 0.739(3) 0.0253(11)
H2B H 1.2298(8) 0.722(3) -0.0031(11)
H3B H 1.1808(8) 0.094(3) -0.1199(11)
H4B H 1.0824(7) 0.138(3) -0.0865(10)
H5B H 1.3734(10) 0.203(4) -0.1615(13)
H6B H 0.8027(8) -0.259(3) -0.1426(11)
H7B H 0.8094(8) 0.376(3) -0.2491(11)
H8B H 0.7083(8) 0.460(3) -0.2281(12)
H9B H 0.5709(13) 0.440(5) -0.1700(17)
H10B H 0.7034(9) -0.176(3) -0.1167(12)
H11B H 1.2835(9) 0.241(4) -0.1184(12)
H12B H 1.3208(9) 0.676(4) -0.0399(13)
H13B H 1.4713(9) 0.197(4) -0.1982(13)
H14B H 1.5190(9) 0.809(4) -0.0841(12)
H15B H 0.9786(10) 0.738(4) -0.1370(14)
H16B H 0.9744(9) 0.938(4) -0.0865(13)
N1B N 1.09791(5) 0.4403(2) -0.02794(7)
N2B N 1.50238(6) 0.4999(3) -0.14415(11)
O2B O 0.61154(6) 0.4125(3) -0.18259(10)
O3B O 0.60577(6) 0.0740(3) -0.11582(11)
C21B C 0.90752(6) 0.1341(3) -0.25057(9)
O4B O 0.94994(6) 0.51265(18) -0.22342(7)
O5B O 0.95584(4) 0.27705(17) -0.10817(6)
O6B O 0.99331(5) 0.80224(19) -0.08669(7)
H17B H 1.4247(8) 0.821(3) -0.0391(11)
H18B H 0.8814(8) 0.207(3) -0.3041(11)
H19B H 0.9409(8) 0.041(3) -0.2670(10)
C1 C 0.85819(6) 0.3923(3) 1.00442(9)
C2 C 0.79886(7) 0.4037(3) 1.02124(10)
C3 C 0.78211(6) 0.5960(3) 1.06499(9)
C4 C 0.82771(7) 0.7679(3) 1.08930(11)
C5 C 0.88634(7) 0.7446(3) 1.07004(10)
C6 C 0.72037(7) 0.6193(3) 1.08740(11)
C7 C 0.67381(7) 0.4669(3) 1.07005(11)
C8 C 0.61331(7) 0.4845(3) 1.09584(11)
C9 C 0.59759(8) 0.6701(3) 1.14319(12)
C10 C 0.53987(8) 0.6714(4) 1.16539(13)
C11 C 0.51227(8) 0.3209(3) 1.09918(13)
C12 C 0.56896(8) 0.3073(3) 1.07360(13)
C13 C 1.18495(6) 0.9528(2) 1.19910(9)
C14 C 1.21200(6) 0.7375(3) 1.22403(10)
C15 C 1.27155(7) 0.6885(3) 1.21097(10)
C16 C 1.30399(6) 0.8488(3) 1.17210(10)
C17 C 1.27591(7) 1.0633(3) 1.14600(11)
C18 C 1.21683(7) 1.1145(3) 1.15885(11)
C19 C 1.36692(7) 0.7937(3) 1.15464(11)
O1 O 1.12782(4) 1.02424(17) 1.21066(7)
C20 C 1.06014(6) 0.6730(2) 1.18931(8)
H1 H 0.8701(8) 0.261(3) 0.9747(11)
H2 H 0.7702(8) 0.278(3) 1.0031(11)
H3 H 0.8192(8) 0.906(3) 1.1199(11)
H4 H 0.9176(7) 0.862(3) 1.0865(10)
H5 H 0.6266(10) 0.797(4) 1.1615(13)
H6 H 1.1973(8) 1.259(3) 1.1426(11)
H7 H 1.1906(8) 0.624(3) 1.2491(11)
H8 H 1.2917(8) 0.540(3) 1.2281(12)
H9 H 1.4291(13) 0.560(5) 1.1700(17)
H10 H 1.2966(9) 1.176(3) 1.1167(12)
H11 H 0.7165(9) 0.759(4) 1.1184(12)
H12 H 0.6792(9) 0.324(4) 1.0399(13)
H13 H 0.5287(9) 0.803(4) 1.1982(13)
H14 H 0.4810(9) 0.191(4) 1.0841(12)
H15 H 1.0214(10) 0.262(4) 1.1370(14)
H16 H 1.0256(9) 0.062(4) 1.0865(13)
Mn1 Mn 1.0000 0.5000 1.0000
N1 N 0.90209(5) 0.5597(2) 1.02794(7)
N2 N 0.49762(6) 0.5001(3) 1.14415(11)
O2 O 1.38846(6) 0.5875(3) 1.18259(10)
O3 O 1.39423(6) 0.9260(3) 1.11582(11)
C21 C 1.09248(6) 0.8659(3) 1.25057(9)
O4 O 1.05006(6) 0.48735(18) 1.22342(7)
O5 O 1.04416(4) 0.72295(17) 1.10817(6)
O6 O 1.00669(5) 0.19776(19) 1.08669(7)
H17 H 0.5753(8) 0.179(3) 1.0391(11)
H18 H 1.1186(8) 0.793(3) 1.3041(11)
H19 H 1.0591(8) 0.959(3) 1.2670(10)
C1B C 1.14181(6) 0.6077(3) 0.99558(9)
C2B C 1.20114(7) 0.5963(3) 0.97876(10)
C3B C 1.21789(6) 0.4040(3) 0.93501(9)
C4B C 1.17229(7) 0.2321(3) 0.91070(11)
C5B C 1.11366(7) 0.2554(3) 0.92996(10)
C6B C 1.27963(7) 0.3807(3) 0.91260(11)
C7B C 1.32619(7) 0.5331(3) 0.92995(11)
C8B C 1.38669(7) 0.5155(3) 0.90416(11)
C9B C 1.40241(8) 0.3299(3) 0.85681(12)
C10B C 1.46013(8) 0.3286(4) 0.83461(13)
C11B C 1.48773(8) 0.6791(3) 0.90082(13)
C12B C 1.43104(8) 0.6927(3) 0.92640(13)
C13B C 0.81505(6) 0.0472(2) 0.80090(9)
C14B C 0.78800(6) 0.2625(3) 0.77597(10)
C15B C 0.72845(7) 0.3115(3) 0.78903(10)
C16B C 0.69601(6) 0.1512(3) 0.82790(10)
C17B C 0.72409(7) -0.0633(3) 0.85400(11)
C18B C 0.78317(7) -0.1145(3) 0.84115(11)
C19B C 0.63308(7) 0.2063(3) 0.84536(11)
O1B O 0.87218(4) -0.02424(17) 0.78934(7)
C20B C 0.93986(6) 0.3270(2) 0.81069(8)
H1B H 1.1299(8) 0.739(3) 1.0253(11)
H2B H 1.2298(8) 0.722(3) 0.9969(11)
H3B H 1.1808(8) 0.094(3) 0.8801(11)
H4B H 1.0824(7) 0.138(3) 0.9135(10)
H5B H 1.3734(10) 0.203(4) 0.8385(13)
H6B H 0.8027(8) -0.259(3) 0.8574(11)
H7B H 0.8094(8) 0.376(3) 0.7509(11)
H8B H 0.7083(8) 0.460(3) 0.7719(12)
H9B H 0.5709(13) 0.440(5) 0.8300(17)
H10B H 0.7034(9) -0.176(3) 0.8833(12)
H11B H 1.2835(9) 0.241(4) 0.8816(12)
H12B H 1.3208(9) 0.676(4) 0.9601(13)
H13B H 1.4713(9) 0.197(4) 0.8018(13)
H14B H 1.5190(9) 0.809(4) 0.9159(12)
H15B H 0.9786(10) 0.738(4) 0.8630(14)
H16B H 0.9744(9) 0.938(4) 0.9135(13)
N1B N 1.09791(5) 0.4403(2) 0.97206(7)
N2B N 1.50238(6) 0.4999(3) 0.85585(11)
O2B O 0.61154(6) 0.4125(3) 0.81741(10)
O3B O 0.60577(6) 0.0740(3) 0.88418(11)
C21B C 0.90752(6) 0.1341(3) 0.74943(9)
O4B O 0.94994(6) 0.51265(18) 0.77658(7)
O5B O 0.95584(4) 0.27705(17) 0.89183(6)
O6B O 0.99331(5) 0.80224(19) 0.91331(7)
H17B H 1.4247(8) 0.821(3) 0.9609(11)
H18B H 0.8814(8) 0.207(3) 0.6959(11)
H19B H 0.9409(8) 0.041(3) 0.7330(10)

#END
