
#######################################################################
#
#                 Cambridge Crystallographic Data Centre
#                                CCDC 
#
#######################################################################
#
# If this CIF has been generated from an entry in the Cambridge 
# Structural Database, then it will include bibliographic, chemical, 
# crystal, experimental, refinement or atomic coordinate data resulting 
# from the CCDC's data processing and validation procedures.
#
#######################################################################

data_ABUSOH
_symmetry_cell_setting           triclinic
_symmetry_space_group_name_H-M   'P -1'
_symmetry_Int_Tables_number      2
_space_group_name_Hall           '-P 1'
loop_
_symmetry_equiv_pos_site_id
_symmetry_equiv_pos_as_xyz
1 x,y,z
2 -x,-y,-z
_cell_length_a                   10.102(10)
_cell_length_b                   10.247(10)
_cell_length_c                   10.715(10)
_cell_angle_alpha                67.098(12)
_cell_angle_beta                 63.868(13)
_cell_angle_gamma                77.085(13)
_cell_volume                     915.47
loop_
_atom_site_label
_atom_site_type_symbol
_atom_site_fract_x
_atom_site_fract_y
_atom_site_fract_z
C1 C 0.1655(6) 0.8454(5) -0.0701(5)
C2 C 0.2326(6) 0.8783(5) -0.2231(6)
H1 H 0.3341 0.8875 -0.2715
C3 C 0.1502(7) 0.8969(5) -0.3018(6)
H2 H 0.1956 0.9191 -0.4036
C4 C -0.0019(7) 0.8827(5) -0.2300(7)
H3 H -0.0570 0.8960 -0.2848
C5 C -0.0712(6) 0.8496(5) -0.0803(6)
H4 H -0.1725 0.8394 -0.0331
C6 C 0.0135(6) 0.8312(5) 0.0015(6)
C7 C 0.0268(5) 0.7760(5) 0.2238(5)
C8 C 0.1830(5) 0.7933(5) 0.1510(5)
C9 C 0.2755(5) 0.7814(5) 0.2314(5)
C10 C 0.2704(5) 0.6708(5) 0.3595(5)
H5 H 0.2060 0.5994 0.3993
C11 C 0.3603(5) 0.6660(5) 0.4285(5)
H6 H 0.3553 0.5905 0.5139
C12 C 0.4564(5) 0.7689(6) 0.3751(5)
C13 C 0.4618(5) 0.8779(6) 0.2479(6)
H7 H 0.5266 0.9489 0.2082
C14 C 0.3730(5) 0.8842(5) 0.1779(5)
H8 H 0.3789 0.9598 0.0923
C15 C 0.5555(5) 0.7611(6) 0.4502(5)
H9 H 0.5280 0.6854 0.5431
H10 H 0.5452 0.8493 0.4663
H11 H 0.6564 0.7436 0.3889
C16 C -0.0457(5) 0.7380(5) 0.3815(6)
C17 C -0.1035(5) 0.7073(5) 0.5121(6)
C18 C -0.1649(5) 0.6623(5) 0.6706(5)
C19 C -0.0809(5) 0.5731(5) 0.7477(6)
H12 H 0.0150 0.5426 0.6969
C20 C -0.1391(6) 0.5297(5) 0.8982(6)
H13 H -0.0819 0.4689 0.9486
C21 C -0.2800(7) 0.5737(6) 0.9771(6)
C22 C -0.3625(6) 0.6640(6) 0.9006(6)
H14 H -0.4576 0.6960 0.9516
C23 C -0.3057(6) 0.7074(5) 0.7497(6)
H15 H -0.3631 0.7683 0.6997
C24 C -0.3415(6) 0.5257(6) 1.1442(5)
H16 H -0.4219 0.4666 1.1845
H17 H -0.3761 0.6072 1.1759
H18 H -0.2652 0.4730 1.1777
N1 N 0.2505(4) 0.8284(4) 0.0060(4)
N2 N -0.0574(4) 0.7935(4) 0.1521(5)
C1 C 0.8345(6) 0.1546(5) 1.0701(5)
C2 C 0.7674(6) 0.1217(5) 1.2231(6)
H1 H 0.6659 0.1125 1.2715
C3 C 0.8498(7) 0.1031(5) 1.3018(6)
H2 H 0.8044 0.0809 1.4036
C4 C 1.0019(7) 0.1173(5) 1.2300(7)
H3 H 1.0570 0.1040 1.2848
C5 C 1.0712(6) 0.1504(5) 1.0803(6)
H4 H 1.1725 0.1606 1.0331
C6 C 0.9865(6) 0.1688(5) 0.9985(6)
C7 C 0.9732(5) 0.2240(5) 0.7762(5)
C8 C 0.8170(5) 0.2067(5) 0.8490(5)
C9 C 0.7245(5) 0.2186(5) 0.7686(5)
C10 C 0.7296(5) 0.3292(5) 0.6405(5)
H5 H 0.7940 0.4006 0.6007
C11 C 0.6397(5) 0.3340(5) 0.5715(5)
H6 H 0.6447 0.4095 0.4861
C12 C 0.5436(5) 0.2311(6) 0.6249(5)
C13 C 0.5382(5) 0.1221(6) 0.7521(6)
H7 H 0.4734 0.0511 0.7918
C14 C 0.6270(5) 0.1158(5) 0.8221(5)
H8 H 0.6211 0.0402 0.9077
C15 C 0.4445(5) 0.2389(6) 0.5498(5)
H9 H 0.4720 0.3146 0.4569
H10 H 0.4548 0.1507 0.5337
H11 H 0.3436 0.2564 0.6111
C16 C 1.0457(5) 0.2620(5) 0.6185(6)
C17 C 1.1035(5) 0.2927(5) 0.4879(6)
C18 C 1.1649(5) 0.3377(5) 0.3294(5)
C19 C 1.0809(5) 0.4269(5) 0.2523(6)
H12 H 0.9850 0.4574 0.3031
C20 C 1.1391(6) 0.4703(5) 0.1018(6)
H13 H 1.0819 0.5311 0.0514
C21 C 1.2800(7) 0.4263(6) 0.0229(6)
C22 C 1.3625(6) 0.3360(6) 0.0994(6)
H14 H 1.4576 0.3040 0.0484
C23 C 1.3057(6) 0.2926(5) 0.2503(6)
H15 H 1.3631 0.2317 0.3003
C24 C 1.3415(6) 0.4743(6) -0.1442(5)
H16 H 1.4219 0.5334 -0.1845
H17 H 1.3761 0.3928 -0.1759
H18 H 1.2652 0.5270 -0.1777
N1 N 0.7495(4) 0.1716(4) 0.9940(4)
N2 N 1.0574(4) 0.2065(4) 0.8479(5)

#END
