./ACACTA_from_POSCAR.cif_generated_by_CrystalShift
_symmetry_cell_setting triclinic
_symmetry_space_group_name_H-M 'P 1'
loop_
_symmetry_equiv_pos_site_id
_symmetry_equiv_pos_as_xyz
1 x,y,z
_cell_length_a 9.320000
_cell_length_b 25.130000
_cell_length_c 7.691000
_cell_angle_alpha 90.000000
_cell_angle_beta 90.000000
_cell_angle_gamma 90.000000
_cell_volume 1801.321416
loop_
_atom_site_label
_atom_site_type_symbol
_atom_site_fract_x
_atom_site_fract_y
_atom_site_fract_z
H1 H 0.528000 0.711000 0.117000
H2 H 0.388000 0.720000 0.271000
H3 H 0.397000 1.091000 0.194000
H4 H 0.357000 1.068000 0.392000
H5 H 0.516000 1.068000 0.298000
H6 H 0.554000 0.978000 0.233000
H7 H 0.602000 0.886000 0.308000
H8 H 0.579000 0.794000 0.238000
H9 H 0.219000 0.841000 -0.066000
H10 H 0.254000 0.927000 -0.008000
H11 H -0.028000 0.711000 0.617000
H12 H 0.132000 0.682000 0.590000
H13 H 0.254000 0.427000 0.508000
H14 H 0.219000 0.341000 0.566000
H15 H 0.579000 0.294000 0.262000
H16 H 0.602000 0.386000 0.192000
H17 H 0.554000 0.478000 0.267000
H18 H 0.516000 0.568000 0.202000
H19 H 0.357000 0.568000 0.108000
H20 H 0.397000 0.591000 0.306000
H21 H 0.388000 0.220000 0.229000
H22 H 0.368000 0.182000 0.410000
H23 H 0.528000 0.211000 0.383000
H24 H 0.112000 0.720000 0.771000
H25 H 0.103000 1.091000 0.694000
H26 H 0.143000 1.068000 0.892000
H27 H -0.016000 1.068000 0.798000
H28 H -0.054000 0.978000 0.733000
H29 H -0.102000 0.886000 0.808000
H30 H -0.079000 0.794000 0.738000
H31 H 0.281000 0.841000 0.434000
H32 H 0.246000 0.927000 0.492000
H33 H 1.028000 0.789000 0.117000
H34 H 0.868000 0.818000 0.090000
H35 H 0.888000 0.780000 0.271000
H36 H 0.246000 0.427000 1.008000
H37 H 0.281000 0.341000 1.066000
H38 H -0.079000 0.294000 0.762000
H39 H -0.102000 0.386000 0.692000
H40 H -0.054000 0.478000 0.767000
H41 H -0.016000 0.568000 0.702000
H42 H 0.143000 0.568000 0.608000
H43 H 0.103000 0.591000 0.806000
H44 H 0.112000 0.220000 0.729000
H45 H 0.132000 0.182000 0.910000
H46 H -0.028000 0.211000 0.883000
H47 H 0.897000 0.409000 0.194000
H48 H 0.857000 0.432000 0.392000
H49 H 1.016000 0.432000 0.298000
H50 H 1.054000 0.522000 0.233000
H51 H 1.102000 0.614000 0.308000
H52 H 1.079000 0.706000 0.238000
H53 H 0.719000 0.659000 -0.066000
H54 H 0.754000 0.573000 -0.008000
H55 H 0.472000 0.789000 0.617000
H56 H 0.632000 0.818000 0.590000
H57 H 0.612000 0.780000 0.771000
H58 H 0.603000 0.409000 0.694000
H59 H 0.754000 0.073000 0.508000
H60 H 0.719000 0.159000 0.566000
H61 H 1.079000 0.206000 0.262000
H62 H 1.102000 0.114000 0.192000
H63 H 1.054000 0.022000 0.267000
H64 H 1.016000 -0.068000 0.202000
H65 H 0.857000 -0.068000 0.108000
H66 H 0.897000 -0.091000 0.306000
H67 H 0.888000 0.280000 0.229000
H68 H 0.868000 0.318000 0.410000
H69 H 1.028000 0.289000 0.383000
H70 H 0.643000 0.432000 0.892000
H71 H 0.484000 0.432000 0.798000
H72 H 0.446000 0.522000 0.733000
H73 H 0.398000 0.614000 0.808000
H74 H 0.421000 0.706000 0.738000
H75 H 0.781000 0.659000 0.434000
H76 H 0.746000 0.573000 0.492000
H77 H 0.472000 0.289000 0.883000
H78 H 0.632000 0.318000 0.910000
H79 H 0.612000 0.280000 0.729000
H80 H 0.603000 -0.091000 0.806000
H81 H 0.643000 -0.068000 0.608000
H82 H 0.746000 0.073000 1.008000
H83 H 0.781000 0.159000 1.066000
H84 H 0.421000 0.206000 0.762000
H85 H 0.398000 0.114000 0.692000
H86 H 0.446000 0.022000 0.767000
H87 H 0.484000 -0.068000 0.702000
H88 H 0.368000 0.682000 0.090000
C89 C 0.579900 -0.063700 0.712300
C90 C 0.635200 -0.011600 0.793400
C91 C 0.473700 0.122600 0.778700
C92 C 0.493700 0.176500 0.818800
C93 C 0.434200 0.416700 0.344900
C94 C 0.324600 0.401800 0.459500
C95 C 0.304300 0.348000 0.499100
C96 C 0.565800 0.583300 0.655100
C97 C 0.675400 0.598200 0.540500
C98 C 0.695700 0.652000 0.500900
C99 C 0.607500 0.691200 0.572400
C100 C 0.493700 0.676500 0.681200
C101 C 0.473700 0.622600 0.721300
C102 C 0.635200 0.488400 0.706600
C103 C 0.579900 0.436300 0.787700
C104 C 0.578400 0.784900 0.633500
C105 C 0.607500 0.191200 0.927600
C106 C 0.695700 0.152000 0.999100
C107 C 0.675400 0.098200 0.959500
C108 C 0.565800 0.083300 0.844900
C109 C 0.392500 0.308800 0.427600
C110 C 0.506300 0.323500 0.318800
C111 C 0.526300 0.377400 0.278700
C112 C 0.921600 0.284900 0.366500
C113 C 0.920100 -0.063700 0.212300
C114 C 0.864800 -0.011600 0.293400
C115 C 1.026300 0.122600 0.278700
C116 C 0.364800 0.511600 0.293400
C117 C 0.421600 0.715100 0.133500
C118 C 0.420100 1.063700 0.287700
C119 C 0.934200 0.583300 0.155100
C120 C 0.824600 0.598200 0.040500
C121 C 0.804300 0.652000 0.000900
C122 C 0.892500 0.691200 0.072400
C123 C 1.006300 0.676500 0.181200
C124 C 1.026300 0.622600 0.221300
C125 C 0.864800 0.488400 0.206600
C126 C 0.920100 0.436300 0.287700
C127 C 0.921600 0.784900 0.133500
C128 C 1.006300 0.176500 0.318800
C129 C 0.892500 0.191200 0.427600
C130 C 0.804300 0.152000 0.499100
C131 C 0.824600 0.098200 0.459500
C132 C 0.934200 0.083300 0.344900
C133 C 0.364800 1.011600 0.206600
C134 C 0.526300 0.877400 0.221300
C135 C 0.506300 0.823500 0.181200
C136 C 0.078400 0.215100 0.866500
C137 C 0.079900 0.563700 0.712300
C138 C 0.135200 0.511600 0.793400
C139 C 0.392500 0.808800 0.072400
C140 C 0.304300 0.848000 0.000900
C141 C 0.324600 0.901800 0.040500
C142 C 0.065800 0.916700 0.655100
C143 C 0.175400 0.901800 0.540500
C144 C 0.195700 0.848000 0.500900
C145 C 0.107500 0.808800 0.572400
C146 C -0.006300 0.823500 0.681200
C147 C -0.026300 0.877400 0.721300
C148 C 0.135200 1.011600 0.706600
C149 C 0.079900 1.063700 0.787700
C150 C 0.078400 0.715100 0.633500
C151 C -0.026300 0.377400 0.778700
C152 C -0.006300 0.323500 0.818800
C153 C 0.107500 0.308800 0.927600
C154 C 0.195700 0.348000 0.999100
C155 C 0.175400 0.401800 0.959500
C156 C 0.065800 0.416700 0.844900
C157 C 0.434200 0.916700 0.155100
C158 C 0.420100 0.563700 0.212300
C159 C 0.421600 0.215100 0.366500
C160 C 0.578400 0.284900 0.866500
N161 N 0.460600 0.470500 0.292300
N162 N 0.539400 0.529500 0.707700
N163 N 0.539400 0.029500 0.792300
N164 N 0.460600 0.970500 0.207700
N165 N 0.039400 0.470500 0.792300
N166 N 0.039400 0.970500 0.707700
N167 N 0.960600 0.529500 0.207700
N168 N 0.960600 0.029500 0.292300
O169 O 0.742800 -0.008200 0.352300
O170 O 0.859200 0.243500 0.471800
O171 O 0.257200 1.008200 0.647700
O172 O 0.140800 0.756500 0.528200
O173 O 0.859200 0.743500 0.028200
O174 O 0.742800 0.491800 0.147700
O175 O 0.757200 -0.008200 0.852300
O176 O 0.640800 0.243500 0.971800
O177 O 0.359200 0.756500 0.028200
O178 O 0.242800 1.008200 0.147700
O179 O 0.640800 0.743500 0.528200
O180 O 0.757200 0.491800 0.647700
O181 O 0.140800 0.256500 0.971800
O182 O 0.359200 0.256500 0.471800
O183 O 0.257200 0.508200 0.852300
O184 O 0.242800 0.508200 0.352300

#END
