
#######################################################################
#
#                 Cambridge Crystallographic Data Centre
#                                CCDC 
#
#######################################################################
#
# If this CIF has been generated from an entry in the Cambridge 
# Structural Database, then it will include bibliographic, chemical, 
# crystal, experimental, refinement or atomic coordinate data resulting 
# from the CCDC's data processing and validation procedures.
#
#######################################################################

data_ACAGIU
_symmetry_cell_setting           monoclinic
_symmetry_space_group_name_H-M   'C 2/c'
_symmetry_Int_Tables_number      15
_space_group_name_Hall           '-C 2yn'
loop_
_symmetry_equiv_pos_site_id
_symmetry_equiv_pos_as_xyz
1 x,y,z
2 x,-y,1/2+z
3 1/2+x,1/2+y,z
4 1/2+x,1/2-y,1/2+z
5 -x,-y,-z
6 -x,y,1/2-z
7 1/2-x,1/2-y,-z
8 1/2-x,1/2+y,1/2-z
_cell_length_a                   9.800(5)
_cell_length_b                   8.684(5)
_cell_length_c                   7.334(4)
_cell_angle_alpha                90
_cell_angle_beta                 116.90(4)
_cell_angle_gamma                90
_cell_volume                     556.613
loop_
_atom_site_label
_atom_site_type_symbol
_atom_site_fract_x
_atom_site_fract_y
_atom_site_fract_z
N1 N 0.5000 -0.1888(2) 0.7500
C1 C 0.6269(2) -0.1090(2) 0.7975(3)
C2 C 0.6335(2) 0.0491(2) 0.7999(3)
C3 C 0.5000 0.1323(2) 0.7500
C4 C 0.5000 0.2967(2) 0.7500
C5 C 0.5000 0.4335(2) 0.7500
H1 H 0.7193 -0.1639 0.8320
H2 H 0.7290 0.0995 0.8359
H3 H 0.5000 0.5434 0.7500
C2E C 0.3665(2) 0.0491(2) 0.7001(3)
C1E C 0.3731(2) -0.1090(2) 0.7025(3)
H1E H 0.2807 -0.1639 0.6680
H2E H 0.2710 0.0995 0.6641
N1 N 0.5000 1.1888(2) 0.2500
C1 C 0.6269(2) 1.1090(2) 0.2975(3)
C2 C 0.6335(2) 0.9509(2) 0.2999(3)
C3 C 0.5000 0.8677(2) 0.2500
C4 C 0.5000 0.7033(2) 0.2500
C5 C 0.5000 0.5665(2) 0.2500
H1 H 0.7193 1.1639 0.3320
H2 H 0.7290 0.9005 0.3359
H3 H 0.5000 0.4566 0.2500
C2E C 0.3665(2) 0.9509(2) 0.2001(3)
C1E C 0.3731(2) 1.1090(2) 0.2025(3)
H1E H 0.2807 1.1639 0.1680
H2E H 0.2710 0.9005 0.1641
N1 N 0.0000 0.3112(2) 0.7500
C1 C 0.1269(2) 0.3910(2) 0.7975(3)
C2 C 0.1335(2) 0.5491(2) 0.7999(3)
C3 C 0.0000 0.6323(2) 0.7500
C4 C 0.0000 0.7967(2) 0.7500
C5 C 0.0000 0.9335(2) 0.7500
H1 H 0.2193 0.3361 0.8320
H2 H 0.2290 0.5995 0.8359
H3 H 0.0000 1.0434 0.7500
C2E C -0.1335(2) 0.5491(2) 0.7001(3)
C1E C -0.1269(2) 0.3910(2) 0.7025(3)
H1E H -0.2193 0.3361 0.6680
H2E H -0.2290 0.5995 0.6641
N1 N 1.0000 0.3112(2) 0.7500
C1 C 1.1269(2) 0.3910(2) 0.7975(3)
C2 C 1.1335(2) 0.5491(2) 0.7999(3)
C3 C 1.0000 0.6323(2) 0.7500
C4 C 1.0000 0.7967(2) 0.7500
C5 C 1.0000 0.9335(2) 0.7500
H1 H 1.2193 0.3361 0.8320
H2 H 1.2290 0.5995 0.8359
H3 H 1.0000 1.0434 0.7500
C2E C 0.8665(2) 0.5491(2) 0.7001(3)
C1E C 0.8731(2) 0.3910(2) 0.7025(3)
H1E H 0.7807 0.3361 0.6680
H2E H 0.7710 0.5995 0.6641
N1 N 0.0000 0.6888(2) 0.2500
C1 C 0.1269(2) 0.6090(2) 0.2975(3)
C2 C 0.1335(2) 0.4509(2) 0.2999(3)
C3 C 0.0000 0.3677(2) 0.2500
C4 C 0.0000 0.2033(2) 0.2500
C5 C 0.0000 0.0665(2) 0.2500
H1 H 0.2193 0.6639 0.3320
H2 H 0.2290 0.4005 0.3359
H3 H 0.0000 -0.0434 0.2500
C2E C -0.1335(2) 0.4509(2) 0.2001(3)
C1E C -0.1269(2) 0.6090(2) 0.2025(3)
H1E H -0.2193 0.6639 0.1680
H2E H -0.2290 0.4005 0.1641
N1 N 1.0000 0.6888(2) 0.2500
C1 C 1.1269(2) 0.6090(2) 0.2975(3)
C2 C 1.1335(2) 0.4509(2) 0.2999(3)
C3 C 1.0000 0.3677(2) 0.2500
C4 C 1.0000 0.2033(2) 0.2500
C5 C 1.0000 0.0665(2) 0.2500
H1 H 1.2193 0.6639 0.3320
H2 H 1.2290 0.4005 0.3359
H3 H 1.0000 -0.0434 0.2500
C2E C 0.8665(2) 0.4509(2) 0.2001(3)
C1E C 0.8731(2) 0.6090(2) 0.2025(3)
H1E H 0.7807 0.6639 0.1680
H2E H 0.7710 0.4005 0.1641

#END
