./ACEHIB_from_POSCAR.cif_generated_by_CrystalShift
_symmetry_cell_setting triclinic
_symmetry_space_group_name_H-M 'P 1'
loop_
_symmetry_equiv_pos_site_id
_symmetry_equiv_pos_as_xyz
1 x,y,z
_cell_length_a 18.796600
_cell_length_b 11.844400
_cell_length_c 22.884400
_cell_angle_alpha 90.000000
_cell_angle_beta 97.330000
_cell_angle_gamma 90.000000
_cell_volume 5053.219482
loop_
_atom_site_label
_atom_site_type_symbol
_atom_site_fract_x
_atom_site_fract_y
_atom_site_fract_z
H1 H 0.157900 0.706900 0.670300
H2 H 0.545500 0.533600 0.773000
H3 H 0.519900 0.524100 0.703800
H4 H 0.034800 -0.004900 0.750200
H5 H 0.918800 0.568000 0.205600
H6 H -0.045500 0.033600 0.727000
H7 H 0.879600 0.713100 0.122700
H8 H 0.903700 0.675600 0.060900
H9 H 0.952000 0.642600 0.121200
H10 H -0.019900 0.024100 0.796200
H11 H 0.805500 0.531600 0.024200
H12 H 0.769200 0.615000 0.066800
H13 H 0.766000 0.481300 0.076500
H14 H 0.534800 0.504900 0.250200
H15 H 0.875900 0.235200 0.193800
H16 H 0.794000 0.251600 0.166100
H17 H 0.829800 0.336700 0.215700
H18 H 0.454500 0.466400 0.227000
H19 H 0.805700 0.310400 0.059600
H20 H 0.877100 0.238900 0.079100
H21 H 0.882500 0.362600 0.051900
H22 H 0.480100 0.475900 0.296200
H23 H 0.980300 0.362200 0.214900
H24 H 0.931200 0.393400 0.265000
H25 H 0.965200 1.004900 0.249800
H26 H 1.059900 0.508300 0.244000
H27 H 1.007000 0.559900 0.286800
H28 H 1.045500 0.966400 0.273000
H29 H 1.022200 0.391000 0.344900
H30 H 1.079500 0.347800 0.303900
H31 H 1.019900 0.975900 0.203800
H32 H 1.152500 0.503000 0.334200
H33 H 0.570900 0.833400 0.667300
H34 H 1.191700 0.436000 0.430000
H35 H 1.175300 0.333500 0.384800
H36 H 1.118600 0.366100 0.428600
H37 H 0.515800 0.673900 0.624200
H38 H 1.052700 0.555100 0.411400
H39 H 1.073300 0.632900 0.358900
H40 H 1.130800 0.610400 0.415500
H41 H 0.567900 0.576400 0.551200
H42 H 0.675900 0.640800 0.523200
H43 H 0.730000 0.802200 0.565900
H44 H 0.589500 0.991700 0.553200
H45 H 0.581200 1.068000 0.294400
H46 H 0.513200 1.137600 0.520900
H47 H 0.620400 1.213100 0.377300
H48 H 0.596300 1.175600 0.439100
H49 H 0.548000 1.142600 0.378800
H50 H 0.505400 1.297400 0.578600
H51 H 0.694500 1.031600 0.475800
H52 H 0.730800 1.115000 0.433200
H53 H 0.734000 0.981300 0.423500
H54 H 0.574800 1.308000 0.670800
H55 H 0.624100 0.735200 0.306200
H56 H 0.706000 0.751600 0.333900
H57 H 0.670200 0.836700 0.284300
H58 H 0.650500 1.160200 0.704100
H59 H 0.694300 0.810400 0.440400
H60 H 0.622900 0.738900 0.420900
H61 H 0.617500 0.862600 0.448100
H62 H 0.825600 0.864800 0.667800
H63 H 0.519700 0.862200 0.285100
H64 H 0.568800 0.893400 0.235000
H65 H 0.932700 0.899900 0.632000
H66 H 0.440100 1.008300 0.256000
H67 H 0.493000 1.059900 0.213200
H68 H 0.941100 1.048300 0.564600
H69 H 0.477800 0.891000 0.155100
H70 H 0.420500 0.847800 0.196100
H71 H 0.840700 1.159600 0.535900
H72 H 0.347500 1.003000 0.165800
H73 H 0.732800 1.121700 0.571500
H74 H 0.308300 0.936000 0.070000
H75 H 0.324700 0.833500 0.115200
H76 H 0.381400 0.866100 0.071400
H77 H 0.763800 1.101000 0.730200
H78 H 0.447300 1.055100 0.088600
H79 H 0.426700 1.132900 0.141100
H80 H 0.369200 1.110400 0.084500
H81 H 0.809000 1.092700 0.828900
H82 H 0.793100 0.928100 0.883300
H83 H 0.725000 0.779900 0.838100
H84 H 0.675500 0.793100 0.740000
H85 H 0.081200 0.432000 0.794400
H86 H 0.929100 0.333400 0.832700
H87 H 0.120400 0.286900 0.877300
H88 H 0.096300 0.324400 0.939100
H89 H 0.048000 0.357400 0.878800
H90 H 0.984200 0.173900 0.875800
H91 H 0.194500 0.468400 0.975800
H92 H 0.230800 0.385000 0.933200
H93 H 0.234000 0.518700 0.923500
H94 H 0.932100 0.076400 0.948800
H95 H 0.124100 0.764800 0.806200
H96 H 0.206000 0.748400 0.833900
H97 H 0.170200 0.663300 0.784300
H98 H 0.824100 0.140800 0.976800
H99 H 0.194300 0.689600 0.940400
H100 H 0.122900 0.761100 0.920900
H101 H 0.117500 0.637400 0.948100
H102 H 0.770000 0.302200 0.934100
H103 H 0.019700 0.637800 0.785100
H104 H 0.068800 0.606600 0.735000
H105 H 0.910500 0.491700 0.946800
H106 H -0.059900 0.491700 0.756000
H107 H -0.007000 0.440100 0.713200
H108 H 0.986800 0.637600 0.979100
H109 H -0.022200 0.609000 0.655100
H110 H -0.079500 0.652200 0.696100
H111 H 0.994600 0.797400 0.921400
H112 H -0.152500 0.497000 0.665800
H113 H 0.925200 0.808000 0.829200
H114 H -0.191700 0.564000 0.570000
H115 H -0.175300 0.666500 0.615200
H116 H -0.118600 0.633900 0.571400
H117 H 0.849500 0.660200 0.795900
H118 H -0.052700 0.444900 0.588600
H119 H -0.073300 0.367100 0.641100
H120 H -0.130800 0.389600 0.584500
H121 H 0.674400 0.364800 0.832200
H122 H 0.567300 0.399900 0.868000
H123 H 0.558900 0.548300 0.935400
H124 H 0.659300 0.659600 0.964100
H125 H 0.418800 -0.068000 0.705600
H126 H 0.767200 0.621700 0.928500
H127 H 0.379600 -0.213100 0.622700
H128 H 0.403700 -0.175600 0.560900
H129 H 0.452000 -0.142600 0.621200
H130 H 0.736200 0.601000 0.769800
H131 H 0.305500 -0.031600 0.524200
H132 H 0.269200 -0.115000 0.566800
H133 H 0.266000 0.018700 0.576500
H134 H 0.691000 0.592700 0.671100
H135 H 0.375900 0.264800 0.693800
H136 H 0.294000 0.248400 0.666100
H137 H 0.329800 0.163300 0.715700
H138 H 0.706900 0.428100 0.616700
H139 H 0.305700 0.189600 0.559600
H140 H 0.377100 0.261100 0.579100
H141 H 0.382500 0.137400 0.551900
H142 H 0.775000 0.279900 0.661900
H143 H 0.480300 0.137800 0.714900
H144 H 0.431200 0.106600 0.765000
H145 H 0.824500 0.293100 0.760000
H146 H 0.559900 -0.008300 0.744000
H147 H 0.507000 -0.059900 0.786800
H148 H 0.429100 0.166600 0.332700
H149 H 0.522200 0.109000 0.844900
H150 H 0.579500 0.152200 0.803900
H151 H 0.484200 0.326100 0.375800
H152 H 0.652500 -0.003000 0.834200
H153 H 0.432100 0.423600 0.448800
H154 H 0.691700 0.064000 0.930000
H155 H 0.675300 0.166500 0.884800
H156 H 0.618600 0.133900 0.928600
H157 H 0.324100 0.359200 0.476800
H158 H 0.552700 -0.055100 0.911400
H159 H 0.573300 -0.132900 0.858900
H160 H 0.630800 -0.110400 0.915500
H161 H 0.270000 0.197800 0.434100
H162 H 0.410500 0.008300 0.446800
H163 H 0.486800 -0.137600 0.479100
H164 H 0.778800 0.662200 0.466400
H165 H 0.494600 -0.297400 0.421400
H166 H 0.827800 0.836500 0.494100
H167 H 0.425200 -0.308000 0.329200
H168 H 0.921600 0.910000 0.448000
H169 H 0.349500 -0.160200 0.295900
H170 H 0.966700 0.803400 0.374700
H171 H 0.174400 0.135200 0.332200
H172 H 0.919100 0.628100 0.348600
H173 H 0.067300 0.100100 0.368000
H174 H 0.058900 -0.048300 0.435400
H175 H 0.926000 0.483800 0.467400
H176 H 0.159300 -0.159600 0.464100
H177 H 1.005500 0.341100 0.498600
H178 H 0.267200 -0.121700 0.428500
H179 H 1.004200 0.171300 0.445900
H180 H 0.236200 -0.101000 0.269800
H181 H 0.922600 0.150100 0.360400
H182 H 0.191000 -0.092700 0.171100
H183 H 0.842100 0.293100 0.329700
H184 H 0.206900 0.071900 0.116700
H185 H 0.275000 0.220100 0.161900
H186 H 0.814700 0.645500 0.283500
H187 H 0.324500 0.206900 0.260000
H188 H 0.757700 0.644400 0.187500
H189 H 0.070900 0.666600 0.167300
H190 H 0.679400 0.498300 0.154300
H191 H 0.015800 0.826100 0.124200
H192 H 0.660400 0.352000 0.219200
H193 H 0.067900 0.923600 0.051200
H194 H 0.715700 0.354600 0.315000
H195 H 0.175900 0.859200 0.023200
H196 H 0.230000 0.697800 0.065900
H197 H 0.664400 0.558200 0.373800
H198 H 0.089500 0.508300 0.053200
H199 H 0.569800 0.508000 0.423600
H200 H 0.013200 0.362400 0.020900
H201 H 0.586800 0.379900 0.501900
H202 H 0.005400 0.202600 0.078600
H203 H 0.700700 0.305800 0.529700
H204 H 0.074800 0.192000 0.170800
H205 H 0.796400 0.356200 0.480100
H206 H 0.150500 0.339800 0.204100
H207 H 0.325600 0.635200 0.167800
H208 H 0.432700 0.600100 0.132000
H209 H 0.721200 1.162200 0.033600
H210 H 0.441100 0.451700 0.064600
H211 H 0.672200 1.336500 0.005900
H212 H 0.340700 0.340400 0.035900
H213 H 0.578400 1.410000 0.052000
H214 H 0.232800 0.378300 0.071500
H215 H 0.533300 1.303400 0.125300
H216 H 0.263800 0.399000 0.230200
H217 H 0.580900 1.128100 0.151400
H218 H 0.309000 0.407300 0.328900
H219 H 0.293100 0.571900 0.383300
H220 H 0.574000 0.983800 0.032600
H221 H 0.225000 0.720100 0.338100
H222 H 0.494500 0.841100 0.001400
H223 H 0.175500 0.706900 0.240000
H224 H 0.495800 0.671300 0.054100
H225 H 0.296400 0.143800 0.980100
H226 H 0.577400 0.650100 0.139600
H227 H 0.200700 0.194200 1.029700
H228 H 0.657900 0.793100 0.170300
H229 H 0.086800 0.120100 1.001900
H230 H 0.069800 -0.008000 0.923600
H231 H 0.685300 1.145500 0.216500
H232 H 0.164400 -0.058200 0.873800
H233 H 0.742300 1.144400 0.312500
H234 H 0.215700 0.145400 0.815000
H235 H 0.820600 0.998300 0.345700
H236 H 0.160400 0.148000 0.719200
H237 H 0.839600 0.852000 0.280800
H238 H 0.179400 0.001700 0.654300
H239 H 0.784300 0.854600 0.185000
H240 H 0.257700 -0.144400 0.687500
H241 H 0.314700 -0.145500 0.783500
H242 H 0.835600 1.058200 0.126200
H243 H 0.342100 0.206900 0.829700
H244 H 0.930200 1.008000 0.076400
H245 H 0.422600 0.349900 0.860400
H246 H 0.913200 0.879900 -0.001900
H247 H 0.504200 0.328700 0.945900
H248 H 0.799300 0.805800 -0.029700
H249 H 0.505500 0.158900 0.998600
H250 H 0.703600 0.856200 0.019900
H251 H 0.426000 0.016200 0.967400
H252 H 0.419100 -0.128100 0.848600
H253 H 0.466700 -0.303400 0.874700
H254 H 0.221200 0.337800 0.533600
H255 H 0.421600 -0.410000 0.948000
H256 H 0.172200 0.163500 0.505900
H257 H 0.327800 -0.336500 0.994100
H258 H 0.078400 0.090000 0.552000
H259 H 0.278800 -0.162200 0.966400
H260 H 0.033300 0.196600 0.625300
H261 H 0.203600 0.643800 0.519900
H262 H 0.080900 0.371900 0.651400
H263 H 0.299300 0.694200 0.470300
H264 H 0.413200 0.620100 0.498100
H265 H 0.074000 0.516200 0.532600
H266 H 0.430200 0.492000 0.576400
H267 H -0.005500 0.658900 0.501400
H268 H 0.335600 0.441800 0.626200
H269 H -0.004200 0.828700 0.554100
H270 H 0.284300 0.645400 0.685000
H271 H 0.077400 0.849900 0.639600
H272 H 0.339600 0.648000 0.780800
H273 H 0.465200 0.495100 0.749800
H274 H 0.320600 0.501700 0.845700
H275 H 0.242300 0.355600 0.812500
H276 H 0.185300 0.354500 0.716500
B277 B 0.690830 0.957800 0.650790
B278 B 0.807690 0.499600 0.381910
B279 B 0.309170 0.042200 0.349210
B280 B 0.692310 0.999600 0.118090
B281 B 0.809170 0.457800 0.849210
B282 B 0.190830 0.542200 0.150790
B283 B 0.192310 0.500400 0.618090
B284 B 0.307690 0.000400 0.881910
C285 C 0.257280 0.536740 0.579810
C286 C 0.327160 0.493720 0.594470
C287 C 0.028330 0.769700 0.566990
C288 C 0.384140 0.523500 0.564780
C289 C 0.027930 0.669400 0.535730
C290 C 0.374200 0.598900 0.518440
C291 C 0.076050 0.584700 0.554410
C292 C 0.306900 0.642600 0.502240
C293 C 0.128000 0.594930 0.604260
C294 C 0.249540 0.612220 0.532200
C295 C 0.100900 0.329690 0.622220
C296 C 0.076990 0.782200 0.617310
C297 C 0.341240 -0.123550 0.902800
C298 C 0.317000 -0.190050 0.947060
C299 C 0.071680 0.225200 0.606380
C300 C 0.346230 -0.294740 0.963900
C301 C 0.098210 0.161880 0.562970
C302 C 0.401790 -0.338120 0.937030
C303 C 0.153770 0.205260 0.536100
C304 C 0.428320 -0.274800 0.893620
C305 C 0.183000 0.309950 0.552940
C306 C 0.399100 -0.170310 0.877780
C307 C 0.158760 0.376450 0.597200
C308 C 0.372000 0.094930 0.895740
C309 C 0.423950 0.084700 0.945590
C310 C 0.274800 0.585500 0.710510
C311 C 0.472070 0.169400 0.964270
C312 C 0.749540 0.887780 0.032200
C313 C 0.471670 0.269700 0.933010
C314 C 0.806900 0.857400 0.002240
C315 C 0.423010 0.282200 0.882690
C316 C 0.874200 0.901100 0.018440
C317 C 0.374650 0.196310 0.864610
C318 C 0.884140 0.976500 0.064780
C319 C 0.272730 -0.000280 0.812020
C320 C 0.283070 -0.085070 0.771230
C321 C 0.827160 1.006280 0.094470
C322 C 0.249020 -0.084700 0.713410
C323 C 0.757280 0.963260 0.079810
C324 C 0.202880 0.001400 0.693590
C325 C 0.774800 0.914500 0.210510
C326 C 0.191500 0.087300 0.732150
C327 C 0.808500 0.912700 0.267850
C328 C 0.225200 0.085500 0.789490
C329 C 0.797120 0.998600 0.306410
C330 C 0.242720 0.036740 0.920190
C331 C 0.172840 -0.006280 0.905530
C332 C 0.750980 1.084700 0.286590
C333 C 0.115860 0.023500 0.935220
C334 C 0.716930 1.085070 0.228770
C335 C 0.125800 0.098900 0.981560
C336 C 0.727270 1.000280 0.187980
C337 C 0.193100 0.142600 0.997760
C338 C 0.625350 0.803690 0.135390
C339 C 0.250460 0.112220 0.967800
C340 C 0.576990 0.717800 0.117310
C341 C 0.125350 0.696310 0.635390
C342 C 0.214150 0.551830 0.222460
C343 C 0.203590 0.646000 0.257280
C344 C 0.528330 0.730300 0.066990
C345 C 0.232730 0.653900 0.316290
C346 C 0.527930 0.830600 0.035730
C347 C 0.272790 0.566300 0.343230
C348 C 0.576050 0.915300 0.054410
C349 C 0.283000 0.469500 0.310810
C350 C 0.628000 0.905070 0.104260
C351 C 0.254950 0.464800 0.251910
C352 C 0.600900 1.170310 0.122220
C353 C 0.265770 0.511300 0.123900
C354 C 0.308500 0.587300 0.767850
C355 C 0.571680 1.274800 0.106380
C356 C 0.337860 0.401300 0.062590
C357 C 0.598210 1.338120 0.062970
C358 C 0.397190 0.466300 0.079610
C359 C 0.653770 1.294740 0.036100
C360 C 0.392000 0.554500 0.119510
C361 C 0.683000 1.190050 0.052940
C362 C 0.327860 0.575100 0.140660
C363 C 0.658760 1.123550 0.097200
C364 C 0.131200 0.442000 0.132570
C365 C 0.123400 0.345300 0.166190
C366 C 0.227270 0.499720 0.687980
C367 C 0.077690 0.256700 0.146630
C368 C 0.750460 0.387780 0.467800
C369 C 0.036570 0.262700 0.092250
C370 C 0.693100 0.357400 0.497760
C371 C 0.041560 0.356900 0.058250
C372 C 0.625800 0.401100 0.481560
C373 C 0.087440 0.444100 0.077790
C374 C 0.615860 0.476500 0.435220
C375 C 0.157560 0.661150 0.122150
C376 C 0.186380 0.723050 0.078410
C377 C 0.672840 0.506280 0.405530
C378 C 0.154070 0.819800 0.052410
C379 C 0.742720 0.463260 0.420190
C380 C 0.090440 0.858200 0.069050
C381 C 0.725200 0.414500 0.289490
C382 C 0.059570 0.800300 0.112190
C383 C 0.691500 0.412700 0.232150
C384 C 0.092890 0.704700 0.137740
C385 C 0.702880 0.498600 0.193590
C386 C 0.297120 0.501400 0.806410
C387 C 0.285850 0.051830 0.277540
C388 C 0.296410 0.146000 0.242720
C389 C 0.749020 0.584700 0.213410
C390 C 0.267270 0.153900 0.183710
C391 C 0.783070 0.585070 0.271230
C392 C 0.227210 0.066300 0.156770
C393 C 0.772730 0.500280 0.312020
C394 C 0.217000 -0.030500 0.189190
C395 C 0.874650 0.303690 0.364610
C396 C 0.245050 -0.035200 0.248090
C397 C 0.923010 0.217800 0.382690
C398 C 0.234230 0.011300 0.376100
C399 C 0.226700 -0.075900 0.415720
C400 C 0.971670 0.230300 0.433010
C401 C 0.162140 -0.098700 0.437410
C402 C 0.972070 0.330600 0.464270
C403 C 0.102810 -0.033700 0.420390
C404 C 0.923950 0.415300 0.445590
C405 C 0.108000 0.054500 0.380490
C406 C 0.872000 0.405070 0.395740
C407 C 0.172140 0.075100 0.359340
C408 C 0.899100 0.670310 0.377780
C409 C 0.368800 -0.058000 0.367430
C410 C 0.376600 -0.154700 0.333810
C411 C 0.928320 0.774800 0.393620
C412 C 0.422310 -0.243300 0.353370
C413 C 0.901790 0.838120 0.437030
C414 C 0.463430 -0.237300 0.407750
C415 C 0.846230 0.794740 0.463900
C416 C 0.458440 -0.143100 0.441750
C417 C 0.817000 0.690050 0.447060
C418 C 0.412560 -0.055900 0.422210
C419 C 0.841240 0.623550 0.402800
C420 C 0.342440 0.161150 0.377850
C421 C 0.313620 0.223050 0.421590
C422 C 0.216930 0.414930 0.728770
C423 C 0.345930 0.319800 0.447590
C424 C 0.591390 -0.077300 0.888880
C425 C 0.409560 0.358200 0.430950
C426 C 0.653980 0.104100 0.904610
C427 C 0.440430 0.300300 0.387810
C428 C 0.505000 0.543900 0.741960
C429 C 0.407110 0.204700 0.362260
C430 C 0.559280 0.084000 0.820630
C431 C 0.273300 0.424100 0.084280
C432 C 0.785850 0.448170 0.777540
C433 C 0.796410 0.354000 0.742720
C434 C 0.524410 0.011100 0.770820
C435 C 0.767270 0.346100 0.683710
C436 C 0.461900 0.074700 0.737040
C437 C 0.727210 0.433700 0.656770
C438 C 0.356190 0.185200 0.576740
C439 C 0.717000 0.530500 0.689190
C440 C 0.338290 0.209200 0.681630
C441 C 0.745050 0.535200 0.748090
C442 C 0.295310 -0.043800 0.564690
C443 C 0.734230 0.488700 0.876100
C444 C 0.726700 0.575900 0.915720
C445 C 0.402820 -0.153600 0.602110
C446 C 0.662140 0.598700 0.937410
C447 C 0.481810 0.661800 0.740940
C448 C 0.602810 0.533700 0.920390
C449 C 0.902820 0.653600 0.102110
C450 C 0.608000 0.445500 0.880490
C451 C 0.795310 0.543800 0.064690
C452 C 0.672140 0.424900 0.859340
C453 C 0.380480 0.029260 0.645910
C454 C 0.868800 0.558000 0.867430
C455 C 0.876600 0.654700 0.833810
C456 C -0.091390 0.422700 0.611120
C457 C 0.922310 0.743300 0.853370
C458 C -0.153980 0.604100 0.595390
C459 C 0.963430 0.737300 0.907750
C460 C -0.005000 0.043900 0.758040
C461 C 0.958440 0.643100 0.941750
C462 C -0.059280 0.584000 0.679370
C463 C 0.912560 0.555900 0.922210
C464 C -0.024410 0.511100 0.729180
C465 C 0.842440 0.338850 0.877850
C466 C 0.813620 0.276950 0.921590
C467 C 0.038100 0.574700 0.762960
C468 C 0.845930 0.180200 0.947590
C469 C 0.143810 0.685200 0.923260
C470 C 0.909560 0.141800 0.930950
C471 C 0.161710 0.709200 0.818370
C472 C 0.940430 0.199700 0.887810
C473 C 0.204690 0.456200 0.935310
C474 C 0.907110 0.295300 0.862260
C475 C 0.097180 0.346400 0.897890
C476 C 0.250980 0.415300 0.786590
C477 C 0.714150 0.948170 0.722460
C478 C 0.703590 0.854000 0.757280
C479 C 0.018190 0.161800 0.759060
C480 C 0.732730 0.846100 0.816290
C481 C 0.838290 0.290800 0.181630
C482 C 0.772790 0.933700 0.843230
C483 C 0.856190 0.314800 0.076740
C484 C 0.783000 1.030500 0.810810
C485 C 0.119520 0.529260 0.854090
C486 C 0.754950 1.035200 0.751910
C487 C 0.408610 1.077300 0.111120
C488 C 0.765770 0.988700 0.623900
C489 C 0.773300 1.075900 0.584280
C490 C 0.346020 0.895900 0.095390
C491 C 0.837860 1.098700 0.562590
C492 C 0.961900 0.425300 0.237040
C493 C 0.897190 1.033700 0.579610
C494 C 0.440720 0.916000 0.179370
C495 C 0.892000 0.945500 0.619510
C496 C 0.475590 0.988900 0.229180
C497 C 0.827860 0.924900 0.640660
C498 C 0.538100 0.925300 0.262960
C499 C 0.631200 1.058000 0.632570
C500 C 0.623400 1.154700 0.666190
C501 C 0.643810 0.814800 0.423260
C502 C 0.577690 1.243300 0.646630
C503 C 0.661710 0.790800 0.318370
C504 C 0.536570 1.237300 0.592250
C505 C 0.704690 1.043800 0.435310
C506 C 0.541560 1.143100 0.558250
C507 C 0.597180 1.153600 0.397890
C508 C 0.587440 1.055900 0.577790
C509 C 0.495000 0.456100 0.258040
C510 C 0.657560 0.838850 0.622150
C511 C 0.686380 0.776950 0.578410
C512 C 0.518190 0.338200 0.259060
C513 C 0.654070 0.680200 0.552410
C514 C 1.024410 0.488900 0.270820
C515 C 0.590440 0.641800 0.569050
C516 C 0.619520 0.970740 0.354090
C517 C 0.559570 0.699700 0.612190
C518 C 1.091390 0.577300 0.388880
C519 C 0.592890 0.795300 0.637740
C520 C 1.153980 0.395900 0.404610
C521 C 1.059280 0.416000 0.320630
C522 C 0.981810 0.838200 0.240940
C523 C 1.005000 0.956100 0.241960
C524 C 0.880480 0.470740 0.145910
N525 N 0.961030 0.748800 0.238940
N526 N 0.637210 1.048800 0.395660
N527 N 0.538970 0.248800 0.261060
N528 N 0.638980 0.863500 0.364040
N529 N 0.580370 1.001270 0.303790
N530 N 0.382070 0.975630 0.140450
N531 N 0.137210 0.451200 0.895660
N532 N 0.138980 0.636500 0.864040
N533 N 0.038970 0.251200 0.761060
N534 N 0.080370 0.498730 0.803790
N535 N -0.117930 0.524370 0.640450
N536 N 0.362790 -0.048800 0.604340
N537 N 0.361020 0.136500 0.635960
N538 N 0.919630 0.501270 0.196210
N539 N 0.461030 0.751200 0.738940
N540 N 0.419630 -0.001270 0.696210
N541 N 0.617930 0.024370 0.859550
N542 N 0.861020 0.363500 0.135960
N543 N 0.862790 0.548800 0.104340
N544 N 1.117930 0.475630 0.359550

#END
