
#######################################################################
#
#                 Cambridge Crystallographic Data Centre
#                                CCDC 
#
#######################################################################
#
# If this CIF has been generated from an entry in the Cambridge 
# Structural Database, then it will include bibliographic, chemical, 
# crystal, experimental, refinement or atomic coordinate data resulting 
# from the CCDC's data processing and validation procedures.
#
#######################################################################

data_ACEHIB
_symmetry_cell_setting           monoclinic
_symmetry_space_group_name_H-M   'P 21/n'
_symmetry_Int_Tables_number      14
_space_group_name_Hall           '-P 2yn'
loop_
_symmetry_equiv_pos_site_id
_symmetry_equiv_pos_as_xyz
1 x,y,z
2 1/2-x,1/2+y,1/2-z
3 -x,-y,-z
4 1/2+x,1/2-y,1/2+z
_cell_length_a                   18.7966(5)
_cell_length_b                   11.8444(3)
_cell_length_c                   22.8844(8)
_cell_angle_alpha                90
_cell_angle_beta                 97.330(1)
_cell_angle_gamma                90
_cell_volume                     5053.22
loop_
_atom_site_label
_atom_site_type_symbol
_atom_site_fract_x
_atom_site_fract_y
_atom_site_fract_z
C1 C 0.88048(12) 0.47074(19) 0.14591(9)
N1 N 0.86279(10) 0.54880(17) 0.10434(8)
N2 N 0.86102(10) 0.36350(16) 0.13596(7)
N3 N 0.91963(10) 0.50127(18) 0.19621(8)
H1 H 0.9188(13) 0.568(2) 0.2056(10)
C2 C 0.90282(15) 0.6536(2) 0.10211(12)
H2 H 0.8796 0.7131 0.1227
H3 H 0.9037 0.6756 0.0609
H4 H 0.9520 0.6426 0.1212
C3 C 0.79531(13) 0.5438(2) 0.06469(10)
H5 H 0.8055 0.5316 0.0242
H6 H 0.7692 0.6150 0.0668
H7 H 0.7660 0.4813 0.0765
C4 C 0.83829(13) 0.2908(2) 0.18163(10)
H8 H 0.8759 0.2352 0.1938
H9 H 0.7940 0.2516 0.1661
H10 H 0.8298 0.3367 0.2157
C5 C 0.85619(13) 0.3148(2) 0.07674(9)
H11 H 0.8057 0.3104 0.0596
H12 H 0.8771 0.2389 0.0791
H13 H 0.8825 0.3626 0.0519
C6 C 0.96190(12) 0.4253(2) 0.23704(9)
H14 H 0.9803 0.3622 0.2149
H15 H 0.9312 0.3934 0.2650
C7 C 1.02441(12) 0.4889(2) 0.27082(9)
H16 H 1.0599 0.5083 0.2440
H17 H 1.0070 0.5599 0.2868
C8 C 1.05928(12) 0.4160(2) 0.32063(10)
H18 H 1.0222 0.3910 0.3449
H19 H 1.0795 0.3478 0.3039
N4 N 1.11793(11) 0.47563(17) 0.35955(8)
H20 H 1.1525(17) 0.503(3) 0.3342(13)
C9 C 1.15398(14) 0.3959(2) 0.40461(11)
H21 H 1.1917 0.4360 0.4300
H22 H 1.1753 0.3335 0.3848
H23 H 1.1186 0.3661 0.4286
C10 C 1.09139(14) 0.5773(2) 0.38888(10)
H24 H 1.0527 0.5551 0.4114
H25 H 1.0733 0.6329 0.3589
H26 H 1.1308 0.6104 0.4155
C1 C 0.61952(12) 0.97074(19) 0.35409(9)
N1 N 0.63721(10) 1.04880(17) 0.39566(8)
N2 N 0.63898(10) 0.86350(16) 0.36404(7)
N3 N 0.58037(10) 1.00127(18) 0.30379(8)
H1 H 0.5812(13) 1.068(2) 0.2944(10)
C2 C 0.59718(15) 1.1536(2) 0.39789(12)
H2 H 0.6204 1.2131 0.3773
H3 H 0.5963 1.1756 0.4391
H4 H 0.5480 1.1426 0.3788
C3 C 0.70469(13) 1.0438(2) 0.43531(10)
H5 H 0.6945 1.0316 0.4758
H6 H 0.7308 1.1150 0.4332
H7 H 0.7340 0.9813 0.4235
C4 C 0.66171(13) 0.7908(2) 0.31837(10)
H8 H 0.6241 0.7352 0.3062
H9 H 0.7060 0.7516 0.3339
H10 H 0.6702 0.8367 0.2843
C5 C 0.64381(13) 0.8148(2) 0.42326(9)
H11 H 0.6943 0.8104 0.4404
H12 H 0.6229 0.7389 0.4209
H13 H 0.6175 0.8626 0.4481
C6 C 0.53810(12) 0.9253(2) 0.26296(9)
H14 H 0.5197 0.8622 0.2851
H15 H 0.5688 0.8934 0.2350
C7 C 0.47559(12) 0.9889(2) 0.22918(9)
H16 H 0.4401 1.0083 0.2560
H17 H 0.4930 1.0599 0.2132
C8 C 0.44072(12) 0.9160(2) 0.17937(10)
H18 H 0.4778 0.8910 0.1551
H19 H 0.4205 0.8478 0.1961
N4 N 0.38207(11) 0.97563(17) 0.14045(8)
H20 H 0.3475(17) 1.003(3) 0.1658(13)
C9 C 0.34602(14) 0.8959(2) 0.09539(11)
H21 H 0.3083 0.9360 0.0700
H22 H 0.3247 0.8335 0.1152
H23 H 0.3814 0.8661 0.0714
C10 C 0.40861(14) 1.0773(2) 0.11112(10)
H24 H 0.4473 1.0551 0.0886
H25 H 0.4267 1.1329 0.1411
H26 H 0.3692 1.1104 0.0845
C1 C 0.11952(12) 0.52926(19) 0.85409(9)
N1 N 0.13721(10) 0.45120(17) 0.89566(8)
N2 N 0.13898(10) 0.63650(16) 0.86404(7)
N3 N 0.08037(10) 0.49873(18) 0.80379(8)
H1 H 0.0812(13) 0.432(2) 0.7944(10)
C2 C 0.09718(15) 0.3464(2) 0.89789(12)
H2 H 0.1204 0.2869 0.8773
H3 H 0.0963 0.3244 0.9391
H4 H 0.0480 0.3574 0.8788
C3 C 0.20469(13) 0.4562(2) 0.93531(10)
H5 H 0.1945 0.4684 0.9758
H6 H 0.2308 0.3850 0.9332
H7 H 0.2340 0.5187 0.9235
C4 C 0.16171(13) 0.7092(2) 0.81837(10)
H8 H 0.1241 0.7648 0.8062
H9 H 0.2060 0.7484 0.8339
H10 H 0.1702 0.6633 0.7843
C5 C 0.14381(13) 0.6852(2) 0.92326(9)
H11 H 0.1943 0.6896 0.9404
H12 H 0.1229 0.7611 0.9209
H13 H 0.1175 0.6374 0.9481
C6 C 0.03810(12) 0.5747(2) 0.76296(9)
H14 H 0.0197 0.6378 0.7851
H15 H 0.0688 0.6066 0.7350
C7 C -0.02441(12) 0.5111(2) 0.72918(9)
H16 H -0.0599 0.4917 0.7560
H17 H -0.0070 0.4401 0.7132
C8 C -0.05928(12) 0.5840(2) 0.67937(10)
H18 H -0.0222 0.6090 0.6551
H19 H -0.0795 0.6522 0.6961
N4 N -0.11793(11) 0.52437(17) 0.64045(8)
H20 H -0.1525(17) 0.497(3) 0.6658(13)
C9 C -0.15398(14) 0.6041(2) 0.59539(11)
H21 H -0.1917 0.5640 0.5700
H22 H -0.1753 0.6665 0.6152
H23 H -0.1186 0.6339 0.5714
C10 C -0.09139(14) 0.4227(2) 0.61112(10)
H24 H -0.0527 0.4449 0.5886
H25 H -0.0733 0.3671 0.6411
H26 H -0.1308 0.3896 0.5845
C1 C 0.38048(12) 0.02926(19) 0.64591(9)
N1 N 0.36279(10) -0.04880(17) 0.60434(8)
N2 N 0.36102(10) 0.13650(16) 0.63596(7)
N3 N 0.41963(10) -0.00127(18) 0.69621(8)
H1 H 0.4188(13) -0.068(2) 0.7056(10)
C2 C 0.40282(15) -0.1536(2) 0.60211(12)
H2 H 0.3796 -0.2131 0.6227
H3 H 0.4037 -0.1756 0.5609
H4 H 0.4520 -0.1426 0.6212
C3 C 0.29531(13) -0.0438(2) 0.56469(10)
H5 H 0.3055 -0.0316 0.5242
H6 H 0.2692 -0.1150 0.5668
H7 H 0.2660 0.0187 0.5765
C4 C 0.33829(13) 0.2092(2) 0.68163(10)
H8 H 0.3759 0.2648 0.6938
H9 H 0.2940 0.2484 0.6661
H10 H 0.3298 0.1633 0.7157
C5 C 0.35619(13) 0.1852(2) 0.57674(9)
H11 H 0.3057 0.1896 0.5596
H12 H 0.3771 0.2611 0.5791
H13 H 0.3825 0.1374 0.5519
C6 C 0.46190(12) 0.0747(2) 0.73704(9)
H14 H 0.4803 0.1378 0.7149
H15 H 0.4312 0.1066 0.7650
C7 C 0.52441(12) 0.0111(2) 0.77082(9)
H16 H 0.5599 -0.0083 0.7440
H17 H 0.5070 -0.0599 0.7868
C8 C 0.55928(12) 0.0840(2) 0.82063(10)
H18 H 0.5222 0.1090 0.8449
H19 H 0.5795 0.1522 0.8039
N4 N 0.61793(11) 0.02437(17) 0.85955(8)
H20 H 0.6525(17) -0.003(3) 0.8342(13)
C9 C 0.65398(14) 0.1041(2) 0.90461(11)
H21 H 0.6917 0.0640 0.9300
H22 H 0.6753 0.1665 0.8848
H23 H 0.6186 0.1339 0.9286
C10 C 0.59139(14) -0.0773(2) 0.88888(10)
H24 H 0.5527 -0.0551 0.9114
H25 H 0.5733 -0.1329 0.8589
H26 H 0.6308 -0.1104 0.9155
B1 B 0.80769(14) 0.4996(2) 0.38191(10)
C11 C 0.84124(11) 0.62355(18) 0.40280(9)
C12 C 0.81700(12) 0.69005(19) 0.44706(9)
H27 H 0.7788 0.6622 0.4664
C13 C 0.84623(12) 0.79474(19) 0.46390(9)
H28 H 0.8278 0.8365 0.4941
C14 C 0.90179(12) 0.83812(19) 0.43703(9)
H29 H 0.9216 0.9100 0.4480
C15 C 0.92832(12) 0.7748(2) 0.39362(9)
H30 H 0.9667 0.8034 0.3747
C16 C 0.89910(12) 0.67031(19) 0.37778(9)
H31 H 0.9191 0.6281 0.3486
C17 C 0.87200(12) 0.40507(19) 0.39574(9)
C18 C 0.92395(12) 0.4153(2) 0.44559(9)
H32 H 0.9260 0.4838 0.4674
C19 C 0.97207(12) 0.3306(2) 0.46427(10)
H33 H 1.0055 0.3411 0.4986
C20 C 0.97167(12) 0.2303(2) 0.43301(10)
H34 H 1.0042 0.1713 0.4459
C21 C 0.92301(12) 0.2178(2) 0.38269(10)
H35 H 0.9226 0.1501 0.3604
C22 C 0.87465(12) 0.30369(19) 0.36461(9)
H36 H 0.8421 0.2931 0.3297
C23 C 0.77273(11) 0.50028(19) 0.31202(9)
C24 C 0.78307(12) 0.58507(19) 0.27123(9)
H37 H 0.8147 0.6455 0.2835
C25 C 0.74902(13) 0.5847(2) 0.21341(10)
H38 H 0.7577 0.6444 0.1875
C26 C 0.70288(12) 0.4986(2) 0.19359(9)
H39 H 0.6794 0.4983 0.1543
C27 C 0.69150(12) 0.4127(2) 0.23215(10)
H40 H 0.6604 0.3520 0.2192
C28 C 0.72520(12) 0.41450(19) 0.28949(9)
H41 H 0.7157 0.3546 0.3150
C29 C 0.74272(12) 0.46326(18) 0.42019(9)
C30 C 0.67284(12) 0.50628(19) 0.40553(9)
H42 H 0.6644 0.5582 0.3738
C31 C 0.61586(13) 0.4765(2) 0.43522(10)
H43 H 0.5698 0.5080 0.4236
C32 C 0.62580(14) 0.4011(2) 0.48156(10)
H44 H 0.5868 0.3799 0.5019
C33 C 0.69310(14) 0.3574(2) 0.49776(10)
H45 H 0.7007 0.3058 0.5297
C34 C 0.75046(13) 0.38778(19) 0.46780(9)
H46 H 0.7964 0.3562 0.4801
B1 B 0.69231(14) 0.9996(2) 0.11809(10)
C11 C 0.65876(11) 1.12355(18) 0.09720(9)
C12 C 0.68300(12) 1.19005(19) 0.05294(9)
H27 H 0.7212 1.1622 0.0336
C13 C 0.65377(12) 1.29474(19) 0.03610(9)
H28 H 0.6722 1.3365 0.0059
C14 C 0.59821(12) 1.33812(19) 0.06297(9)
H29 H 0.5784 1.4100 0.0520
C15 C 0.57168(12) 1.2748(2) 0.10638(9)
H30 H 0.5333 1.3034 0.1253
C16 C 0.60090(12) 1.17031(19) 0.12222(9)
H31 H 0.5809 1.1281 0.1514
C17 C 0.62800(12) 0.90507(19) 0.10426(9)
C18 C 0.57605(12) 0.9153(2) 0.05441(9)
H32 H 0.5740 0.9838 0.0326
C19 C 0.52793(12) 0.8306(2) 0.03573(10)
H33 H 0.4945 0.8411 0.0014
C20 C 0.52833(12) 0.7303(2) 0.06699(10)
H34 H 0.4958 0.6713 0.0541
C21 C 0.57699(12) 0.7178(2) 0.11731(10)
H35 H 0.5774 0.6501 0.1396
C22 C 0.62535(12) 0.80369(19) 0.13539(9)
H36 H 0.6579 0.7931 0.1703
C23 C 0.72727(11) 1.00028(19) 0.18798(9)
C24 C 0.71693(12) 1.08507(19) 0.22877(9)
H37 H 0.6853 1.1455 0.2165
C25 C 0.75098(13) 1.0847(2) 0.28659(10)
H38 H 0.7423 1.1444 0.3125
C26 C 0.79712(12) 0.9986(2) 0.30641(9)
H39 H 0.8206 0.9983 0.3457
C27 C 0.80850(12) 0.9127(2) 0.26785(10)
H40 H 0.8396 0.8520 0.2808
C28 C 0.77480(12) 0.91450(19) 0.21051(9)
H41 H 0.7843 0.8546 0.1850
C29 C 0.75728(12) 0.96326(18) 0.07981(9)
C30 C 0.82716(12) 1.00628(19) 0.09447(9)
H42 H 0.8356 1.0582 0.1262
C31 C 0.88414(13) 0.9765(2) 0.06478(10)
H43 H 0.9302 1.0080 0.0764
C32 C 0.87420(14) 0.9011(2) 0.01844(10)
H44 H 0.9132 0.8799 -0.0019
C33 C 0.80690(14) 0.8574(2) 0.00224(10)
H45 H 0.7993 0.8058 -0.0297
C34 C 0.74954(13) 0.88778(19) 0.03220(9)
H46 H 0.7036 0.8562 0.0199
B1 B 0.19231(14) 0.5004(2) 0.61809(10)
C11 C 0.15876(11) 0.37645(18) 0.59720(9)
C12 C 0.18300(12) 0.30995(19) 0.55294(9)
H27 H 0.2212 0.3378 0.5336
C13 C 0.15377(12) 0.20526(19) 0.53610(9)
H28 H 0.1722 0.1635 0.5059
C14 C 0.09821(12) 0.16188(19) 0.56297(9)
H29 H 0.0784 0.0900 0.5520
C15 C 0.07168(12) 0.2252(2) 0.60638(9)
H30 H 0.0333 0.1966 0.6253
C16 C 0.10090(12) 0.32969(19) 0.62222(9)
H31 H 0.0809 0.3719 0.6514
C17 C 0.12800(12) 0.59493(19) 0.60426(9)
C18 C 0.07605(12) 0.5847(2) 0.55441(9)
H32 H 0.0740 0.5162 0.5326
C19 C 0.02793(12) 0.6694(2) 0.53573(10)
H33 H -0.0055 0.6589 0.5014
C20 C 0.02833(12) 0.7697(2) 0.56699(10)
H34 H -0.0042 0.8287 0.5541
C21 C 0.07699(12) 0.7822(2) 0.61731(10)
H35 H 0.0774 0.8499 0.6396
C22 C 0.12535(12) 0.69631(19) 0.63539(9)
H36 H 0.1579 0.7069 0.6703
C23 C 0.22727(11) 0.49972(19) 0.68798(9)
C24 C 0.21693(12) 0.41493(19) 0.72877(9)
H37 H 0.1853 0.3545 0.7165
C25 C 0.25098(13) 0.4153(2) 0.78659(10)
H38 H 0.2423 0.3556 0.8125
C26 C 0.29712(12) 0.5014(2) 0.80641(9)
H39 H 0.3206 0.5017 0.8457
C27 C 0.30850(12) 0.5873(2) 0.76785(10)
H40 H 0.3396 0.6480 0.7808
C28 C 0.27480(12) 0.58550(19) 0.71051(9)
H41 H 0.2843 0.6454 0.6850
C29 C 0.25728(12) 0.53674(18) 0.57981(9)
C30 C 0.32716(12) 0.49372(19) 0.59447(9)
H42 H 0.3356 0.4418 0.6262
C31 C 0.38414(13) 0.5235(2) 0.56478(10)
H43 H 0.4302 0.4920 0.5764
C32 C 0.37420(14) 0.5989(2) 0.51844(10)
H44 H 0.4132 0.6201 0.4981
C33 C 0.30690(14) 0.6426(2) 0.50224(10)
H45 H 0.2993 0.6942 0.4703
C34 C 0.24954(13) 0.61222(19) 0.53220(9)
H46 H 0.2036 0.6438 0.5199
B1 B 0.30769(14) 0.0004(2) 0.88191(10)
C11 C 0.34124(11) -0.12355(18) 0.90280(9)
C12 C 0.31700(12) -0.19005(19) 0.94706(9)
H27 H 0.2788 -0.1622 0.9664
C13 C 0.34623(12) -0.29474(19) 0.96390(9)
H28 H 0.3278 -0.3365 0.9941
C14 C 0.40179(12) -0.33812(19) 0.93703(9)
H29 H 0.4216 -0.4100 0.9480
C15 C 0.42832(12) -0.2748(2) 0.89362(9)
H30 H 0.4667 -0.3034 0.8747
C16 C 0.39910(12) -0.17031(19) 0.87778(9)
H31 H 0.4191 -0.1281 0.8486
C17 C 0.37200(12) 0.09493(19) 0.89574(9)
C18 C 0.42395(12) 0.0847(2) 0.94559(9)
H32 H 0.4260 0.0162 0.9674
C19 C 0.47207(12) 0.1694(2) 0.96427(10)
H33 H 0.5055 0.1589 0.9986
C20 C 0.47167(12) 0.2697(2) 0.93301(10)
H34 H 0.5042 0.3287 0.9459
C21 C 0.42301(12) 0.2822(2) 0.88269(10)
H35 H 0.4226 0.3499 0.8604
C22 C 0.37465(12) 0.19631(19) 0.86461(9)
H36 H 0.3421 0.2069 0.8297
C23 C 0.27273(11) -0.00028(19) 0.81202(9)
C24 C 0.28307(12) -0.08507(19) 0.77123(9)
H37 H 0.3147 -0.1455 0.7835
C25 C 0.24902(13) -0.0847(2) 0.71341(10)
H38 H 0.2577 -0.1444 0.6875
C26 C 0.20288(12) 0.0014(2) 0.69359(9)
H39 H 0.1794 0.0017 0.6543
C27 C 0.19150(12) 0.0873(2) 0.73215(10)
H40 H 0.1604 0.1480 0.7192
C28 C 0.22520(12) 0.08550(19) 0.78949(9)
H41 H 0.2157 0.1454 0.8150
C29 C 0.24272(12) 0.03674(18) 0.92019(9)
C30 C 0.17284(12) -0.00628(19) 0.90553(9)
H42 H 0.1644 -0.0582 0.8738
C31 C 0.11586(13) 0.0235(2) 0.93522(10)
H43 H 0.0698 -0.0080 0.9236
C32 C 0.12580(14) 0.0989(2) 0.98156(10)
H44 H 0.0868 0.1201 1.0019
C33 C 0.19310(14) 0.1426(2) 0.99776(10)
H45 H 0.2007 0.1942 1.0297
C34 C 0.25046(13) 0.11222(19) 0.96780(9)
H46 H 0.2964 0.1438 0.9801
B2 B 0.19083(14) 0.5422(2) 0.15079(10)
C35 C 0.21415(12) 0.55183(19) 0.22246(9)
C36 C 0.20359(13) 0.6460(2) 0.25728(9)
H47 H 0.1755 0.7069 0.2400
C37 C 0.23273(14) 0.6539(2) 0.31629(10)
H48 H 0.2250 0.7201 0.3381
C38 C 0.27279(14) 0.5663(2) 0.34323(10)
H49 H 0.2931 0.5719 0.3833
C39 C 0.28300(13) 0.4695(2) 0.31081(9)
H50 H 0.3090 0.4073 0.3289
C40 C 0.25495(13) 0.4648(2) 0.25191(10)
H51 H 0.2638 0.3990 0.2302
C41 C 0.26577(12) 0.5113(2) 0.12390(9)
C42 C 0.27330(13) 0.4241(2) 0.08428(9)
H52 H 0.2328 0.3783 0.0715
C43 C 0.33786(14) 0.4013(2) 0.06259(10)
H53 H 0.3407 0.3404 0.0359
C44 C 0.39719(14) 0.4663(2) 0.07961(11)
H54 H 0.4411 0.4517 0.0646
C45 C 0.39200(13) 0.5545(2) 0.11951(11)
H55 H 0.4327 0.6001 0.1320
C46 C 0.32786(12) 0.5751(2) 0.14066(10)
H56 H 0.3256 0.6352 0.1678
C47 C 0.13120(12) 0.4420(2) 0.13257(10)
C48 C 0.12340(13) 0.3453(2) 0.16619(11)
H57 H 0.1505 0.3398 0.2041
C49 C 0.07769(15) 0.2567(2) 0.14663(13)
H58 H 0.0748 0.1920 0.1708
C50 C 0.03657(15) 0.2627(2) 0.09225(14)
H59 H 0.0054 0.2026 0.0786
C51 C 0.04156(14) 0.3569(3) 0.05825(12)
H60 H 0.0132 0.3624 0.0209
C52 C 0.08744(13) 0.4441(2) 0.07779(11)
H61 H 0.0895 0.5083 0.0532
C53 C 0.15756(12) 0.66115(19) 0.12215(9)
C54 C 0.18638(12) 0.72305(19) 0.07841(9)
H62 H 0.2300 0.6978 0.0659
C55 C 0.15407(12) 0.8198(2) 0.05241(9)
H63 H 0.1759 0.8592 0.0232
C56 C 0.09044(12) 0.8582(2) 0.06905(9)
H64 H 0.0679 0.9236 0.0512
C57 C 0.05957(13) 0.8003(2) 0.11219(10)
H65 H 0.0158 0.8261 0.1242
C58 C 0.09289(13) 0.7047(2) 0.13774(10)
H66 H 0.0709 0.6666 0.1673
B2 B 0.30917(14) 0.0422(2) 0.34921(10)
C35 C 0.28585(12) 0.05183(19) 0.27754(9)
C36 C 0.29641(13) 0.1460(2) 0.24272(9)
H47 H 0.3245 0.2069 0.2600
C37 C 0.26727(14) 0.1539(2) 0.18371(10)
H48 H 0.2750 0.2201 0.1619
C38 C 0.22721(14) 0.0663(2) 0.15677(10)
H49 H 0.2069 0.0719 0.1167
C39 C 0.21700(13) -0.0305(2) 0.18919(9)
H50 H 0.1910 -0.0927 0.1711
C40 C 0.24505(13) -0.0352(2) 0.24809(10)
H51 H 0.2362 -0.1010 0.2698
C41 C 0.23423(12) 0.0113(2) 0.37610(9)
C42 C 0.22670(13) -0.0759(2) 0.41572(9)
H52 H 0.2672 -0.1217 0.4285
C43 C 0.16214(14) -0.0987(2) 0.43741(10)
H53 H 0.1593 -0.1596 0.4641
C44 C 0.10281(14) -0.0337(2) 0.42039(11)
H54 H 0.0589 -0.0483 0.4354
C45 C 0.10800(13) 0.0545(2) 0.38049(11)
H55 H 0.0673 0.1001 0.3680
C46 C 0.17214(12) 0.0751(2) 0.35934(10)
H56 H 0.1744 0.1352 0.3322
C47 C 0.36880(12) -0.0580(2) 0.36743(10)
C48 C 0.37660(13) -0.1547(2) 0.33381(11)
H57 H 0.3495 -0.1602 0.2959
C49 C 0.42231(15) -0.2433(2) 0.35337(13)
H58 H 0.4252 -0.3080 0.3292
C50 C 0.46343(15) -0.2373(2) 0.40775(14)
H59 H 0.4946 -0.2974 0.4214
C51 C 0.45844(14) -0.1431(3) 0.44175(12)
H60 H 0.4868 -0.1376 0.4791
C52 C 0.41256(13) -0.0559(2) 0.42221(11)
H61 H 0.4105 0.0083 0.4468
C53 C 0.34244(12) 0.16115(19) 0.37785(9)
C54 C 0.31362(12) 0.22305(19) 0.42159(9)
H62 H 0.2700 0.1978 0.4341
C55 C 0.34593(12) 0.3198(2) 0.44759(9)
H63 H 0.3241 0.3592 0.4768
C56 C 0.40956(12) 0.3582(2) 0.43095(9)
H64 H 0.4321 0.4236 0.4488
C57 C 0.44043(13) 0.3003(2) 0.38781(10)
H65 H 0.4842 0.3261 0.3758
C58 C 0.40711(13) 0.2047(2) 0.36226(10)
H66 H 0.4291 0.1666 0.3327
B2 B 0.80917(14) 0.4578(2) 0.84921(10)
C35 C 0.78585(12) 0.44817(19) 0.77754(9)
C36 C 0.79641(13) 0.3540(2) 0.74272(9)
H47 H 0.8245 0.2931 0.7600
C37 C 0.76727(14) 0.3461(2) 0.68371(10)
H48 H 0.7750 0.2799 0.6619
C38 C 0.72721(14) 0.4337(2) 0.65677(10)
H49 H 0.7069 0.4281 0.6167
C39 C 0.71700(13) 0.5305(2) 0.68919(9)
H50 H 0.6910 0.5927 0.6711
C40 C 0.74505(13) 0.5352(2) 0.74809(10)
H51 H 0.7362 0.6010 0.7698
C41 C 0.73423(12) 0.4887(2) 0.87610(9)
C42 C 0.72670(13) 0.5759(2) 0.91572(9)
H52 H 0.7672 0.6217 0.9285
C43 C 0.66214(14) 0.5987(2) 0.93741(10)
H53 H 0.6593 0.6596 0.9641
C44 C 0.60281(14) 0.5337(2) 0.92039(11)
H54 H 0.5589 0.5483 0.9354
C45 C 0.60800(13) 0.4455(2) 0.88049(11)
H55 H 0.5673 0.3999 0.8680
C46 C 0.67214(12) 0.4249(2) 0.85934(10)
H56 H 0.6744 0.3648 0.8322
C47 C 0.86880(12) 0.5580(2) 0.86743(10)
C48 C 0.87660(13) 0.6547(2) 0.83381(11)
H57 H 0.8495 0.6602 0.7959
C49 C 0.92231(15) 0.7433(2) 0.85337(13)
H58 H 0.9252 0.8080 0.8292
C50 C 0.96343(15) 0.7373(2) 0.90775(14)
H59 H 0.9946 0.7974 0.9214
C51 C 0.95844(14) 0.6431(3) 0.94175(12)
H60 H 0.9868 0.6376 0.9791
C52 C 0.91256(13) 0.5559(2) 0.92221(11)
H61 H 0.9105 0.4917 0.9468
C53 C 0.84244(12) 0.33885(19) 0.87785(9)
C54 C 0.81362(12) 0.27695(19) 0.92159(9)
H62 H 0.7700 0.3022 0.9341
C55 C 0.84593(12) 0.1802(2) 0.94759(9)
H63 H 0.8241 0.1408 0.9768
C56 C 0.90956(12) 0.1418(2) 0.93095(9)
H64 H 0.9321 0.0764 0.9488
C57 C 0.94043(13) 0.1997(2) 0.88781(10)
H65 H 0.9842 0.1739 0.8758
C58 C 0.90711(13) 0.2953(2) 0.86226(10)
H66 H 0.9291 0.3334 0.8327
B2 B 0.69083(14) 0.9578(2) 0.65079(10)
C35 C 0.71415(12) 0.94817(19) 0.72246(9)
C36 C 0.70359(13) 0.8540(2) 0.75728(9)
H47 H 0.6755 0.7931 0.7400
C37 C 0.73273(14) 0.8461(2) 0.81629(10)
H48 H 0.7250 0.7799 0.8381
C38 C 0.77279(14) 0.9337(2) 0.84323(10)
H49 H 0.7931 0.9281 0.8833
C39 C 0.78300(13) 1.0305(2) 0.81081(9)
H50 H 0.8090 1.0927 0.8289
C40 C 0.75495(13) 1.0352(2) 0.75191(10)
H51 H 0.7638 1.1010 0.7302
C41 C 0.76577(12) 0.9887(2) 0.62390(9)
C42 C 0.77330(13) 1.0759(2) 0.58428(9)
H52 H 0.7328 1.1217 0.5715
C43 C 0.83786(14) 1.0987(2) 0.56259(10)
H53 H 0.8407 1.1596 0.5359
C44 C 0.89719(14) 1.0337(2) 0.57961(11)
H54 H 0.9411 1.0483 0.5646
C45 C 0.89200(13) 0.9455(2) 0.61951(11)
H55 H 0.9327 0.8999 0.6320
C46 C 0.82786(12) 0.9249(2) 0.64066(10)
H56 H 0.8256 0.8648 0.6678
C47 C 0.63120(12) 1.0580(2) 0.63257(10)
C48 C 0.62340(13) 1.1547(2) 0.66619(11)
H57 H 0.6505 1.1602 0.7041
C49 C 0.57769(15) 1.2433(2) 0.64663(13)
H58 H 0.5748 1.3080 0.6708
C50 C 0.53657(15) 1.2373(2) 0.59225(14)
H59 H 0.5054 1.2974 0.5786
C51 C 0.54156(14) 1.1431(3) 0.55825(12)
H60 H 0.5132 1.1376 0.5209
C52 C 0.58744(13) 1.0559(2) 0.57779(11)
H61 H 0.5895 0.9917 0.5532
C53 C 0.65756(12) 0.83885(19) 0.62215(9)
C54 C 0.68638(12) 0.77695(19) 0.57841(9)
H62 H 0.7300 0.8022 0.5659
C55 C 0.65407(12) 0.6802(2) 0.55241(9)
H63 H 0.6759 0.6408 0.5232
C56 C 0.59044(12) 0.6418(2) 0.56905(9)
H64 H 0.5679 0.5764 0.5512
C57 C 0.55957(13) 0.6997(2) 0.61219(10)
H65 H 0.5158 0.6739 0.6242
C58 C 0.59289(13) 0.7953(2) 0.63774(10)
H66 H 0.5709 0.8334 0.6673
N5 N 0.96103(13) 0.7488(2) 0.23894(9)
C59 C 0.98181(17) 0.8382(3) 0.24094(11)
C60 C 1.0050(3) 0.9561(3) 0.24196(17)
H67 H 1.0199 0.9759 0.2038
H68 H 1.0455 0.9664 0.2730
H69 H 0.9652 1.0049 0.2498
N5 N 0.53897(13) 0.2488(2) 0.26106(9)
C59 C 0.51819(17) 0.3382(3) 0.25906(11)
C60 C 0.4950(3) 0.4561(3) 0.25804(17)
H67 H 0.4801 0.4759 0.2962
H68 H 0.4545 0.4664 0.2270
H69 H 0.5348 0.5049 0.2502
N5 N 0.03897(13) 0.2512(2) 0.76106(9)
C59 C 0.01819(17) 0.1618(3) 0.75906(11)
C60 C -0.0050(3) 0.0439(3) 0.75804(17)
H67 H -0.0199 0.0241 0.7962
H68 H -0.0455 0.0336 0.7270
H69 H 0.0348 -0.0049 0.7502
N5 N 0.46103(13) 0.7512(2) 0.73894(9)
C59 C 0.48181(17) 0.6618(3) 0.74094(11)
C60 C 0.5050(3) 0.5439(3) 0.74196(17)
H67 H 0.5199 0.5241 0.7038
H68 H 0.5455 0.5336 0.7730
H69 H 0.4652 0.4951 0.7498

#END
