./ACEJEX_from_POSCAR.cif_generated_by_CrystalShift
_symmetry_cell_setting triclinic
_symmetry_space_group_name_H-M 'P 1'
loop_
_symmetry_equiv_pos_site_id
_symmetry_equiv_pos_as_xyz
1 x,y,z
_cell_length_a 22.686000
_cell_length_b 9.309000
_cell_length_c 23.114000
_cell_angle_alpha 90.000000
_cell_angle_beta 98.123000
_cell_angle_gamma 90.000000
_cell_volume 4832.332309
loop_
_atom_site_label
_atom_site_type_symbol
_atom_site_fract_x
_atom_site_fract_y
_atom_site_fract_z
H1 H 0.161100 0.460700 0.993400
H2 H 0.122600 0.585300 1.014100
H3 H 0.367200 0.576500 0.051400
H4 H 0.583200 0.280600 0.157400
H5 H 0.558200 0.417800 0.230900
H6 H 0.475300 0.564900 0.217600
H7 H 0.415500 0.576800 0.127700
H8 H 0.420700 0.340700 -0.047000
H9 H 0.446700 0.195000 -0.108500
H10 H 0.473000 0.035700 -0.176900
H11 H 0.560100 -0.088300 -0.156400
H12 H 0.617400 -0.072200 -0.066200
H13 H 0.571000 0.196000 0.057000
H14 H 0.338900 0.460700 0.006600
H15 H 0.661100 0.960700 0.493400
H16 H 0.622600 1.085300 0.514100
H17 H 0.632800 1.076500 0.448600
H18 H 0.416800 0.780600 0.342600
H19 H 0.365900 0.823400 0.159200
H20 H 0.303600 0.856600 0.074000
H21 H 0.214500 0.740300 0.056100
H22 H 0.185100 0.595400 0.127700
H23 H 0.163100 0.434600 0.186800
H24 H 0.167800 0.175400 0.358800
H25 H 0.233200 0.174400 0.444900
H26 H 0.317600 0.318300 0.455500
H27 H 0.334300 0.471500 0.383500
H28 H 0.113200 0.184300 0.281700
H29 H 0.123100 0.182300 0.215900
H30 H 0.084100 0.303100 0.238800
H31 H 0.327700 0.580900 0.286800
H32 H 0.132800 0.576500 0.948600
H33 H -0.083200 0.280600 0.842600
H34 H 0.441800 0.917800 0.269100
H35 H 0.524700 1.064900 0.282400
H36 H 0.584500 1.076800 0.372300
H37 H 0.579300 0.840700 0.547000
H38 H 0.553300 0.695000 0.608500
H39 H 0.527000 0.535700 0.676900
H40 H 0.439900 0.411700 0.656400
H41 H 0.382600 0.427800 0.566200
H42 H 0.429000 0.696000 0.443000
H43 H 0.838900 0.960700 0.506600
H44 H 0.877400 1.085300 0.485900
H45 H 0.867200 1.076500 0.551400
H46 H 1.083200 0.780600 0.657400
H47 H 1.058200 0.917800 0.730900
H48 H 0.975300 1.064900 0.717600
H49 H 0.915500 1.076800 0.627700
H50 H 0.134100 0.823400 0.840800
H51 H 0.196400 0.856600 0.926000
H52 H 0.285500 0.740300 0.943900
H53 H 0.314900 0.595400 0.872300
H54 H 0.336900 0.434600 0.813200
H55 H 0.332200 0.175400 0.641200
H56 H 0.266800 0.174400 0.555100
H57 H 0.182400 0.318300 0.544500
H58 H 0.165700 0.471500 0.616500
H59 H 0.386800 0.184300 0.718300
H60 H 0.376900 0.182300 0.784100
H61 H 0.415900 0.303100 0.761200
H62 H 0.172300 0.580900 0.713200
H63 H -0.058200 0.417800 0.769100
H64 H 0.024700 0.564900 0.782400
H65 H 0.920700 0.840700 0.453000
H66 H 0.946700 0.695000 0.391500
H67 H 0.973000 0.535700 0.323100
H68 H 1.060100 0.411700 0.343600
H69 H 1.117400 0.427800 0.433800
H70 H 1.071000 0.696000 0.557000
H71 H 0.838900 0.539300 0.006600
H72 H 0.877400 0.414700 -0.014100
H73 H 0.867200 0.423500 0.051400
H74 H 1.083200 0.719400 0.157400
H75 H 1.058200 0.582200 0.230900
H76 H 0.975300 0.435100 0.217600
H77 H 0.915500 0.423200 0.127700
H78 H 0.920700 0.659300 -0.047000
H79 H 0.946700 0.805000 -0.108500
H80 H 0.973000 0.964300 -0.176900
H81 H 0.865900 1.323400 0.659200
H82 H 0.803600 1.356600 0.574000
H83 H 0.714500 1.240300 0.556100
H84 H 0.685100 1.095400 0.627700
H85 H 0.663100 0.934600 0.686800
H86 H 0.667800 0.675400 0.858800
H87 H 0.733200 0.674400 0.944900
H88 H 0.817600 0.818300 0.955500
H89 H 0.834300 0.971500 0.883500
H90 H 0.613200 0.684300 0.781700
H91 H 0.623100 0.682300 0.715900
H92 H 0.584100 0.803100 0.738800
H93 H 0.827700 1.080900 0.786800
H94 H 0.084500 0.576800 0.872300
H95 H 0.079300 0.340700 1.047000
H96 H 1.060100 1.088300 -0.156400
H97 H 1.117400 1.072200 -0.066200
H98 H 1.071000 0.804000 0.057000
H99 H 0.661100 0.539300 0.993400
H100 H 0.622600 0.414700 1.014100
H101 H 0.632800 0.423500 0.948600
H102 H 0.416800 0.719400 0.842600
H103 H 0.441800 0.582200 0.769100
H104 H 0.524700 0.435100 0.782400
H105 H 0.584500 0.423200 0.872300
H106 H 0.579300 0.659300 1.047000
H107 H 0.553300 0.805000 1.108500
H108 H 0.527000 0.964300 1.176900
H109 H 0.439900 1.088300 1.156400
H110 H 0.382600 1.072200 1.066200
H111 H 0.429000 0.804000 0.943000
H112 H 0.634100 1.323400 0.340800
H113 H 0.696400 1.356600 0.426000
H114 H 0.785500 1.240300 0.443900
H115 H 0.814900 1.095400 0.372300
H116 H 0.836900 0.934600 0.313200
H117 H 0.832200 0.675400 0.141200
H118 H 0.766800 0.674400 0.055100
H119 H 0.682400 0.818300 0.044500
H120 H 0.665700 0.971500 0.116500
H121 H 0.886800 0.684300 0.218300
H122 H 0.876900 0.682300 0.284100
H123 H 0.915900 0.803100 0.261200
H124 H 0.672300 1.080900 0.213200
H125 H 0.053300 0.195000 1.108500
H126 H 0.027000 0.035700 1.176900
H127 H 0.338900 0.039300 0.506600
H128 H 0.377400 -0.085300 0.485900
H129 H 0.367200 -0.076500 0.551400
H130 H 0.583200 0.219400 0.657400
H131 H 0.558200 0.082200 0.730900
H132 H 0.475300 -0.064900 0.717600
H133 H 0.415500 -0.076800 0.627700
H134 H 0.420700 0.159300 0.453000
H135 H 0.446700 0.305000 0.391500
H136 H 0.473000 0.464300 0.323100
H137 H 0.560100 0.588300 0.343600
H138 H 0.617400 0.572200 0.433800
H139 H 0.571000 0.304000 0.557000
H140 H 0.161100 0.039300 0.493400
H141 H 0.122600 -0.085300 0.514100
H142 H 0.132800 -0.076500 0.448600
H143 H 0.634100 0.176600 0.840800
H144 H 0.696400 0.143400 0.926000
H145 H 0.785500 0.259700 0.943900
H146 H 0.814900 0.404600 0.872300
H147 H 0.836900 0.565400 0.813200
H148 H 0.832200 0.824600 0.641200
H149 H 0.766800 0.825600 0.555100
H150 H 0.682400 0.681700 0.544500
H151 H 0.665700 0.528500 0.616500
H152 H 0.886800 0.815700 0.718300
H153 H 0.876900 0.817700 0.784100
H154 H 0.915900 0.696900 0.761200
H155 H 0.672300 0.419100 0.713200
H156 H -0.060100 -0.088300 1.156400
H157 H -0.117400 -0.072200 1.066200
H158 H -0.083200 0.219400 0.342600
H159 H -0.058200 0.082200 0.269100
H160 H 0.024700 -0.064900 0.282400
H161 H 0.084500 -0.076800 0.372300
H162 H 0.079300 0.159300 0.547000
H163 H 0.053300 0.305000 0.608500
H164 H 0.027000 0.464300 0.676900
H165 H -0.060100 0.588300 0.656400
H166 H -0.117400 0.572200 0.566200
H167 H -0.071000 0.304000 0.443000
H168 H 0.327700 -0.080900 0.786800
H169 H 0.084100 0.196900 0.738800
H170 H 0.123100 0.317700 0.715900
H171 H 0.113200 0.315700 0.781700
H172 H 0.334300 0.028500 0.883500
H173 H 0.317600 0.181700 0.955500
H174 H 0.865900 0.176600 0.159200
H175 H 0.803600 0.143400 0.074000
H176 H 0.714500 0.259700 0.056100
H177 H 0.685100 0.404600 0.127700
H178 H 0.663100 0.565400 0.186800
H179 H 0.667800 0.824600 0.358800
H180 H 0.733200 0.825600 0.444900
H181 H 0.817600 0.681700 0.455500
H182 H 0.834300 0.528500 0.383500
H183 H 0.613200 0.815700 0.281700
H184 H 0.623100 0.817700 0.215900
H185 H 0.584100 0.696900 0.238800
H186 H 0.827700 0.419100 0.286800
H187 H -0.071000 0.196000 0.943000
H188 H 0.233200 0.325600 0.944900
H189 H 0.167800 0.324600 0.858800
H190 H 0.163100 0.065400 0.686800
H191 H 0.185100 -0.095400 0.627700
H192 H 0.214500 -0.240300 0.556100
H193 H 0.303600 -0.356600 0.574000
H194 H 0.365900 -0.323400 0.659200
H195 H 0.377400 0.585300 -0.014100
H196 H 0.172300 -0.080900 0.213200
H197 H 0.415900 0.196900 0.261200
H198 H 0.376900 0.317700 0.284100
H199 H 0.386800 0.315700 0.218300
H200 H 0.165700 0.028500 0.116500
H201 H 0.182400 0.181700 0.044500
H202 H 0.266800 0.325600 0.055100
H203 H 0.332200 0.324600 0.141200
H204 H 0.336900 0.065400 0.313200
H205 H 0.134100 -0.323400 0.340800
H206 H 0.196400 -0.356600 0.426000
H207 H 0.285500 -0.240300 0.443900
H208 H 0.314900 -0.095400 0.372300
C209 C 0.381600 0.257100 0.251400
C210 C 0.238500 0.082300 0.175000
C211 C 0.199000 0.087900 0.121800
C212 C 0.209100 0.177800 0.078900
C213 C 0.259700 0.265600 0.085600
C214 C 0.299100 0.264300 0.136800
C215 C 0.289200 0.171800 0.182200
C216 C 0.327300 0.165300 0.236800
C217 C 0.312100 0.071400 0.277700
C218 C -0.014600 0.342500 0.905500
C219 C -0.049700 0.339300 0.849100
C220 C 0.312800 -0.188500 0.697900
C221 C 0.329200 -0.277000 0.653600
C222 C 0.292100 -0.295700 0.602200
C223 C 0.239000 -0.228100 0.591500
C224 C 0.222100 -0.140100 0.634600
C225 C 0.258100 -0.115500 0.688000
C226 C 0.239600 -0.018000 0.730900
C227 C 0.187900 0.071400 0.722300
C228 C 0.172700 0.165300 0.763200
C229 C 0.210800 0.171800 0.817800
C230 C 0.200900 0.264300 0.863200
C231 C 0.240300 0.265600 0.914400
C232 C 0.290900 0.177800 0.921100
C233 C 0.260400 -0.018000 0.269100
C234 C 0.261500 0.082300 0.825000
C235 C 0.118400 0.257100 0.748600
C236 C 0.241900 -0.115500 0.312000
C237 C 0.277900 -0.140100 0.365400
C238 C 0.261000 -0.228100 0.408500
C239 C 0.207900 -0.295700 0.397800
C240 C 0.170800 -0.277000 0.346400
C241 C 0.187200 -0.188500 0.302100
C242 C 0.127200 0.521400 0.982500
C243 C 0.618400 0.757100 0.248600
C244 C 0.761500 0.582300 0.325000
C245 C 0.801000 0.587900 0.378200
C246 C 0.790900 0.677800 0.421100
C247 C 0.740300 0.765600 0.414400
C248 C 0.700900 0.764300 0.363200
C249 C -0.067800 0.424400 0.532100
C250 C -0.034700 0.420700 0.805500
C251 C 0.015400 0.509700 0.813400
C252 C -0.083100 0.516700 0.574200
C253 C -0.048100 0.527800 0.628200
C254 C 0.003000 0.452900 0.641100
C255 C 0.018800 0.359300 0.599700
C256 C -0.015800 0.343400 0.544800
C257 C 0.003200 0.245300 0.501700
C258 C 0.055700 0.156500 0.510700
C259 C 0.072600 0.069100 0.469000
C260 C 0.036600 0.070900 0.413200
C261 C 0.051500 -0.016600 0.366800
C262 C 0.015400 -0.009700 0.313400
C263 C -0.034700 0.079300 0.305500
C264 C -0.049700 0.160700 0.349100
C265 C -0.014600 0.157500 0.405500
C266 C 0.127200 -0.021400 0.482500
C267 C 0.710800 0.671800 0.317800
C268 C 0.672700 0.665300 0.263200
C269 C 0.687900 0.571400 0.222300
C270 C 0.739600 0.482000 0.230900
C271 C 0.758100 0.384500 0.188000
C272 C 0.722100 0.359900 0.134600
C273 C 0.739000 0.271900 0.091500
C274 C 0.792100 0.204300 0.102200
C275 C 0.829200 0.223000 0.153600
C276 C 0.812800 0.311500 0.197900
C277 C 0.881600 0.757100 0.751400
C278 C 0.738500 0.582300 0.675000
C279 C 0.699000 0.587900 0.621800
C280 C 0.567800 0.424400 0.467900
C281 C 0.051500 0.516600 0.866800
C282 C 0.036600 0.429100 0.913200
C283 C 0.583100 0.516700 0.425800
C284 C 0.548100 0.527800 0.371800
C285 C 0.497000 0.452900 0.358900
C286 C 0.481200 0.359300 0.400300
C287 C 0.515800 0.343400 0.455200
C288 C 0.496800 0.245300 0.498300
C289 C 0.444300 0.156500 0.489300
C290 C 0.427400 0.069100 0.531000
C291 C 0.463400 0.070900 0.586800
C292 C 0.448500 -0.016600 0.633200
C293 C 0.484600 -0.009700 0.686600
C294 C 0.534700 0.079300 0.694500
C295 C 0.549700 0.160700 0.650900
C296 C 0.514600 0.157500 0.594500
C297 C 0.372800 -0.021400 0.517500
C298 C 0.709100 0.677800 0.578900
C299 C 0.759700 0.765600 0.585600
C300 C 0.799100 0.764300 0.636800
C301 C 0.789200 0.671800 0.682200
C302 C 0.827300 0.665300 0.736800
C303 C 0.812100 0.571400 0.777700
C304 C 0.760400 0.482000 0.769100
C305 C 0.741900 0.384500 0.812000
C306 C 0.777900 0.359900 0.865400
C307 C 0.761000 0.271900 0.908500
C308 C 0.707900 0.204300 0.897800
C309 C 0.670800 0.223000 0.846400
C310 C 0.687200 0.311500 0.802100
C311 C 0.432200 0.924400 1.032100
C312 C 0.072600 0.430900 0.969000
C313 C 0.055700 0.343500 1.010700
C314 C 0.416900 1.016700 1.074200
C315 C 0.451900 1.027800 1.128200
C316 C 0.503000 0.952900 1.141100
C317 C 0.518800 0.859300 1.099700
C318 C 0.484200 0.843400 1.044800
C319 C 0.503200 0.745300 1.001700
C320 C 0.555700 0.656500 1.010700
C321 C 0.572600 0.569100 0.969000
C322 C 0.536600 0.570900 0.913200
C323 C 0.551500 0.483400 0.866800
C324 C 0.515400 0.490300 0.813400
C325 C 0.465300 0.579300 0.805500
C326 C 0.450300 0.660700 0.849100
C327 C 0.485400 0.657500 0.905500
C328 C 0.627200 0.478600 0.982500
C329 C 0.881600 0.742900 0.251400
C330 C 0.738500 0.917700 0.175000
C331 C 0.699000 0.912100 0.121800
C332 C 0.709100 0.822200 0.078900
C333 C 0.759700 0.734400 0.085600
C334 C 0.799100 0.735700 0.136800
C335 C 0.789200 0.828200 0.182200
C336 C 0.827300 0.834700 0.236800
C337 C 0.812100 0.928600 0.277700
C338 C 0.760400 1.018000 0.269100
C339 C 0.741900 1.115500 0.312000
C340 C 0.777900 1.140100 0.365400
C341 C 0.761000 1.228100 0.408500
C342 C 1.067800 0.924400 -0.032100
C343 C 0.003200 0.254700 1.001700
C344 C -0.015800 0.156600 1.044800
C345 C 1.083100 1.016700 -0.074200
C346 C 1.048100 1.027800 -0.128200
C347 C 0.997000 0.952900 -0.141100
C348 C 0.981200 0.859300 -0.099700
C349 C 1.015800 0.843400 -0.044800
C350 C 0.996800 0.745300 -0.001700
C351 C 0.944300 0.656500 -0.010700
C352 C 0.927400 0.569100 0.031000
C353 C 0.963400 0.570900 0.086800
C354 C 0.948500 0.483400 0.133200
C355 C 0.984600 0.490300 0.186600
C356 C 1.034700 0.579300 0.194500
C357 C 1.049700 0.660700 0.150900
C358 C 1.014600 0.657500 0.094500
C359 C 0.872800 0.478600 0.017500
C360 C 0.707900 1.295700 0.397800
C361 C 0.670800 1.277000 0.346400
C362 C 0.687200 1.188500 0.302100
C363 C 0.618400 0.742900 0.748600
C364 C 0.761500 0.917700 0.825000
C365 C 0.801000 0.912100 0.878200
C366 C 0.790900 0.822200 0.921100
C367 C 0.740300 0.734400 0.914400
C368 C 0.700900 0.735700 0.863200
C369 C 0.710800 0.828200 0.817800
C370 C 0.672700 0.834700 0.763200
C371 C 0.687900 0.928600 0.722300
C372 C 0.739600 1.018000 0.730900
C373 C 1.067800 0.575600 0.467900
C374 C 0.018800 0.140700 1.099700
C375 C 0.003000 0.047100 1.141100
C376 C 1.083100 0.483300 0.425800
C377 C 1.048100 0.472200 0.371800
C378 C 0.997000 0.547100 0.358900
C379 C 0.981200 0.640700 0.400300
C380 C 1.015800 0.656600 0.455200
C381 C 0.996800 0.754700 0.498300
C382 C 0.944300 0.843500 0.489300
C383 C 0.927400 0.930900 0.531000
C384 C 0.963400 0.929100 0.586800
C385 C 0.948500 1.016600 0.633200
C386 C 0.984600 1.009700 0.686600
C387 C 1.034700 0.920700 0.694500
C388 C 1.049700 0.839300 0.650900
C389 C 1.014600 0.842500 0.594500
C390 C 0.872800 1.021400 0.517500
C391 C 0.758100 1.115500 0.688000
C392 C 0.722100 1.140100 0.634600
C393 C 0.739000 1.228100 0.591500
C394 C 0.792100 1.295700 0.602200
C395 C 0.829200 1.277000 0.653600
C396 C 0.812800 1.188500 0.697900
C397 C 0.381600 0.242900 0.751400
C398 C 0.238500 0.417700 0.675000
C399 C 0.199000 0.412100 0.621800
C400 C 0.209100 0.322200 0.578900
C401 C 0.259700 0.234400 0.585600
C402 C 0.299100 0.235700 0.636800
C403 C 0.289200 0.328200 0.682200
C404 C 0.432200 0.575600 0.532100
C405 C -0.048100 -0.027800 1.128200
C406 C -0.083100 -0.016700 1.074200
C407 C 0.416900 0.483300 0.574200
C408 C 0.451900 0.472200 0.628200
C409 C 0.503000 0.547100 0.641100
C410 C 0.518800 0.640700 0.599700
C411 C 0.484200 0.656600 0.544800
C412 C 0.503200 0.754700 0.501700
C413 C 0.555700 0.843500 0.510700
C414 C 0.572600 0.930900 0.469000
C415 C 0.536600 0.929100 0.413200
C416 C 0.551500 1.016600 0.366800
C417 C 0.515400 1.009700 0.313400
C418 C 0.465300 0.920700 0.305500
C419 C 0.450300 0.839300 0.349100
C420 C 0.485400 0.842500 0.405500
C421 C 0.627200 1.021400 0.482500
C422 C 0.327300 0.334700 0.736800
C423 C 0.312100 0.428600 0.777700
C424 C 0.260400 0.518000 0.769100
C425 C 0.241900 0.615500 0.812000
C426 C 0.277900 0.640100 0.865400
C427 C 0.261000 0.728100 0.908500
C428 C 0.207900 0.795700 0.897800
C429 C 0.170800 0.777000 0.846400
C430 C 0.187200 0.688500 0.802100
C431 C 0.118400 0.242900 0.248600
C432 C 0.261500 0.417700 0.325000
C433 C 0.301000 0.412100 0.378200
C434 C 0.290900 0.322200 0.421100
C435 C 0.567800 0.075600 -0.032100
C436 C -0.067800 0.075600 1.032100
C437 C 0.240300 0.234400 0.414400
C438 C 0.583100 -0.016700 -0.074200
C439 C 0.548100 -0.027800 -0.128200
C440 C 0.497000 0.047100 -0.141100
C441 C 0.481200 0.140700 -0.099700
C442 C 0.515800 0.156600 -0.044800
C443 C 0.496800 0.254700 -0.001700
C444 C 0.444300 0.343500 -0.010700
C445 C 0.427400 0.430900 0.031000
C446 C 0.463400 0.429100 0.086800
C447 C 0.448500 0.516600 0.133200
C448 C 0.484600 0.509700 0.186600
C449 C 0.534700 0.420700 0.194500
C450 C 0.549700 0.339300 0.150900
C451 C 0.514600 0.342500 0.094500
C452 C 0.372800 0.521400 0.017500
C453 C 0.200900 0.235700 0.363200
C454 C 0.210800 0.328200 0.317800
C455 C 0.172700 0.334700 0.263200
C456 C 0.187900 0.428600 0.222300
C457 C 0.239600 0.518000 0.230900
C458 C 0.258100 0.615500 0.188000
C459 C 0.222100 0.640100 0.134600
C460 C 0.239000 0.728100 0.091500
C461 C 0.292100 0.795700 0.102200
C462 C 0.329200 0.777000 0.153600
C463 C 0.312800 0.688500 0.197900
C464 C 0.301000 0.087900 0.878200
N465 N 0.529000 0.260800 0.051200
N466 N 0.224700 0.507500 0.718100
N467 N 0.775300 1.007500 0.781900
N468 N -0.029000 0.260800 0.948800
N469 N 0.471000 0.760800 0.448800
N470 N 0.724700 1.007500 0.218100
N471 N 1.029000 0.760800 0.551200
N472 N 0.724700 0.492500 0.718100
N473 N 1.029000 0.739200 0.051200
N474 N 0.775300 0.492500 0.281900
N475 N 0.471000 0.739200 0.948800
N476 N 0.224700 -0.007500 0.218100
N477 N 0.529000 0.239200 0.551200
N478 N 0.275300 -0.007500 0.781900
N479 N -0.029000 0.239200 0.448800
N480 N 0.275300 0.507500 0.281900
O481 O -0.103500 0.417300 0.479900
O482 O 0.603500 0.417300 0.520100
O483 O 0.149300 -0.172300 0.252200
O484 O 0.396500 0.917300 0.979900
O485 O 0.850700 0.327700 0.247800
O486 O 1.103500 0.917300 0.020100
O487 O 0.649300 0.327700 0.752200
O488 O 1.103500 0.582700 0.520100
O489 O 0.649300 1.172300 0.252200
O490 O 0.396500 0.582700 0.479900
O491 O 0.850700 1.172300 0.747800
O492 O -0.103500 0.082700 0.979900
O493 O 0.149300 0.672300 0.752200
O494 O 0.603500 0.082700 0.020100
O495 O 0.350700 0.672300 0.247800
O496 O 0.350700 -0.172300 0.747800

#END
