./AACFAZ10_from_POSCAR.cif_generated_by_CrystalShift
_symmetry_cell_setting triclinic
_symmetry_space_group_name_H-M 'P 1'
loop_
_symmetry_equiv_pos_site_id
_symmetry_equiv_pos_as_xyz
1 x,y,z
_cell_length_a 20.132000
_cell_length_b 6.162000
_cell_length_c 19.954000
_cell_angle_alpha 90.000000
_cell_angle_beta 90.000000
_cell_angle_gamma 90.000000
_cell_volume 2475.361224
loop_
_atom_site_label
_atom_site_type_symbol
_atom_site_fract_x
_atom_site_fract_y
_atom_site_fract_z
H1 H 0.343000 0.570000 0.757000
H2 H 1.191000 1.651000 0.684000
H3 H 1.203000 1.441000 0.725000
H4 H 1.193000 1.100000 0.455000
H5 H 1.072000 1.225000 0.245000
H6 H 1.218000 0.884000 0.358000
H7 H 1.059000 1.509000 0.458000
H8 H 1.157000 0.930000 0.257000
H9 H 1.106000 1.000000 0.625000
H10 H 1.059000 1.077000 0.651000
H11 H 1.045000 0.859000 0.604000
H12 H 0.753000 0.491000 0.347000
H13 H 0.809000 0.349000 0.316000
H14 H 0.797000 0.559000 0.275000
H15 H 0.894000 1.000000 0.375000
H16 H 0.282000 0.616000 0.858000
H17 H 0.428000 0.275000 0.745000
H18 H 0.941000 0.923000 0.349000
H19 H 0.307000 0.600000 0.455000
H20 H 0.282000 0.384000 0.358000
H21 H 0.343000 0.430000 0.257000
H22 H 0.428000 0.725000 0.245000
H23 H 0.441000 1.009000 0.458000
H24 H 0.455000 0.359000 0.604000
H25 H 0.441000 0.577000 0.651000
H26 H 0.394000 0.500000 0.625000
H27 H 0.297000 0.941000 0.725000
H28 H 0.309000 1.151000 0.684000
H29 H 0.253000 1.009000 0.653000
H30 H 0.955000 1.141000 0.396000
H31 H 0.941000 0.491000 0.542000
H32 H 0.928000 0.775000 0.755000
H33 H 0.843000 1.070000 0.743000
H34 H 0.782000 1.116000 0.642000
H35 H 0.807000 0.900000 0.545000
H36 H 0.545000 0.641000 0.396000
H37 H 0.559000 0.423000 0.349000
H38 H 0.606000 0.500000 0.375000
H39 H 1.157000 -0.070000 0.257000
H40 H 0.253000 -0.009000 1.153000
H41 H 0.559000 -0.009000 0.542000
H42 H 1.218000 -0.116000 0.358000
H43 H 0.309000 -0.151000 1.184000
H44 H 1.072000 0.225000 0.245000
H45 H 1.247000 0.509000 0.653000
H46 H 0.297000 0.059000 1.225000
H47 H 1.191000 0.651000 0.684000
H48 H 0.307000 0.400000 0.955000
H49 H 1.203000 0.441000 0.725000
H50 H 1.193000 0.100000 0.455000
H51 H 0.693000 0.400000 0.545000
H52 H 0.703000 0.059000 0.275000
H53 H 0.691000 -0.151000 0.316000
H54 H 0.747000 -0.009000 0.347000
H55 H 1.059000 0.509000 0.458000
H56 H 0.572000 0.275000 0.755000
H57 H 0.718000 0.616000 0.642000
H58 H 0.657000 0.570000 0.743000
H59 H 1.106000 0.000000 0.625000
H60 H 1.059000 0.077000 0.651000
H61 H 1.045000 -0.141000 0.604000
H62 H 0.753000 -0.509000 0.347000
H63 H 0.809000 -0.651000 0.316000
H64 H 0.797000 -0.441000 0.275000
H65 H 0.894000 0.000000 0.375000
H66 H 0.941000 -0.077000 0.349000
H67 H 0.955000 0.141000 0.396000
H68 H 0.941000 -0.509000 0.542000
H69 H 0.928000 -0.225000 0.755000
H70 H 0.843000 0.070000 0.743000
H71 H 0.782000 0.116000 0.642000
H72 H 0.807000 -0.100000 0.545000
H73 H 0.157000 0.930000 0.257000
H74 H 0.218000 0.884000 0.358000
H75 H 0.072000 1.225000 0.245000
H76 H 0.247000 1.509000 0.653000
H77 H 0.193000 -0.100000 -0.045000
H78 H 0.218000 0.116000 -0.142000
H79 H 0.157000 0.070000 -0.243000
H80 H 0.072000 -0.225000 -0.255000
H81 H 0.059000 -0.509000 -0.042000
H82 H 0.045000 0.141000 0.104000
H83 H 0.059000 -0.077000 0.151000
H84 H 0.106000 0.000000 0.125000
H85 H 0.203000 -0.441000 0.225000
H86 H 0.191000 -0.651000 0.184000
H87 H 0.247000 -0.509000 0.153000
H88 H 0.191000 1.651000 0.684000
H89 H 0.203000 1.441000 0.725000
H90 H 0.193000 1.100000 0.455000
H91 H 0.693000 0.600000 0.045000
H92 H 0.059000 1.509000 0.458000
H93 H 0.718000 0.384000 0.142000
H94 H -0.045000 -0.141000 -0.104000
H95 H -0.059000 0.077000 -0.151000
H96 H -0.106000 0.000000 -0.125000
H97 H 0.106000 1.000000 0.625000
H98 H 0.059000 1.077000 0.651000
H99 H -0.059000 0.509000 0.042000
H100 H 0.045000 0.859000 0.604000
H101 H -0.247000 0.491000 0.347000
H102 H -0.191000 0.349000 0.316000
H103 H -0.203000 0.559000 0.275000
H104 H 0.441000 -0.009000 0.958000
H105 H -0.106000 1.000000 0.375000
H106 H -0.059000 0.923000 0.349000
H107 H -0.045000 1.141000 0.396000
H108 H -0.059000 0.491000 0.542000
H109 H -0.193000 0.100000 0.045000
H110 H -0.203000 0.441000 -0.225000
H111 H -0.191000 0.651000 -0.184000
H112 H -0.247000 0.509000 -0.153000
H113 H -0.072000 0.775000 0.755000
H114 H -0.072000 0.225000 0.255000
H115 H -0.218000 -0.116000 0.142000
H116 H -0.157000 -0.070000 0.243000
H117 H 0.394000 0.500000 1.125000
H118 H -0.157000 1.070000 0.743000
H119 H -0.218000 1.116000 0.642000
H120 H -0.193000 0.900000 0.545000
H121 H 0.657000 0.430000 0.243000
H122 H 0.572000 0.725000 0.255000
H123 H 0.559000 1.009000 0.042000
H124 H 0.545000 0.359000 -0.104000
H125 H 0.157000 -0.070000 0.257000
H126 H 0.218000 -0.116000 0.358000
H127 H 0.072000 0.225000 0.245000
H128 H 0.247000 0.509000 0.653000
H129 H 0.191000 0.651000 0.684000
H130 H 0.203000 0.441000 0.725000
H131 H 0.193000 0.100000 0.455000
H132 H 0.441000 0.423000 1.151000
H133 H 0.455000 0.641000 1.104000
H134 H 0.559000 0.577000 -0.151000
H135 H 0.193000 -0.100000 0.955000
H136 H 0.218000 0.116000 0.858000
H137 H 0.157000 0.070000 0.757000
H138 H 0.072000 -0.225000 0.745000
H139 H 0.059000 -0.509000 0.958000
H140 H 0.045000 0.141000 1.104000
H141 H 0.059000 -0.077000 1.151000
H142 H 0.106000 0.000000 1.125000
H143 H 0.203000 -0.441000 1.225000
H144 H 0.191000 -0.651000 1.184000
H145 H 0.247000 -0.509000 1.153000
H146 H 0.606000 0.500000 -0.125000
H147 H 0.703000 0.941000 -0.225000
H148 H 0.059000 0.509000 0.458000
H149 H 0.691000 1.151000 -0.184000
H150 H 0.106000 0.000000 0.625000
H151 H 0.059000 0.077000 0.651000
H152 H -0.045000 -0.141000 0.896000
H153 H -0.059000 0.077000 0.849000
H154 H -0.106000 0.000000 0.875000
H155 H 0.045000 -0.141000 0.604000
H156 H -0.247000 -0.509000 0.347000
H157 H -0.059000 0.509000 1.042000
H158 H -0.191000 -0.651000 0.316000
H159 H -0.203000 -0.441000 0.275000
H160 H -0.106000 0.000000 0.375000
H161 H -0.059000 -0.077000 0.349000
H162 H -0.045000 0.141000 0.396000
H163 H -0.059000 -0.509000 0.542000
H164 H -0.072000 -0.225000 0.755000
H165 H -0.157000 0.070000 0.743000
H166 H -0.218000 0.116000 0.642000
H167 H -0.193000 0.100000 1.045000
H168 H -0.203000 0.441000 0.775000
H169 H -0.191000 0.651000 0.816000
H170 H -0.247000 0.509000 0.847000
H171 H -0.193000 -0.100000 0.545000
H172 H -0.072000 0.225000 1.255000
H173 H -0.218000 -0.116000 1.142000
H174 H -0.157000 -0.070000 1.243000
H175 H 0.747000 1.009000 -0.153000
H176 H 0.843000 0.930000 1.243000
H177 H 0.782000 0.884000 1.142000
H178 H 0.928000 1.225000 1.255000
H179 H 0.753000 1.509000 0.847000
H180 H 0.809000 1.651000 0.816000
H181 H 0.797000 1.441000 0.775000
H182 H 0.807000 1.100000 1.045000
H183 H 0.941000 1.509000 1.042000
H184 H 0.455000 0.641000 0.104000
H185 H 0.894000 1.000000 0.875000
H186 H 0.941000 1.077000 0.849000
H187 H 0.955000 0.859000 0.896000
H188 H 1.247000 0.491000 1.153000
H189 H 1.191000 0.349000 1.184000
H190 H 0.747000 1.009000 0.847000
H191 H 0.691000 1.151000 0.816000
H192 H 0.703000 0.941000 0.775000
H193 H 0.193000 0.900000 -0.045000
H194 H 0.218000 1.116000 -0.142000
H195 H 0.157000 1.070000 -0.243000
H196 H 0.072000 0.775000 -0.255000
H197 H 0.059000 0.491000 -0.042000
H198 H 0.045000 1.141000 0.104000
H199 H 0.059000 0.923000 0.151000
H200 H 0.106000 1.000000 0.125000
H201 H 0.203000 0.559000 0.225000
H202 H 0.191000 0.349000 0.184000
H203 H 0.247000 0.491000 0.153000
H204 H 1.203000 0.559000 1.225000
H205 H 1.106000 1.000000 1.125000
H206 H 1.059000 0.923000 1.151000
H207 H 1.045000 1.141000 1.104000
H208 H 1.059000 0.491000 0.958000
H209 H 1.072000 0.775000 0.745000
H210 H -0.045000 0.859000 -0.104000
H211 H -0.059000 1.077000 -0.151000
H212 H -0.106000 1.000000 -0.125000
H213 H 1.157000 1.070000 0.757000
H214 H 0.606000 0.500000 0.875000
H215 H -0.059000 1.509000 0.042000
H216 H 1.218000 1.116000 0.858000
H217 H 0.559000 0.577000 0.849000
H218 H 1.193000 0.900000 0.955000
H219 H 0.441000 0.423000 0.151000
H220 H 0.545000 0.359000 0.896000
H221 H 0.394000 0.500000 0.125000
H222 H 0.559000 1.009000 1.042000
H223 H 0.441000 -0.009000 -0.042000
H224 H 0.843000 0.930000 0.243000
H225 H -0.193000 1.100000 0.045000
H226 H -0.203000 1.441000 -0.225000
H227 H -0.191000 1.651000 -0.184000
H228 H -0.247000 1.509000 -0.153000
H229 H 0.782000 0.884000 0.142000
H230 H -0.072000 1.225000 0.255000
H231 H -0.218000 0.884000 0.142000
H232 H -0.157000 0.930000 0.243000
H233 H 0.572000 0.725000 1.255000
H234 H 0.928000 1.225000 0.255000
H235 H 0.753000 1.509000 -0.153000
H236 H 0.809000 1.651000 -0.184000
H237 H 0.797000 1.441000 -0.225000
H238 H 0.807000 1.100000 0.045000
H239 H 0.941000 1.509000 0.042000
H240 H 0.894000 1.000000 -0.125000
H241 H 0.941000 1.077000 -0.151000
H242 H 0.955000 0.859000 -0.104000
H243 H 1.247000 0.491000 0.153000
H244 H 1.191000 0.349000 0.184000
H245 H 1.203000 0.559000 0.225000
H246 H 1.106000 1.000000 0.125000
H247 H 1.059000 0.923000 0.151000
H248 H 0.657000 0.430000 1.243000
H249 H 0.718000 0.384000 1.142000
H250 H 0.693000 0.600000 1.045000
H251 H 0.193000 0.900000 0.955000
H252 H 0.218000 1.116000 0.858000
H253 H 0.157000 1.070000 0.757000
H254 H 0.072000 0.775000 0.745000
H255 H 0.059000 0.491000 0.958000
H256 H 0.045000 1.141000 1.104000
H257 H 0.059000 0.923000 1.151000
H258 H 0.106000 1.000000 1.125000
H259 H 0.203000 0.559000 1.225000
H260 H 0.191000 0.349000 1.184000
H261 H 0.247000 0.491000 1.153000
H262 H 1.045000 1.141000 0.104000
H263 H 1.059000 0.491000 -0.042000
H264 H 1.072000 0.775000 -0.255000
H265 H 1.157000 1.070000 -0.243000
H266 H 1.218000 1.116000 -0.142000
H267 H 1.193000 0.900000 -0.045000
H268 H -0.045000 0.859000 0.896000
H269 H -0.059000 1.077000 0.849000
H270 H -0.106000 1.000000 0.875000
H271 H 0.307000 0.400000 -0.045000
H272 H 0.297000 0.059000 0.225000
H273 H -0.059000 1.509000 1.042000
H274 H 0.843000 -0.070000 1.243000
H275 H 0.782000 -0.116000 1.142000
H276 H 0.928000 0.225000 1.255000
H277 H 0.753000 0.509000 0.847000
H278 H 0.809000 0.651000 0.816000
H279 H 0.797000 0.441000 0.775000
H280 H 0.807000 0.100000 1.045000
H281 H 0.309000 -0.151000 0.184000
H282 H 0.253000 -0.009000 0.153000
H283 H -0.193000 1.100000 1.045000
H284 H -0.203000 1.441000 0.775000
H285 H -0.191000 1.651000 0.816000
H286 H -0.247000 1.509000 0.847000
H287 H 0.941000 0.509000 1.042000
H288 H -0.072000 1.225000 1.255000
H289 H -0.218000 0.884000 1.142000
H290 H -0.157000 0.930000 1.243000
H291 H 0.428000 0.275000 -0.255000
H292 H 0.894000 0.000000 0.875000
H293 H 0.941000 0.077000 0.849000
H294 H 0.955000 -0.141000 0.896000
H295 H 1.247000 -0.509000 1.153000
H296 H 1.191000 -0.651000 1.184000
H297 H 1.203000 -0.441000 1.225000
H298 H 1.106000 0.000000 1.125000
H299 H 1.059000 -0.077000 1.151000
H300 H 1.045000 0.141000 1.104000
H301 H 1.059000 -0.509000 0.958000
H302 H 1.072000 -0.225000 0.745000
H303 H 1.157000 0.070000 0.757000
H304 H 1.218000 0.116000 0.858000
H305 H 1.193000 -0.100000 0.955000
H306 H 0.282000 0.616000 -0.142000
H307 H 0.343000 0.570000 -0.243000
H308 H 0.843000 -0.070000 0.243000
H309 H 1.193000 -0.100000 -0.045000
H310 H 1.218000 0.116000 -0.142000
H311 H 1.157000 0.070000 -0.243000
H312 H 1.072000 -0.225000 -0.255000
H313 H 1.059000 -0.509000 -0.042000
H314 H 1.045000 0.141000 0.104000
H315 H 1.059000 -0.077000 0.151000
H316 H 1.106000 0.000000 0.125000
H317 H 1.203000 -0.441000 0.225000
H318 H 1.191000 -0.651000 0.184000
H319 H 1.247000 -0.509000 0.153000
H320 H 0.782000 -0.116000 0.142000
H321 H 0.928000 0.225000 0.255000
H322 H 0.753000 0.509000 -0.153000
H323 H 0.809000 0.651000 -0.184000
H324 H 0.797000 0.441000 -0.225000
H325 H 0.807000 0.100000 0.045000
H326 H 0.955000 -0.141000 -0.104000
H327 H 0.941000 0.077000 -0.151000
H328 H 0.894000 0.000000 -0.125000
H329 H 0.941000 0.509000 0.042000
H330 H 1.247000 1.509000 0.653000
C331 C 0.879700 0.292800 0.094000
C332 C 0.823300 0.600600 -0.037000
C333 C 0.647500 0.530300 1.203600
C334 C 0.911500 0.325800 0.154800
C335 C 0.833100 0.130100 0.089800
C336 C 0.681400 0.499000 1.144200
C337 C 0.798100 0.494000 -0.176900
C338 C 0.666900 0.630100 1.089800
C339 C 0.899600 0.195300 0.209500
C340 C 0.818600 -0.001000 0.144200
C341 C 0.855000 0.420500 -0.073700
C342 C 0.896900 0.431200 0.033800
C343 C 0.935100 0.003300 -0.107400
C344 C 0.897100 0.317200 -0.032800
C345 C 0.852500 0.030300 0.203600
C346 C 0.940000 0.130900 -0.044100
C347 C 0.411500 0.825800 0.345200
C348 C 0.603100 0.931200 1.033800
C349 C 0.620300 0.792800 1.094000
C350 C 1.088500 -0.325800 0.845200
C351 C 1.120300 -0.292800 0.906000
C352 C 1.166900 -0.130100 0.910200
C353 C 1.181400 0.001000 0.855800
C354 C 1.147500 -0.030300 0.796400
C355 C 1.100400 -0.195300 0.790500
C356 C 1.103100 -0.431200 0.966200
C357 C 1.102900 -0.317200 1.032800
C358 C 1.060000 -0.130900 1.044100
C359 C 0.379700 0.792800 0.406000
C360 C 1.064900 -0.003300 1.107400
C361 C 1.145000 -0.420500 1.073700
C362 C 1.176700 -0.600600 1.037000
C363 C 1.201900 -0.494000 1.176900
C364 C 0.588500 0.825800 1.154800
C365 C 0.602900 0.817200 0.967200
C366 C 0.560000 0.630900 0.955900
C367 C 1.201900 -0.494000 0.176900
C368 C 1.176700 -0.600600 0.037000
C369 C 1.145000 -0.420500 0.073700
C370 C 1.064900 -0.003300 0.107400
C371 C 0.333100 0.630100 0.410200
C372 C 1.060000 -0.130900 0.044100
C373 C 1.102900 -0.317200 0.032800
C374 C 1.103100 -0.431200 -0.033800
C375 C 1.100400 -0.195300 -0.209500
C376 C 1.147500 -0.030300 -0.203600
C377 C 1.181400 0.001000 -0.144200
C378 C 1.181400 0.999000 0.355800
C379 C 0.940000 0.130900 0.955900
C380 C 0.897100 0.317200 0.967200
C381 C 0.935100 0.003300 0.892600
C382 C 0.896900 0.431200 1.033800
C383 C 0.855000 0.420500 0.926300
C384 C 1.166900 -0.130100 -0.089800
C385 C 1.120300 -0.292800 -0.094000
C386 C 1.088500 -0.325800 -0.154800
C387 C 0.879700 0.292800 1.094000
C388 C 1.100400 1.195300 0.290500
C389 C -0.147500 1.030300 1.203600
C390 C 0.823300 0.600600 0.963000
C391 C 0.352500 0.469700 -0.203600
C392 C 0.911500 0.325800 1.154800
C393 C 0.833100 0.130100 1.089800
C394 C -0.181400 0.999000 1.144200
C395 C 0.798100 0.494000 0.823100
C396 C -0.100400 1.195300 1.209500
C397 C 0.899600 0.195300 1.209500
C398 C 0.818600 -0.001000 1.144200
C399 C 0.564900 0.503300 0.892600
C400 C -0.201900 1.494000 0.823100
C401 C 0.645000 0.920500 0.926300
C402 C -0.166900 1.130100 1.089800
C403 C 0.852500 0.030300 1.203600
C404 C -0.088500 1.325800 1.154800
C405 C 0.676700 1.100600 0.963000
C406 C -0.176700 1.600600 0.963000
C407 C 0.701900 0.994000 0.823100
C408 C 1.088500 0.674200 -0.154800
C409 C 1.120300 0.707200 -0.094000
C410 C 1.166900 0.869900 -0.089800
C411 C 1.181400 1.001000 -0.144200
C412 C 1.147500 0.969700 -0.203600
C413 C 1.100400 0.804700 -0.209500
C414 C 1.103100 0.568800 -0.033800
C415 C 1.102900 0.682800 0.032800
C416 C 1.060000 0.869100 0.044100
C417 C 1.147500 1.030300 0.296400
C418 C 1.064900 0.996700 0.107400
C419 C 1.145000 0.579500 0.073700
C420 C 1.176700 0.399400 0.037000
C421 C 1.201900 0.506000 0.176900
C422 C -0.120300 1.292800 1.094000
C423 C 0.318600 0.501000 -0.144200
C424 C 0.399600 0.304700 -0.209500
C425 C -0.145000 1.420500 0.926300
C426 C -0.103100 1.431200 1.033800
C427 C -0.064900 1.003300 0.892600
C428 C -0.102900 1.317200 0.967200
C429 C -0.060000 1.130900 0.955900
C430 C 1.201900 1.494000 0.676900
C431 C 0.201900 0.506000 1.176900
C432 C 0.176700 0.399400 1.037000
C433 C 0.145000 0.579500 1.073700
C434 C 0.064900 0.996700 1.107400
C435 C 0.318600 0.499000 0.355800
C436 C 1.166900 1.130100 0.410200
C437 C 0.940000 1.130900 -0.044100
C438 C 0.897100 1.317200 -0.032800
C439 C 0.935100 1.003300 -0.107400
C440 C 0.896900 1.431200 0.033800
C441 C 0.855000 1.420500 -0.073700
C442 C 0.060000 0.869100 1.044100
C443 C 0.102900 0.682800 1.032800
C444 C 0.103100 0.568800 0.966200
C445 C 0.879700 1.292800 0.094000
C446 C 0.298100 0.006000 0.176900
C447 C 0.100400 0.804700 0.790500
C448 C 0.823300 1.600600 -0.037000
C449 C 0.333100 0.369900 -0.089800
C450 C 0.911500 1.325800 0.154800
C451 C 0.833100 1.130100 0.089800
C452 C 0.411500 0.174200 -0.154800
C453 C 0.798100 1.494000 -0.176900
C454 C 0.323300 -0.100600 0.037000
C455 C 0.899600 1.195300 0.209500
C456 C 0.818600 0.999000 0.144200
C457 C 0.147500 0.969700 0.796400
C458 C 0.181400 1.001000 0.855800
C459 C 0.166900 0.869900 0.910200
C460 C 0.120300 0.707200 0.906000
C461 C 0.852500 1.030300 0.203600
C462 C 0.088500 0.674200 0.845200
C463 C -0.147500 1.030300 0.203600
C464 C -0.181400 0.999000 0.144200
C465 C -0.100400 1.195300 0.209500
C466 C 1.088500 0.674200 0.845200
C467 C 1.120300 0.707200 0.906000
C468 C 1.166900 0.869900 0.910200
C469 C 1.181400 1.001000 0.855800
C470 C 1.147500 0.969700 0.796400
C471 C 1.100400 0.804700 0.790500
C472 C 1.103100 0.568800 0.966200
C473 C 1.102900 0.682800 1.032800
C474 C 1.060000 0.869100 1.044100
C475 C 1.088500 1.325800 0.345200
C476 C 1.064900 0.996700 1.107400
C477 C 1.145000 0.579500 1.073700
C478 C 1.176700 0.399400 1.037000
C479 C 1.201900 0.506000 1.176900
C480 C 0.379700 0.207200 -0.094000
C481 C -0.201900 1.494000 -0.176900
C482 C -0.166900 1.130100 0.089800
C483 C -0.088500 1.325800 0.154800
C484 C -0.176700 1.600600 -0.037000
C485 C -0.120300 1.292800 0.094000
C486 C -0.145000 1.420500 -0.073700
C487 C -0.103100 1.431200 0.033800
C488 C -0.064900 1.003300 -0.107400
C489 C -0.102900 1.317200 -0.032800
C490 C -0.060000 1.130900 -0.044100
C491 C 0.352500 0.530300 0.296400
C492 C 0.201900 0.506000 0.176900
C493 C 0.176700 0.399400 0.037000
C494 C 1.176700 1.600600 0.537000
C495 C 0.940000 1.130900 0.955900
C496 C 0.897100 1.317200 0.967200
C497 C 0.935100 1.003300 0.892600
C498 C 0.896900 1.431200 1.033800
C499 C 0.855000 1.420500 0.926300
C500 C 0.145000 0.579500 0.073700
C501 C 0.064900 0.996700 0.107400
C502 C 0.399600 0.695300 0.290500
C503 C 0.879700 1.292800 1.094000
C504 C 0.060000 0.869100 0.044100
C505 C 0.102900 0.682800 0.032800
C506 C 0.823300 1.600600 0.963000
C507 C 0.355000 0.079500 0.073700
C508 C 0.911500 1.325800 1.154800
C509 C 0.833100 1.130100 1.089800
C510 C 0.396900 0.068800 -0.033800
C511 C 0.798100 1.494000 0.823100
C512 C 0.435100 0.496700 0.107400
C513 C 0.899600 1.195300 1.209500
C514 C 0.818600 0.999000 1.144200
C515 C 0.103100 0.568800 -0.033800
C516 C 0.100400 0.804700 -0.209500
C517 C 0.147500 0.969700 -0.203600
C518 C 0.181400 1.001000 -0.144200
C519 C 0.852500 1.030300 1.203600
C520 C 0.166900 0.869900 -0.089800
C521 C 0.120300 0.707200 -0.094000
C522 C 0.088500 0.674200 -0.154800
C523 C 0.397100 0.182800 0.032800
C524 C -0.088500 -0.325800 0.654800
C525 C -0.120300 -0.292800 0.594000
C526 C -0.166900 -0.130100 0.589800
C527 C -0.181400 0.001000 0.644200
C528 C -0.147500 -0.030300 0.703600
C529 C -0.100400 -0.195300 0.709500
C530 C -0.103100 -0.431200 0.533800
C531 C -0.102900 -0.317200 0.467200
C532 C -0.060000 -0.130900 0.455900
C533 C 0.396900 0.931200 0.466200
C534 C -0.064900 -0.003300 0.392600
C535 C -0.145000 -0.420500 0.426300
C536 C -0.176700 -0.600600 0.463000
C537 C -0.201900 -0.494000 0.323100
C538 C 0.440000 0.369100 0.044100
C539 C 1.120300 1.292800 0.406000
C540 C 0.600400 0.695300 1.209500
C541 C -0.147500 0.030300 1.203600
C542 C -0.181400 -0.001000 1.144200
C543 C -0.100400 0.195300 1.209500
C544 C 0.440000 0.369100 1.044100
C545 C -0.201900 0.494000 0.823100
C546 C 0.397100 0.182800 1.032800
C547 C -0.166900 0.130100 1.089800
C548 C -0.088500 0.325800 1.154800
C549 C 0.435100 0.496700 1.107400
C550 C -0.176700 0.600600 0.963000
C551 C 0.396900 0.068800 0.966200
C552 C 0.397100 0.817200 0.532800
C553 C 0.060000 0.130900 0.544100
C554 C 0.102900 0.317200 0.532800
C555 C 0.064900 0.003300 0.607400
C556 C 0.103100 0.431200 0.466200
C557 C 0.145000 0.420500 0.573700
C558 C -0.120300 0.292800 1.094000
C559 C -0.145000 0.420500 0.926300
C560 C -0.103100 0.431200 1.033800
C561 C 0.120300 0.292800 0.406000
C562 C -0.064900 0.003300 0.892600
C563 C -0.102900 0.317200 0.967200
C564 C 0.176700 0.600600 0.537000
C565 C -0.060000 0.130900 0.955900
C566 C 0.088500 0.325800 0.345200
C567 C 0.166900 0.130100 0.410200
C568 C 0.440000 0.630900 0.544100
C569 C 0.201900 0.494000 0.676900
C570 C 0.355000 0.079500 1.073700
C571 C 0.100400 0.195300 0.290500
C572 C 0.181400 -0.001000 0.355800
C573 C 0.201900 -0.494000 1.176900
C574 C 0.176700 -0.600600 1.037000
C575 C 0.145000 -0.420500 1.073700
C576 C 0.064900 -0.003300 1.107400
C577 C 0.147500 0.030300 0.296400
C578 C 1.145000 1.420500 0.573700
C579 C 0.060000 -0.130900 1.044100
C580 C 0.102900 -0.317200 1.032800
C581 C 0.103100 -0.431200 0.966200
C582 C -0.088500 0.674200 0.654800
C583 C -0.120300 0.707200 0.594000
C584 C -0.166900 0.869900 0.589800
C585 C -0.181400 1.001000 0.644200
C586 C -0.147500 0.969700 0.703600
C587 C -0.100400 0.804700 0.709500
C588 C -0.103100 0.568800 0.533800
C589 C -0.102900 0.682800 0.467200
C590 C -0.060000 0.869100 0.455900
C591 C 1.103100 1.431200 0.466200
C592 C -0.064900 0.996700 0.392600
C593 C -0.145000 0.579500 0.426300
C594 C -0.176700 0.399400 0.463000
C595 C -0.201900 0.506000 0.323100
C596 C 0.100400 -0.195300 0.790500
C597 C 0.147500 -0.030300 0.796400
C598 C 0.181400 0.001000 0.855800
C599 C 0.166900 -0.130100 0.910200
C600 C 0.120300 -0.292800 0.906000
C601 C 0.088500 -0.325800 0.845200
C602 C -0.147500 0.030300 0.203600
C603 C -0.181400 -0.001000 0.144200
C604 C -0.100400 0.195300 0.209500
C605 C 0.379700 0.207200 0.906000
C606 C -0.201900 0.494000 -0.176900
C607 C -0.166900 0.130100 0.089800
C608 C -0.088500 0.325800 0.154800
C609 C 0.323300 -0.100600 1.037000
C610 C 1.064900 1.003300 0.607400
C611 C 0.060000 1.130900 0.544100
C612 C 0.102900 1.317200 0.532800
C613 C 0.064900 1.003300 0.607400
C614 C 0.103100 1.431200 0.466200
C615 C 0.145000 1.420500 0.573700
C616 C -0.176700 0.600600 -0.037000
C617 C 0.411500 0.174200 0.845200
C618 C -0.120300 0.292800 0.094000
C619 C 0.120300 1.292800 0.406000
C620 C -0.145000 0.420500 -0.073700
C621 C -0.103100 0.431200 0.033800
C622 C 0.176700 1.600600 0.537000
C623 C -0.064900 0.003300 -0.107400
C624 C 0.088500 1.325800 0.345200
C625 C 0.166900 1.130100 0.410200
C626 C 0.701900 0.994000 -0.176900
C627 C 0.201900 1.494000 0.676900
C628 C 0.676700 1.100600 -0.037000
C629 C 0.100400 1.195300 0.290500
C630 C 0.181400 0.999000 0.355800
C631 C -0.102900 0.317200 -0.032800
C632 C -0.060000 0.130900 -0.044100
C633 C 1.102900 1.317200 0.532800
C634 C 0.333100 0.369900 0.910200
C635 C 0.147500 1.030300 0.296400
C636 C 0.298100 0.006000 1.176900
C637 C 0.399600 0.304700 0.790500
C638 C 0.201900 -0.494000 0.176900
C639 C 0.645000 0.920500 -0.073700
C640 C 0.911500 -0.325800 0.654800
C641 C 0.879700 -0.292800 0.594000
C642 C 0.833100 -0.130100 0.589800
C643 C 0.818600 0.001000 0.644200
C644 C 0.852500 -0.030300 0.703600
C645 C 0.899600 -0.195300 0.709500
C646 C 0.896900 -0.431200 0.533800
C647 C 0.897100 -0.317200 0.467200
C648 C 0.940000 -0.130900 0.455900
C649 C 1.060000 1.130900 0.544100
C650 C 0.935100 -0.003300 0.392600
C651 C 0.855000 -0.420500 0.426300
C652 C 0.823300 -0.600600 0.463000
C653 C 0.798100 -0.494000 0.323100
C654 C 0.564900 0.503300 -0.107400
C655 C 0.435100 0.503300 0.607400
C656 C 0.560000 0.630900 -0.044100
C657 C 0.176700 -0.600600 0.037000
C658 C 0.145000 -0.420500 0.073700
C659 C 0.064900 -0.003300 0.107400
C660 C 0.355000 0.920500 0.573700
C661 C 0.060000 -0.130900 0.044100
C662 C 0.102900 -0.317200 0.032800
C663 C 0.103100 -0.431200 -0.033800
C664 C 0.100400 -0.195300 -0.209500
C665 C 0.147500 -0.030300 -0.203600
C666 C 0.181400 0.001000 -0.144200
C667 C 0.166900 -0.130100 -0.089800
C668 C 0.323300 1.100600 0.537000
C669 C 1.060000 0.130900 0.544100
C670 C 1.102900 0.317200 0.532800
C671 C 1.064900 0.003300 0.607400
C672 C 1.103100 0.431200 0.466200
C673 C 1.145000 0.420500 0.573700
C674 C 0.120300 -0.292800 -0.094000
C675 C 0.088500 -0.325800 -0.154800
C676 C 0.318600 0.501000 0.855800
C677 C 1.120300 0.292800 0.406000
C678 C 0.602900 0.817200 -0.032800
C679 C 0.647500 0.469700 0.703600
C680 C 1.176700 0.600600 0.537000
C681 C 0.603100 0.931200 0.033800
C682 C 1.088500 0.325800 0.345200
C683 C 1.166900 0.130100 0.410200
C684 C 0.600400 0.695300 0.209500
C685 C 1.201900 0.494000 0.676900
C686 C 0.647500 0.530300 0.203600
C687 C 1.100400 0.195300 0.290500
C688 C 1.181400 -0.001000 0.355800
C689 C 0.681400 0.501000 0.644200
C690 C 0.600400 0.304700 0.709500
C691 C 0.701900 0.006000 0.323100
C692 C 0.666900 0.369900 0.589800
C693 C 1.147500 0.030300 0.296400
C694 C 0.588500 0.174200 0.654800
C695 C 0.676700 -0.100600 0.463000
C696 C 0.620300 0.207200 0.594000
C697 C 0.681400 0.499000 0.144200
C698 C 0.911500 0.674200 0.654800
C699 C 0.879700 0.707200 0.594000
C700 C 0.833100 0.869900 0.589800
C701 C 0.818600 1.001000 0.644200
C702 C 0.852500 0.969700 0.703600
C703 C 0.899600 0.804700 0.709500
C704 C 0.896900 0.568800 0.533800
C705 C 0.897100 0.682800 0.467200
C706 C 0.940000 0.869100 0.455900
C707 C 0.298100 0.994000 0.676900
C708 C 0.935100 0.996700 0.392600
C709 C 0.855000 0.579500 0.426300
C710 C 0.823300 0.399400 0.463000
C711 C 0.798100 0.506000 0.323100
C712 C 0.666900 0.630100 0.089800
C713 C 0.620300 0.792800 0.094000
C714 C 0.588500 0.825800 0.154800
C715 C 0.645000 0.079500 0.426300
C716 C 0.603100 0.068800 0.533800
C717 C 0.564900 0.496700 0.392600
C718 C 0.602900 0.182800 0.467200
C719 C 0.560000 0.369100 0.455900
C720 C 0.352500 0.469700 0.796400
N721 N 0.520000 0.410600 0.505100
N722 N 0.980000 0.910600 0.505100
N723 N 1.020000 0.089400 0.494900
N724 N 0.020000 -0.089400 -0.005100
N725 N 0.520000 0.589400 0.005100
N726 N 1.020000 1.089400 0.494900
N727 N 0.980000 -0.089400 0.505100
N728 N -0.020000 0.089400 0.005100
N729 N 0.020000 1.089400 0.494900
N730 N -0.020000 0.910600 0.505100
N731 N 0.020000 -0.089400 0.994900
N732 N 0.480000 0.589400 0.494900
N733 N -0.020000 0.089400 1.005100
N734 N 0.020000 0.089400 0.494900
N735 N 0.480000 0.410600 -0.005100
N736 N -0.020000 -0.089400 0.505100
N737 N 0.020000 0.910600 -0.005100
N738 N 0.980000 1.089400 1.005100
N739 N -0.020000 1.089400 0.005100
N740 N 1.020000 0.910600 0.994900
N741 N 0.980000 1.089400 0.005100
N742 N 0.020000 0.910600 0.994900
N743 N -0.020000 1.089400 1.005100
N744 N 1.020000 0.910600 -0.005100
N745 N 0.520000 0.589400 1.005100
N746 N 0.980000 0.089400 1.005100
N747 N 1.020000 -0.089400 -0.005100
N748 N 1.020000 -0.089400 0.994900
N749 N 0.980000 0.089400 0.005100
N750 N 0.480000 0.410600 0.994900
O751 O 1.153500 -0.600000 0.973700
O752 O 1.216400 1.734600 0.555200
O753 O 1.155700 1.372200 0.638500
O754 O 1.153500 1.600000 0.473700
O755 O 0.283600 1.234600 0.555200
O756 O 0.846500 0.400000 0.526300
O757 O 0.783600 0.265400 0.444800
O758 O 0.844300 0.627800 0.361500
O759 O 0.346500 1.100000 0.473700
O760 O 0.653500 -0.100000 0.526300
O761 O 1.216400 0.734600 0.555200
O762 O 1.155700 0.372200 0.638500
O763 O 1.153500 0.600000 0.473700
O764 O 0.846500 -0.600000 0.526300
O765 O 0.783600 -0.734600 0.444800
O766 O 0.844300 -0.372200 0.361500
O767 O 0.655700 0.127800 0.361500
O768 O 0.716400 -0.234600 0.444800
O769 O 0.216400 1.734600 0.555200
O770 O 0.655700 0.872200 -0.138500
O771 O 0.716400 1.234600 -0.055200
O772 O 0.653500 1.100000 0.026300
O773 O 0.155700 1.372200 0.638500
O774 O 0.153500 1.600000 0.473700
O775 O -0.153500 0.400000 0.526300
O776 O -0.216400 0.265400 0.444800
O777 O -0.155700 0.627800 0.361500
O778 O 0.155700 -0.372200 0.138500
O779 O 0.216400 -0.734600 0.055200
O780 O 0.216400 0.734600 0.555200
O781 O 0.155700 0.372200 0.638500
O782 O 0.153500 0.600000 0.473700
O783 O -0.153500 -0.600000 0.526300
O784 O -0.216400 -0.734600 0.444800
O785 O -0.155700 -0.372200 0.361500
O786 O 0.283600 -0.234600 1.055200
O787 O 0.153500 -0.600000 -0.026300
O788 O 0.783600 1.734600 0.944800
O789 O 0.844300 1.372200 0.861500
O790 O 0.846500 1.600000 1.026300
O791 O 1.153500 0.400000 0.973700
O792 O 1.216400 0.265400 1.055200
O793 O 1.155700 0.627800 1.138500
O794 O 0.346500 -0.100000 -0.026300
O795 O -0.153500 0.600000 0.026300
O796 O 0.344300 0.127800 1.138500
O797 O 0.344300 0.127800 0.138500
O798 O 0.783600 1.734600 -0.055200
O799 O 0.844300 1.372200 -0.138500
O800 O 0.283600 -0.234600 0.055200
O801 O 0.846500 1.600000 0.026300
O802 O -0.155700 0.372200 -0.138500
O803 O 1.153500 0.400000 -0.026300
O804 O 1.216400 0.265400 0.055200
O805 O 1.155700 0.627800 0.138500
O806 O -0.216400 0.734600 -0.055200
O807 O 0.346500 -0.100000 0.973700
O808 O 0.783600 0.734600 0.944800
O809 O 0.844300 0.372200 0.861500
O810 O 0.846500 0.600000 1.026300
O811 O 0.155700 -0.372200 1.138500
O812 O 1.216400 -0.734600 1.055200
O813 O 0.216400 -0.734600 1.055200
O814 O 1.155700 -0.372200 1.138500
O815 O 0.153500 -0.600000 0.973700
O816 O -0.153500 0.600000 1.026300
O817 O 0.783600 0.734600 -0.055200
O818 O 0.844300 0.372200 -0.138500
O819 O 0.846500 0.600000 0.026300
O820 O 1.153500 -0.600000 -0.026300
O821 O 1.216400 -0.734600 0.055200
O822 O 1.155700 -0.372200 0.138500
O823 O -0.155700 0.372200 0.861500
O824 O -0.216400 0.734600 0.944800
O825 O -0.216400 1.734600 0.944800
O826 O -0.155700 1.372200 0.861500
O827 O -0.153500 1.600000 1.026300
O828 O 0.655700 0.872200 0.861500
O829 O 0.716400 1.234600 0.944800
O830 O 0.653500 1.100000 1.026300
O831 O 0.153500 0.400000 0.973700
O832 O 0.216400 0.265400 1.055200
O833 O 0.155700 0.627800 1.138500
O834 O 0.155700 0.627800 0.138500
O835 O 0.216400 0.265400 0.055200
O836 O -0.216400 1.734600 -0.055200
O837 O -0.155700 1.372200 -0.138500
O838 O -0.153500 1.600000 0.026300
O839 O 0.153500 0.400000 -0.026300
O840 O 0.344300 0.872200 0.638500
Cl841 Cl 0.029400 0.472700 0.835800
Cl842 Cl 0.029400 0.472700 -0.164200
Cl843 Cl -0.029400 0.527300 1.164200
Cl844 Cl -0.029400 1.527300 1.164200
Cl845 Cl 1.029400 -0.527300 -0.164200
Cl846 Cl 0.970600 0.527300 0.164200
Cl847 Cl 1.029400 -0.527300 0.835800
Cl848 Cl 0.529400 1.027300 1.164200
Cl849 Cl 1.029400 1.527300 0.335800
Cl850 Cl 0.029400 -0.527300 0.835800
Cl851 Cl -0.029400 0.527300 0.164200
Cl852 Cl 0.970600 0.527300 1.164200
Cl853 Cl 1.029400 0.472700 -0.164200
Cl854 Cl 0.470600 -0.027300 -0.164200
Cl855 Cl 0.970600 1.527300 0.164200
Cl856 Cl 1.029400 0.472700 0.835800
Cl857 Cl 0.970600 1.527300 1.164200
Cl858 Cl -0.029400 -0.527300 0.664200
Cl859 Cl 0.029400 0.527300 0.335800
Cl860 Cl 0.470600 -0.027300 0.835800
Cl861 Cl -0.029400 0.472700 0.664200
Cl862 Cl 0.029400 -0.527300 -0.164200
Cl863 Cl 0.529400 -0.027300 0.664200
Cl864 Cl 0.029400 1.527300 0.335800
Cl865 Cl 0.970600 -0.527300 0.664200
Cl866 Cl 1.029400 0.527300 0.335800
Cl867 Cl 0.970600 0.472700 0.664200
Cl868 Cl 0.529400 1.027300 0.164200
Cl869 Cl -0.029400 1.527300 0.164200
Cl870 Cl 0.470600 1.027300 0.335800

#END
