./ABADIS01_from_POSCAR.cif_generated_by_CrystalShift
_symmetry_cell_setting triclinic
_symmetry_space_group_name_H-M 'P 1'
loop_
_symmetry_equiv_pos_site_id
_symmetry_equiv_pos_as_xyz
1 x,y,z
_cell_length_a 5.696900
_cell_length_b 12.657000
_cell_length_c 17.604000
_cell_angle_alpha 90.000000
_cell_angle_beta 90.000000
_cell_angle_gamma 90.000000
_cell_volume 1269.348097
loop_
_atom_site_label
_atom_site_type_symbol
_atom_site_fract_x
_atom_site_fract_y
_atom_site_fract_z
H1 H 1.137000 0.367800 0.882600
H2 H 0.328000 0.337600 1.068800
H3 H 0.906400 0.147400 0.506300
H4 H 0.777600 0.270400 0.591900
H5 H 1.055700 0.554100 0.700200
H6 H 0.465200 0.166500 0.812700
H7 H 1.258700 0.507100 0.808000
H8 H 0.626200 0.843400 0.845600
H9 H 0.759800 0.753700 0.801900
H10 H 0.727500 0.461000 0.660700
H11 H 0.337300 -0.028300 0.545500
H12 H 0.206000 0.095400 0.631800
H13 H 0.794000 0.595400 0.868200
H14 H 0.240200 0.253700 0.698100
H15 H 0.662700 0.471700 0.954500
H16 H 0.373800 0.343400 0.654400
H17 H 0.672000 -0.162400 0.431200
H18 H 0.272500 0.961000 0.839300
H19 H 0.363000 0.632200 0.382600
H20 H 0.593600 0.852600 0.006300
H21 H -0.258700 1.007100 0.692000
H22 H 0.722400 0.729600 0.091900
H23 H 0.534800 0.666500 0.687300
H24 H 0.444300 0.445900 0.200200
H25 H -0.055700 1.054100 0.799800
H26 H 1.034800 0.833500 0.312700
H27 H 0.222400 0.770400 0.908100
H28 H 0.241300 0.492900 0.308000
H29 H 0.093600 0.647400 0.993700
H30 H 0.772500 0.539000 0.160700
H31 H -0.137000 0.867800 0.617400
H32 H 1.162700 1.028300 0.045500
H33 H 0.172000 0.662400 0.568800
H34 H 1.294000 0.904600 0.131800
H35 H 1.259800 0.746300 0.198100
H36 H 1.126200 0.656600 0.154400
H37 H 0.828000 1.162400 -0.068800
H38 H 0.637000 0.132200 0.117400
H39 H -0.126200 0.156600 0.345600
H40 H -0.259800 0.246300 0.301900
H41 H 0.406400 0.352600 0.493700
H42 H 0.277600 0.229600 0.408100
H43 H 0.555700 -0.054100 0.299800
H44 H -0.294000 0.404600 0.368200
H45 H -0.034800 0.333500 0.187300
H46 H -0.162700 0.528300 0.454500
H47 H 0.758700 -0.007100 0.192000
H48 H 0.227500 0.039000 0.339300
C49 C 0.308100 0.057720 0.295360
C50 C -0.022100 0.304330 0.378230
C51 C 0.626200 0.031300 0.205730
C52 C 0.232200 0.533350 0.536900
C53 C 0.069200 0.278170 0.196100
C54 C -0.073300 0.468260 0.444910
C55 C 0.503600 0.003250 0.271390
C56 C -0.152000 0.393980 0.393160
C57 C 0.188500 0.289860 0.417010
C58 C 0.237800 0.141950 0.250450
C59 C 0.265600 0.363590 0.468190
C60 C 0.357200 0.169750 0.184000
C61 C 0.555500 0.113950 0.161260
C62 C -0.107400 0.224520 0.320870
C63 C 0.765600 0.136410 0.531810
C64 C 0.137500 0.453810 0.482400
C65 C 0.688500 0.210140 0.582990
C66 C 1.003600 0.496750 0.728610
C67 C 0.362500 0.546190 0.982400
C68 C 0.862500 0.953810 0.017600
C69 C 1.107400 0.724520 0.179130
C70 C 0.569200 0.221830 0.803900
C71 C 0.607400 0.775480 0.820870
C72 C 0.642800 0.669750 0.316000
C73 C 0.762200 0.641950 0.249550
C74 C 1.152000 0.893980 0.106840
C75 C 1.126200 0.468700 0.794270
C76 C 1.073300 0.968260 0.055090
C77 C 0.477900 0.195670 0.621770
C78 C 0.767800 1.033350 -0.036900
C79 C 0.691900 0.557720 0.204640
C80 C -0.055500 0.886050 0.661260
C81 C 1.022100 0.804330 0.121770
C82 C 0.373800 0.531300 0.294270
C83 C 0.234400 0.636410 0.968190
C84 C 0.930800 0.778170 0.303900
C85 C 0.311500 0.710140 0.917010
C86 C 0.496400 0.503250 0.228610
C87 C -0.003600 0.996750 0.771390
C88 C 0.811500 0.789860 0.082990
C89 C 0.430800 0.721830 0.696100
C90 C 0.734400 0.863590 0.031810
C91 C -0.126200 0.968700 0.705730
C92 C 0.444500 0.613950 0.338740
C93 C 0.522100 0.695670 0.878230
C94 C 0.142800 0.830250 0.684000
C95 C 0.191900 0.942280 0.795360
C96 C 0.808100 0.442280 0.704640
C97 C 0.732200 -0.033350 0.463100
C98 C 0.262200 0.858050 0.750450
C99 C 0.637500 0.046190 0.517600
C100 C 0.392600 0.275480 0.679130
C101 C 0.267800 0.466650 1.036900
C102 C 0.573300 0.531740 0.944910
C103 C 0.857200 0.330250 0.816000
C104 C 0.737800 0.358050 0.749550
C105 C 0.348000 0.106020 0.606840
C106 C 0.652000 0.606020 0.893160
C107 C 0.426700 0.031740 0.555090
C108 C 1.055500 0.386050 0.838740
N109 N 0.554400 0.286810 0.742970
N110 N 0.445600 0.786810 0.757030
N111 N 0.255600 0.744570 0.650690
N112 N 0.945600 0.713190 0.242970
N113 N 0.755600 0.755430 0.349310
N114 N 0.054400 0.213190 0.257030
N115 N 0.244400 0.255430 0.150690
N116 N 0.744400 0.244570 0.849310
O117 O 0.612900 -0.121640 0.461990
O118 O 0.597500 1.016800 -0.076210
O119 O 0.902500 -0.016800 0.423790
O120 O 0.887100 1.121640 -0.038010
O121 O 0.097500 0.483200 1.076210
O122 O 0.112900 0.621640 0.538010
O123 O 0.402500 0.516800 0.576210
O124 O 0.387100 0.378360 1.038010

#END
