./ABADEP_from_POSCAR.cif_generated_by_CrystalShift
_symmetry_cell_setting triclinic
_symmetry_space_group_name_H-M 'P 1'
loop_
_symmetry_equiv_pos_site_id
_symmetry_equiv_pos_as_xyz
1 x,y,z
_cell_length_a 10.488300
_cell_length_b 13.936000
_cell_length_c 22.614400
_cell_angle_alpha 90.000000
_cell_angle_beta 97.772000
_cell_angle_gamma 90.000000
_cell_volume 3275.069064
loop_
_atom_site_label
_atom_site_type_symbol
_atom_site_fract_x
_atom_site_fract_y
_atom_site_fract_z
H1 H 0.412400 0.587000 0.589700
H2 H 0.237600 0.538700 0.635300
H3 H 0.267000 0.438900 0.717300
H4 H 0.470000 0.386600 0.754200
H5 H 0.646500 0.432500 0.709000
H6 H 0.520700 0.828100 0.631800
H7 H 0.548800 0.991200 0.616000
H8 H 0.753000 1.052800 0.616200
H9 H 0.929800 0.953700 0.634100
H10 H 0.903500 0.791900 0.654200
H11 H 1.063200 0.566000 0.688000
H12 H 1.225000 0.637200 0.754600
H13 H 1.172700 0.717800 0.837200
H14 H 0.961100 0.731300 0.853000
H15 H 0.106000 -0.414400 -0.014600
H16 H 0.799100 0.660900 0.786900
H17 H -0.107300 -0.380000 -0.005600
H18 H 1.109300 0.995200 0.532100
H19 H -0.181000 -0.223700 -0.014700
H20 H 1.264800 1.035200 0.610900
H21 H -0.043800 -0.101900 -0.034400
H22 H 1.341700 0.920700 0.680700
H23 H 0.168500 -0.136100 -0.045700
H24 H 1.270600 0.764500 0.669100
H25 H 1.116600 0.722400 0.589500
H26 H 0.532700 -0.087900 -0.133500
H27 H 0.949900 0.864200 0.392700
H28 H 0.567300 -0.123200 -0.230000
H29 H 0.982800 0.898300 0.295400
H30 H 0.539000 -0.278300 -0.266100
H31 H 1.039000 0.778300 0.233900
H32 H 0.482800 -0.398300 -0.204600
H33 H 1.067300 0.623200 0.270000
H34 H 0.449900 -0.364200 -0.107300
H35 H 1.032700 0.587900 0.366500
H36 H 0.668500 0.636100 0.454300
H37 H 0.616600 -0.222400 0.089500
H38 H 0.456200 0.601900 0.465600
H39 H 0.770600 -0.264500 0.169100
H40 H 0.319000 0.723700 0.485300
H41 H 0.841700 -0.420700 0.180700
H42 H 0.392700 0.880000 0.494400
H43 H 0.764800 -0.535200 0.110900
H44 H 0.606000 0.914400 0.485400
H45 H 0.609300 -0.495200 0.032100
H46 H 1.587600 0.413000 0.410300
H47 H 1.762400 0.461300 0.364700
H48 H 0.299100 -0.160900 0.286900
H49 H 1.733000 0.561100 0.282700
H50 H 0.461100 -0.231300 0.353000
H51 H 1.530000 0.613400 0.245800
H52 H 0.672700 -0.217800 0.337200
H53 H 1.353500 0.567500 0.291000
H54 H 0.725000 -0.137200 0.254600
H55 H 1.479300 0.171900 0.368200
H56 H 0.563200 -0.066000 0.188000
H57 H 1.451200 0.008800 0.384000
H58 H 1.247000 -0.052800 0.383800
H59 H 0.403500 -0.291900 0.154200
H60 H 1.070200 0.046300 0.365900
H61 H 0.429800 -0.453700 0.134100
H62 H 1.096500 0.208100 0.345800
H63 H 0.253000 -0.552800 0.116200
H64 H 0.936800 0.434000 0.312000
H65 H 0.048800 -0.491200 0.116000
H66 H 0.775000 0.362800 0.245400
H67 H 0.020700 -0.328100 0.131800
H68 H 0.827300 0.282200 0.162800
H69 H 1.038900 0.268700 0.147000
H70 H 0.146500 0.067500 0.209000
H71 H 1.200900 0.339100 0.213100
H72 H -0.030000 0.113400 0.254200
H73 H 0.890700 0.004800 0.467900
H74 H -0.233000 0.061100 0.217300
H75 H 0.735200 -0.035200 0.389100
H76 H -0.262400 -0.038700 0.135300
H77 H 0.658300 0.079300 0.319300
H78 H -0.087600 -0.087000 0.089700
H79 H 0.729400 0.235500 0.330900
H80 H 0.883400 0.277600 0.410500
H81 H 1.050100 0.135800 0.607300
H82 H 1.017200 0.101700 0.704600
H83 H 0.961000 0.221700 0.766100
H84 H 0.932700 0.376800 0.730000
H85 H 0.967300 0.412100 0.633500
H86 H 1.331500 0.363900 0.545700
H87 H 1.543800 0.398100 0.534400
H88 H 1.681000 0.276300 0.514700
H89 H 1.607300 0.120000 0.505600
H90 H 1.394000 0.085600 0.514600
H91 H -0.587600 0.587000 0.589700
H92 H -0.762400 0.538700 0.635300
H93 H 0.894000 0.414400 0.014600
H94 H -0.733000 0.438900 0.717300
H95 H 1.107300 0.380000 0.005600
H96 H -0.530000 0.386600 0.754200
H97 H 1.181000 0.223700 0.014700
H98 H -0.353500 0.432500 0.709000
H99 H 1.043800 0.101900 0.034400
H100 H -0.479300 0.828100 0.631800
H101 H 0.831500 0.136100 0.045700
H102 H -0.451200 0.991200 0.616000
H103 H -0.247000 1.052800 0.616200
H104 H 0.467300 0.087900 0.133500
H105 H -0.070200 0.953700 0.634100
H106 H 0.432700 0.123200 0.230000
H107 H -0.096500 0.791900 0.654200
H108 H 0.461000 0.278300 0.266100
H109 H 0.063200 0.566000 0.688000
H110 H 0.517200 0.398300 0.204600
H111 H 0.225000 0.637200 0.754600
H112 H 0.550100 0.364200 0.107300
H113 H 0.172700 0.717800 0.837200
H114 H -0.038900 0.731300 0.853000
H115 H 0.383400 0.222400 -0.089500
H116 H -0.200900 0.660900 0.786900
H117 H 0.229400 0.264500 -0.169100
H118 H 0.109300 0.995200 0.532100
H119 H 0.158300 0.420700 -0.180700
H120 H 0.264800 1.035200 0.610900
H121 H 0.235200 0.535200 -0.110900
H122 H 0.341700 0.920700 0.680700
H123 H 0.390700 0.495200 -0.032100
H124 H 0.270600 0.764500 0.669100
H125 H 0.116600 0.722400 0.589500
H126 H 0.700900 0.160900 -0.286900
H127 H -0.050100 0.864200 0.392700
H128 H 0.538900 0.231300 -0.353000
H129 H -0.017200 0.898300 0.295400
H130 H 0.327300 0.217800 -0.337200
H131 H 0.039000 0.778300 0.233900
H132 H 0.275000 0.137200 -0.254600
H133 H 0.067300 0.623200 0.270000
H134 H 0.436800 0.066000 -0.188000
H135 H 0.032700 0.587900 0.366500
H136 H -0.331500 0.636100 0.454300
H137 H 0.596500 0.291900 -0.154200
H138 H -0.543800 0.601900 0.465600
H139 H 0.570200 0.453700 -0.134100
H140 H -0.681000 0.723700 0.485300
H141 H 0.747000 0.552800 -0.116200
H142 H -0.607300 0.880000 0.494400
H143 H 0.951200 0.491200 -0.116000
H144 H -0.394000 0.914400 0.485400
H145 H 0.979300 0.328100 -0.131800
H146 H 0.587600 0.413000 0.410300
H147 H 0.762400 0.461300 0.364700
H148 H 0.853500 -0.067500 -0.209000
H149 H 0.733000 0.561100 0.282700
H150 H 1.030000 -0.113400 -0.254200
H151 H 0.530000 0.613400 0.245800
H152 H 1.233000 -0.061100 -0.217300
H153 H 0.353500 0.567500 0.291000
H154 H 1.262400 0.038700 -0.135300
H155 H 0.479300 0.171900 0.368200
H156 H 1.087600 0.087000 -0.089700
H157 H 0.451200 0.008800 0.384000
H158 H 0.247000 -0.052800 0.383800
H159 H 0.070200 0.046300 0.365900
H160 H 0.096500 0.208100 0.345800
H161 H -0.063200 0.434000 0.312000
H162 H -0.225000 0.362800 0.245400
H163 H -0.172700 0.282200 0.162800
H164 H 0.038900 0.268700 0.147000
H165 H 0.200900 0.339100 0.213100
H166 H -0.109300 0.004800 0.467900
H167 H -0.264800 -0.035200 0.389100
H168 H -0.341700 0.079300 0.319300
H169 H -0.270600 0.235500 0.330900
H170 H -0.116600 0.277600 0.410500
H171 H 0.106000 -0.414400 0.985400
H172 H 0.050100 0.135800 0.607300
H173 H -0.107300 -0.380000 0.994400
H174 H 0.017200 0.101700 0.704600
H175 H -0.181000 -0.223700 0.985300
H176 H -0.039000 0.221700 0.766100
H177 H -0.043800 -0.101900 0.965600
H178 H -0.067300 0.376800 0.730000
H179 H 0.168500 -0.136100 0.954300
H180 H -0.032700 0.412100 0.633500
H181 H 0.331500 0.363900 0.545700
H182 H 0.532700 -0.087900 0.866500
H183 H 0.543800 0.398100 0.534400
H184 H 0.567300 -0.123200 0.770000
H185 H 0.681000 0.276300 0.514700
H186 H 0.539000 -0.278300 0.733900
H187 H 0.607300 0.120000 0.505600
H188 H 0.482800 -0.398300 0.795400
H189 H 0.394000 0.085600 0.514600
H190 H 0.449900 -0.364200 0.892700
H191 H 1.087600 1.087000 0.910300
H192 H 1.262400 1.038700 0.864700
H193 H 0.616600 -0.222400 1.089500
H194 H 1.233000 0.938900 0.782700
H195 H 0.770600 -0.264500 1.169100
H196 H 1.030000 0.886600 0.745800
H197 H 0.841700 -0.420700 1.180700
H198 H 0.853500 0.932500 0.791000
H199 H 0.764800 -0.535200 1.110900
H200 H 0.979300 1.328100 0.868200
H201 H 0.609300 -0.495200 1.032100
H202 H 0.951200 1.491200 0.884000
H203 H 0.747000 1.552800 0.883800
H204 H 0.299100 -0.160900 1.286900
H205 H 0.570200 1.453700 0.865900
H206 H 0.461100 -0.231300 1.353000
H207 H 0.596500 1.291900 0.845800
H208 H 0.672700 -0.217800 1.337200
H209 H 0.436800 1.066000 0.812000
H210 H 0.725000 -0.137200 1.254600
H211 H 0.275000 1.137200 0.745400
H212 H 0.563200 -0.066000 1.188000
H213 H 0.327300 1.217800 0.662800
H214 H 0.538900 1.231300 0.647000
H215 H 0.403500 -0.291900 1.154200
H216 H 0.700900 1.160900 0.713100
H217 H 0.429800 -0.453700 1.134100
H218 H 0.390700 1.495200 0.967900
H219 H 0.253000 -0.552800 1.116200
H220 H 0.235200 1.535200 0.889100
H221 H 0.048800 -0.491200 1.116000
H222 H 0.158300 1.420700 0.819300
H223 H 0.020700 -0.328100 1.131800
H224 H 0.229400 1.264500 0.830900
H225 H 0.383400 1.222400 0.910500
H226 H 0.146500 0.067500 1.209000
H227 H 0.550100 1.364200 1.107300
H228 H -0.030000 0.113400 1.254200
H229 H 0.517200 1.398300 1.204600
H230 H -0.233000 0.061100 1.217300
H231 H 0.461000 1.278300 1.266100
H232 H -0.262400 -0.038700 1.135300
H233 H 0.432700 1.123200 1.230000
H234 H -0.087600 -0.087000 1.089700
H235 H 0.467300 1.087900 1.133500
H236 H 0.831500 1.136100 1.045700
H237 H 1.043800 1.101900 1.034400
H238 H 1.181000 1.223700 1.014700
H239 H 1.107300 1.380000 1.005600
H240 H 0.894000 1.414400 1.014600
H241 H -0.087600 0.913000 1.089700
H242 H -0.262400 0.961300 1.135300
H243 H -0.233000 1.061100 1.217300
H244 H -0.030000 1.113400 1.254200
H245 H 0.146500 1.067500 1.209000
H246 H 0.020700 0.671900 1.131800
H247 H 0.048800 0.508800 1.116000
H248 H 0.253000 0.447200 1.116200
H249 H 0.894000 0.414400 1.014600
H250 H 0.429800 0.546300 1.134100
H251 H 1.107300 0.380000 1.005600
H252 H 0.403500 0.708100 1.154200
H253 H 1.181000 0.223700 1.014700
H254 H 0.563200 0.934000 1.188000
H255 H 1.043800 0.101900 1.034400
H256 H 0.725000 0.862800 1.254600
H257 H 0.831500 0.136100 1.045700
H258 H 0.672700 0.782200 1.337200
H259 H 0.461100 0.768700 1.353000
H260 H 0.467300 0.087900 1.133500
H261 H 0.299100 0.839100 1.286900
H262 H 0.432700 0.123200 1.230000
H263 H 0.609300 0.504800 1.032100
H264 H 0.461000 0.278300 1.266100
H265 H 0.764800 0.464800 1.110900
H266 H 0.517200 0.398300 1.204600
H267 H 0.841700 0.579300 1.180700
H268 H 0.550100 0.364200 1.107300
H269 H 0.770600 0.735500 1.169100
H270 H 0.616600 0.777600 1.089500
H271 H 0.383400 0.222400 0.910500
H272 H 0.449900 0.635800 0.892700
H273 H 0.229400 0.264500 0.830900
H274 H 0.482800 0.601700 0.795400
H275 H 0.158300 0.420700 0.819300
H276 H 0.539000 0.721700 0.733900
H277 H 0.235200 0.535200 0.889100
H278 H 0.567300 0.876800 0.770000
H279 H 0.390700 0.495200 0.967900
H280 H 0.532700 0.912100 0.866500
H281 H 0.168500 0.863900 0.954300
H282 H 0.700900 0.160900 0.713100
H283 H -0.043800 0.898100 0.965600
H284 H 0.538900 0.231300 0.647000
H285 H -0.181000 0.776300 0.985300
H286 H 0.327300 0.217800 0.662800
H287 H -0.107300 0.620000 0.994400
H288 H 0.275000 0.137200 0.745400
H289 H 0.106000 0.585600 0.985400
H290 H 0.436800 0.066000 0.812000
H291 H 1.087600 1.087000 -0.089700
H292 H 1.262400 1.038700 -0.135300
H293 H 0.596500 0.291900 0.845800
H294 H 1.233000 0.938900 -0.217300
H295 H 0.570200 0.453700 0.865900
H296 H 1.030000 0.886600 -0.254200
H297 H 0.747000 0.552800 0.883800
H298 H 0.853500 0.932500 -0.209000
H299 H 0.951200 0.491200 0.884000
H300 H 0.979300 1.328100 -0.131800
H301 H 0.979300 0.328100 0.868200
H302 H 0.951200 1.491200 -0.116000
H303 H 0.747000 1.552800 -0.116200
H304 H 0.853500 -0.067500 0.791000
H305 H 0.570200 1.453700 -0.134100
H306 H 1.030000 -0.113400 0.745800
H307 H 0.596500 1.291900 -0.154200
H308 H 1.233000 -0.061100 0.782700
H309 H 0.436800 1.066000 -0.188000
H310 H 1.262400 0.038700 0.864700
H311 H 0.275000 1.137200 -0.254600
H312 H 1.087600 0.087000 0.910300
H313 H 0.327300 1.217800 -0.337200
H314 H 0.538900 1.231300 -0.353000
H315 H 0.700900 1.160900 -0.286900
H316 H 0.390700 1.495200 -0.032100
H317 H 0.235200 1.535200 -0.110900
H318 H 0.158300 1.420700 -0.180700
H319 H 0.229400 1.264500 -0.169100
H320 H 0.383400 1.222400 -0.089500
H321 H 0.550100 1.364200 0.107300
H322 H 0.517200 1.398300 0.204600
H323 H 0.461000 1.278300 0.266100
H324 H 0.432700 1.123200 0.230000
H325 H 0.467300 1.087900 0.133500
H326 H 0.831500 1.136100 0.045700
H327 H 0.106000 0.585600 -0.014600
H328 H 1.043800 1.101900 0.034400
H329 H -0.107300 0.620000 -0.005600
H330 H 1.181000 1.223700 0.014700
H331 H -0.181000 0.776300 -0.014700
H332 H 1.107300 1.380000 0.005600
H333 H -0.043800 0.898100 -0.034400
H334 H 0.894000 1.414400 0.014600
H335 H 0.168500 0.863900 -0.045700
H336 H -0.087600 0.913000 0.089700
H337 H -0.262400 0.961300 0.135300
H338 H 0.532700 0.912100 -0.133500
H339 H -0.233000 1.061100 0.217300
H340 H 0.567300 0.876800 -0.230000
H341 H -0.030000 1.113400 0.254200
H342 H 0.539000 0.721700 -0.266100
H343 H 0.146500 1.067500 0.209000
H344 H 0.482800 0.601700 -0.204600
H345 H 0.020700 0.671900 0.131800
H346 H 0.449900 0.635800 -0.107300
H347 H 0.048800 0.508800 0.116000
H348 H 0.253000 0.447200 0.116200
H349 H 0.616600 0.777600 0.089500
H350 H 0.429800 0.546300 0.134100
H351 H 0.770600 0.735500 0.169100
H352 H 0.403500 0.708100 0.154200
H353 H 0.841700 0.579300 0.180700
H354 H 0.563200 0.934000 0.188000
H355 H 0.764800 0.464800 0.110900
H356 H 0.725000 0.862800 0.254600
H357 H 0.609300 0.504800 0.032100
H358 H 0.672700 0.782200 0.337200
H359 H 0.461100 0.768700 0.353000
H360 H 0.299100 0.839100 0.286900
C361 C 0.481600 0.802080 0.319930
C362 C 0.384700 0.843900 0.280530
C363 C 0.608100 0.809830 0.310370
C364 C 0.417600 0.892840 0.231680
C365 C 0.639500 0.858380 0.261120
C366 C 0.640600 0.550890 0.060070
C367 C 0.543000 0.900840 0.221170
C368 C 0.733700 0.527280 0.107120
C369 C 0.209500 0.704080 0.143740
C370 C 0.332300 0.668230 0.145580
C371 C 0.780900 0.595890 0.148470
C372 C 0.347700 0.571380 0.134300
C373 C 0.737400 0.689060 0.141710
C374 C 0.242000 0.512250 0.123340
C375 C 0.644500 0.714410 0.094500
C376 C 0.119900 0.549150 0.122900
C377 C 0.594600 0.643880 0.055250
C378 C 0.102900 0.646370 0.132690
C379 C 0.472300 0.684260 -0.132250
C380 C 0.044400 0.986510 0.145400
C381 C 0.064300 1.046130 0.194290
C382 C 0.492500 0.664210 -0.190310
C383 C -0.041400 1.073380 0.220970
C384 C 0.526700 0.735630 -0.227020
C385 C -0.162700 1.042080 0.199110
C386 C 0.542700 0.828460 -0.205550
C387 C -0.180100 0.982400 0.150080
C388 C 0.522300 0.849710 -0.147950
C389 C -0.076300 0.953520 0.122600
C390 C 0.486300 0.777470 -0.112260
C391 C 0.319900 0.517600 0.650080
C392 C 0.564600 0.986760 0.019690
C393 C 0.337300 0.457920 0.699110
C394 C 0.458600 0.426620 0.720970
C395 C 0.564300 0.453870 0.694290
C396 C 0.544400 0.513490 0.645400
C397 C 0.602900 0.853630 0.632690
C398 C 0.619900 0.950850 0.622900
C399 C 0.742000 0.987750 0.623340
C400 C 0.847700 0.928620 0.634300
C401 C 0.832300 0.831770 0.645580
C402 C 0.709500 0.795920 0.643740
C403 C 0.844000 1.277870 0.030320
C404 C 0.924400 1.351700 0.018700
C405 C 0.113300 0.815220 -0.037050
C406 C 1.051600 1.330900 0.013180
C407 C -0.013800 0.835250 -0.030690
C408 C 1.095900 1.237500 0.018860
C409 C -0.095900 0.762500 -0.018860
C410 C 1.013800 1.164750 0.030690
C411 C -0.051600 0.669100 -0.013180
C412 C 0.886700 1.184780 0.037050
C413 C 0.075600 0.648300 -0.018700
C414 C 0.513700 1.222530 0.112260
C415 C 0.477700 1.150290 0.147950
C416 C 0.156000 0.722130 -0.030320
C417 C 0.457300 1.171540 0.205550
C418 C 0.435400 1.013240 -0.019690
C419 C 0.473300 1.264370 0.227020
C420 C 1.043000 0.599160 0.721170
C421 C 0.507500 1.335790 0.190310
C422 C 0.435400 0.013240 -0.019690
C423 C 0.527700 1.315740 0.132250
C424 C 1.139500 0.641620 0.761120
C425 C 0.405400 1.356120 -0.055250
C426 C 0.355500 1.285590 -0.094500
C427 C 0.156000 -0.277870 -0.030320
C428 C 0.262600 1.310940 -0.141710
C429 C 1.108100 0.690170 0.810370
C430 C 0.219100 1.404110 -0.148470
C431 C 0.075600 -0.351700 -0.018700
C432 C 0.266300 1.472720 -0.107120
C433 C 0.981600 0.697920 0.819930
C434 C 0.359400 1.449110 -0.060070
C435 C -0.051600 -0.330900 -0.013180
C436 C 0.582400 1.107160 -0.231680
C437 C 0.615300 1.156100 -0.280530
C438 C 0.884700 0.656100 0.780530
C439 C 0.518400 1.197920 -0.319930
C440 C 0.917600 0.607160 0.731680
C441 C 0.391900 1.190170 -0.310370
C442 C -0.095900 -0.237500 -0.018860
C443 C 0.360500 1.141620 -0.261120
C444 C 1.076300 0.046480 0.877400
C445 C 0.457000 1.099160 -0.221170
C446 C 1.180100 0.017600 0.849920
C447 C 0.790500 1.295920 -0.143740
C448 C 0.667700 1.331770 -0.145580
C449 C 1.162700 -0.042080 0.800890
C450 C 0.652300 1.428620 -0.134300
C451 C 1.041400 -0.073380 0.779030
C452 C 0.758000 1.487750 -0.123340
C453 C 0.935700 -0.046130 0.805710
C454 C 0.880100 1.450850 -0.122900
C455 C 0.955600 0.013490 0.854600
C456 C 0.897100 1.353630 -0.132690
C457 C 0.897100 0.353630 0.867310
C458 C 0.955600 1.013490 -0.145400
C459 C 0.935700 0.953870 -0.194290
C460 C 0.880100 0.450850 0.877100
C461 C 1.041400 0.926620 -0.220970
C462 C 0.758000 0.487750 0.876660
C463 C 1.162700 0.957920 -0.199110
C464 C 0.652300 0.428620 0.865700
C465 C 1.180100 1.017600 -0.150080
C466 C 0.667700 0.331770 0.854420
C467 C 1.076300 1.046480 -0.122600
C468 C 0.790500 0.295920 0.856260
C469 C 1.140600 0.949110 0.560070
C470 C -0.013800 -0.164750 -0.030690
C471 C 1.233700 0.972720 0.607120
C472 C 0.113300 -0.184780 -0.037050
C473 C 1.280900 0.904110 0.648470
C474 C 0.486300 -0.222530 -0.112260
C475 C 1.237400 0.810940 0.641710
C476 C 0.522300 -0.150290 -0.147950
C477 C 1.144500 0.785590 0.594500
C478 C 1.094600 0.856120 0.555250
C479 C 0.542700 -0.171540 -0.205550
C480 C 0.435400 1.013240 0.980310
C481 C 0.156000 0.722130 0.969680
C482 C 0.075600 0.648300 0.981300
C483 C 0.457000 0.099160 0.778830
C484 C -0.051600 0.669100 0.986820
C485 C 0.360500 0.141620 0.738880
C486 C -0.095900 0.762500 0.981140
C487 C 0.391900 0.190170 0.689630
C488 C -0.013800 0.835250 0.969310
C489 C 0.518400 0.197920 0.680070
C490 C 0.113300 0.815220 0.962950
C491 C 0.615300 0.156100 0.719470
C492 C 0.486300 0.777470 0.887740
C493 C 0.522300 0.849710 0.852050
C494 C 0.582400 0.107160 0.768320
C495 C 0.542700 0.828460 0.794450
C496 C 0.359400 0.449110 0.939930
C497 C 0.526700 0.735630 0.772980
C498 C 0.266300 0.472720 0.892880
C499 C 0.492500 0.664210 0.809690
C500 C 0.219100 0.404110 0.851530
C501 C 0.472300 0.684260 0.867750
C502 C 0.262600 0.310940 0.858290
C503 C 0.594600 0.643880 1.055250
C504 C 0.644500 0.714410 1.094500
C505 C 0.355500 0.285590 0.905500
C506 C 0.737400 0.689060 1.141710
C507 C 0.405400 0.356120 0.944750
C508 C 0.780900 0.595890 1.148470
C509 C 0.527700 0.315740 1.132250
C510 C 0.733700 0.527280 1.107120
C511 C 0.507500 0.335790 1.190310
C512 C 0.640600 0.550890 1.060070
C513 C 0.473300 0.264370 1.227020
C514 C 0.417600 0.892840 1.231680
C515 C 0.384700 0.843900 1.280530
C516 C 0.457300 0.171540 1.205550
C517 C 0.481600 0.802080 1.319930
C518 C 0.477700 0.150290 1.147950
C519 C 0.608100 0.809830 1.310370
C520 C 0.513700 0.222530 1.112260
C521 C 0.639500 0.858380 1.261120
C522 C 0.886700 0.184780 1.037050
C523 C 0.543000 0.900840 1.221170
C524 C 1.013800 0.164750 1.030690
C525 C 0.209500 0.704080 1.143740
C526 C 0.332300 0.668230 1.145580
C527 C 1.095900 0.237500 1.018860
C528 C 0.347700 0.571380 1.134300
C529 C 1.051600 0.330900 1.013180
C530 C 0.242000 0.512250 1.123340
C531 C 0.924400 0.351700 1.018700
C532 C 0.119900 0.549150 1.122900
C533 C 0.844000 0.277870 1.030320
C534 C 0.102900 0.646370 1.132690
C535 C 0.972300 0.815740 0.367750
C536 C 0.044400 0.986510 1.145400
C537 C 0.064300 1.046130 1.194290
C538 C 0.526700 -0.264370 -0.227020
C539 C -0.041400 1.073380 1.220970
C540 C 0.992500 0.835790 0.309690
C541 C -0.162700 1.042080 1.199110
C542 C 0.492500 -0.335790 -0.190310
C543 C -0.180100 0.982400 1.150080
C544 C 1.026700 0.764370 0.272980
C545 C -0.076300 0.953520 1.122600
C546 C 0.472300 -0.315740 -0.132250
C547 C 1.042700 0.671540 0.294450
C548 C 0.564600 0.986760 1.019690
C549 C 0.594600 -0.356120 0.055250
C550 C 1.022300 0.650290 0.352050
C551 C 0.986300 0.722530 0.387740
C552 C 0.644500 -0.285590 0.094500
C553 C 0.613300 0.684780 0.462950
C554 C 0.737400 -0.310940 0.141710
C555 C 0.486200 0.664750 0.469310
C556 C 0.780900 -0.404110 0.148470
C557 C 0.404100 0.737500 0.481140
C558 C 0.733700 -0.472720 0.107120
C559 C 0.844000 1.277870 1.030320
C560 C 0.924400 1.351700 1.018700
C561 C 0.448400 0.830900 0.486820
C562 C 1.051600 1.330900 1.013180
C563 C 0.640600 -0.449110 0.060070
C564 C 1.095900 1.237500 1.018860
C565 C 0.575600 0.851700 0.481300
C566 C 1.013800 1.164750 1.030690
C567 C 0.656000 0.777870 0.469680
C568 C 0.886700 1.184780 1.037050
C569 C 0.564600 -0.013240 1.019690
C570 C 0.513700 1.222530 1.112260
C571 C 0.477700 1.150290 1.147950
C572 C 0.935400 0.486760 0.480310
C573 C 0.457300 1.171540 1.205550
C574 C -0.076300 -0.046480 1.122600
C575 C 0.473300 1.264370 1.227020
C576 C -0.180100 -0.017600 1.150080
C577 C 0.507500 1.335790 1.190310
C578 C -0.162700 0.042080 1.199110
C579 C 0.527700 1.315740 1.132250
C580 C -0.041400 0.073380 1.220970
C581 C 0.405400 1.356120 0.944750
C582 C 0.355500 1.285590 0.905500
C583 C 0.064300 0.046130 1.194290
C584 C 0.262600 1.310940 0.858290
C585 C 0.044400 -0.013490 1.145400
C586 C 0.219100 1.404110 0.851530
C587 C 0.102900 -0.353630 1.132690
C588 C 0.266300 1.472720 0.892880
C589 C 0.119900 -0.450850 1.122900
C590 C 0.359400 1.449110 0.939930
C591 C 0.242000 -0.487750 1.123340
C592 C 0.582400 1.107160 0.768320
C593 C 0.615300 1.156100 0.719470
C594 C 0.347700 -0.428620 1.134300
C595 C 0.518400 1.197920 0.680070
C596 C 0.332300 -0.331770 1.145580
C597 C 0.391900 1.190170 0.689630
C598 C 0.209500 -0.295920 1.143740
C599 C 0.360500 1.141620 0.738880
C600 C 0.543000 -0.099160 1.221170
C601 C 0.457000 1.099160 0.778830
C602 C 0.639500 -0.141620 1.261120
C603 C 0.790500 1.295920 0.856260
C604 C 0.667700 1.331770 0.854420
C605 C 0.608100 -0.190170 1.310370
C606 C 0.652300 1.428620 0.865700
C607 C 0.481600 -0.197920 1.319930
C608 C 0.758000 1.487750 0.876660
C609 C 0.384700 -0.156100 1.280530
C610 C 0.880100 1.450850 0.877100
C611 C 0.417600 -0.107160 1.231680
C612 C 0.897100 1.353630 0.867310
C613 C 0.640600 -0.449110 1.060070
C614 C 0.955600 1.013490 0.854600
C615 C 0.935700 0.953870 0.805710
C616 C 0.733700 -0.472720 1.107120
C617 C 1.041400 0.926620 0.779030
C618 C 0.780900 -0.404110 1.148470
C619 C 1.162700 0.957920 0.800890
C620 C 0.737400 -0.310940 1.141710
C621 C 1.180100 1.017600 0.849920
C622 C 0.644500 -0.285590 1.094500
C623 C 1.076300 1.046480 0.877400
C624 C 0.594600 -0.356120 1.055250
C625 C 0.417600 -0.107160 0.231680
C626 C 1.576300 0.453520 0.377400
C627 C 0.384700 -0.156100 0.280530
C628 C 1.680100 0.482400 0.349920
C629 C 0.481600 -0.197920 0.319930
C630 C 1.662700 0.542080 0.300890
C631 C 0.608100 -0.190170 0.310370
C632 C 1.541400 0.573380 0.279030
C633 C 0.639500 -0.141620 0.261120
C634 C 1.435700 0.546130 0.305710
C635 C 1.455600 0.486510 0.354600
C636 C 0.064600 0.513240 0.519690
C637 C 0.344000 0.222130 0.530320
C638 C 0.424400 0.148300 0.518700
C639 C 0.472300 -0.315740 0.867750
C640 C 0.551600 0.169100 0.513180
C641 C 0.492500 -0.335790 0.809690
C642 C 0.595900 0.262500 0.518860
C643 C 0.526700 -0.264370 0.772980
C644 C 0.513800 0.335250 0.530690
C645 C 0.542700 -0.171540 0.794450
C646 C 0.386700 0.315220 0.537050
C647 C 0.522300 -0.150290 0.852050
C648 C 0.013700 0.277470 0.612260
C649 C -0.022300 0.349710 0.647950
C650 C 0.486300 -0.222530 0.887740
C651 C -0.042700 0.328460 0.705550
C652 C 0.113300 -0.184780 0.962950
C653 C -0.026700 0.235630 0.727020
C654 C -0.013800 -0.164750 0.969310
C655 C 0.007500 0.164210 0.690310
C656 C -0.095900 -0.237500 0.981140
C657 C 0.027700 0.184260 0.632250
C658 C -0.051600 -0.330900 0.986820
C659 C -0.094600 0.143880 0.444750
C660 C -0.144500 0.214410 0.405500
C661 C 0.075600 -0.351700 0.981300
C662 C -0.237400 0.189060 0.358290
C663 C 0.156000 -0.277870 0.969680
C664 C -0.280900 0.095890 0.351530
C665 C 0.435400 0.013240 0.980310
C666 C -0.233700 0.027280 0.392880
C667 C 0.543000 -0.099160 0.221170
C668 C -0.140600 0.050890 0.439930
C669 C 1.397100 0.146370 0.367310
C670 C 0.082400 0.392840 0.268320
C671 C 0.115300 0.343900 0.219470
C672 C 0.209500 -0.295920 0.143740
C673 C 0.018400 0.302080 0.180070
C674 C 1.380100 0.049150 0.377100
C675 C -0.108100 0.309830 0.189630
C676 C 0.332300 -0.331770 0.145580
C677 C -0.139500 0.358380 0.238880
C678 C 1.258000 0.012250 0.376660
C679 C -0.043000 0.400840 0.278830
C680 C 0.347700 -0.428620 0.134300
C681 C 0.290500 0.204080 0.356260
C682 C 0.167700 0.168230 0.354420
C683 C 1.152300 0.071380 0.365700
C684 C 0.152300 0.071380 0.365700
C685 C 0.242000 -0.487750 0.123340
C686 C 0.258000 0.012250 0.376660
C687 C 1.167700 0.168230 0.354420
C688 C 0.380100 0.049150 0.377100
C689 C 1.290500 0.204080 0.356260
C690 C 0.397100 0.146370 0.367310
C691 C 1.076300 0.046480 -0.122600
C692 C 0.455600 0.486510 0.354600
C693 C 0.435700 0.546130 0.305710
C694 C 1.180100 0.017600 -0.150080
C695 C 0.541400 0.573380 0.279030
C696 C 1.162700 -0.042080 -0.199110
C697 C 0.662700 0.542080 0.300890
C698 C 1.041400 -0.073380 -0.220970
C699 C 0.680100 0.482400 0.349920
C700 C 0.935700 -0.046130 -0.194290
C701 C 0.576300 0.453520 0.377400
C702 C 0.955600 0.013490 -0.145400
C703 C 0.119900 -0.450850 0.122900
C704 C -0.064600 0.486760 0.480310
C705 C 0.957000 0.400840 0.278830
C706 C 0.102900 -0.353630 0.132690
C707 C 0.860500 0.358380 0.238880
C708 C 0.044400 -0.013490 0.145400
C709 C 0.891900 0.309830 0.189630
C710 C 0.064300 0.046130 0.194290
C711 C 1.018400 0.302080 0.180070
C712 C -0.041400 0.073380 0.220970
C713 C 1.115300 0.343900 0.219470
C714 C 1.082400 0.392840 0.268320
C715 C -0.344000 0.777870 0.469680
C716 C -0.424400 0.851700 0.481300
C717 C 0.897100 0.353630 -0.132690
C718 C -0.551600 0.830900 0.486820
C719 C 0.880100 0.450850 -0.122900
C720 C -0.595900 0.737500 0.481140
C721 C 0.758000 0.487750 -0.123340
C722 C -0.513800 0.664750 0.469310
C723 C 0.652300 0.428620 -0.134300
C724 C -0.386700 0.684780 0.462950
C725 C 0.667700 0.331770 -0.145580
C726 C -0.013700 0.722530 0.387740
C727 C 0.022300 0.650290 0.352050
C728 C 0.790500 0.295920 -0.143740
C729 C 0.042700 0.671540 0.294450
C730 C 0.457000 0.099160 -0.221170
C731 C 0.026700 0.764370 0.272980
C732 C 0.360500 0.141620 -0.261120
C733 C -0.007500 0.835790 0.309690
C734 C 0.391900 0.190170 -0.310370
C735 C -0.027700 0.815740 0.367750
C736 C 0.518400 0.197920 -0.319930
C737 C 0.094600 0.856120 0.555250
C738 C 0.144500 0.785590 0.594500
C739 C 0.615300 0.156100 -0.280530
C740 C 0.237400 0.810940 0.641710
C741 C 0.582400 0.107160 -0.231680
C742 C 0.280900 0.904110 0.648470
C743 C 0.359400 0.449110 -0.060070
C744 C 0.233700 0.972720 0.607120
C745 C 0.266300 0.472720 -0.107120
C746 C 0.140600 0.949110 0.560070
C747 C 0.219100 0.404110 -0.148470
C748 C -0.082400 0.607160 0.731680
C749 C -0.115300 0.656100 0.780530
C750 C 0.262600 0.310940 -0.141710
C751 C -0.018400 0.697920 0.819930
C752 C 0.355500 0.285590 -0.094500
C753 C 0.108100 0.690170 0.810370
C754 C 0.405400 0.356120 -0.055250
C755 C 0.139500 0.641620 0.761120
C756 C 0.527700 0.315740 0.132250
C757 C 0.043000 0.599160 0.721170
C758 C 0.507500 0.335790 0.190310
C759 C -0.290500 0.795920 0.643740
C760 C -0.167700 0.831770 0.645580
C761 C 0.473300 0.264370 0.227020
C762 C -0.152300 0.928620 0.634300
C763 C 0.457300 0.171540 0.205550
C764 C -0.258000 0.987750 0.623340
C765 C 0.477700 0.150290 0.147950
C766 C -0.380100 0.950850 0.622900
C767 C 0.513700 0.222530 0.112260
C768 C -0.397100 0.853630 0.632690
C769 C 0.886700 0.184780 0.037050
C770 C -0.455600 0.513490 0.645400
C771 C -0.435700 0.453870 0.694290
C772 C 1.013800 0.164750 0.030690
C773 C -0.541400 0.426620 0.720970
C774 C 1.095900 0.237500 0.018860
C775 C -0.662700 0.457920 0.699110
C776 C 1.051600 0.330900 0.013180
C777 C -0.680100 0.517600 0.650080
C778 C 0.924400 0.351700 0.018700
C779 C -0.576300 0.546480 0.622600
C780 C 0.844000 0.277870 0.030320
C781 C -0.162700 0.042080 0.199110
C782 C 0.859400 0.050890 0.439930
C783 C -0.180100 -0.017600 0.150080
C784 C 0.766300 0.027280 0.392880
C785 C -0.076300 -0.046480 0.122600
C786 C 0.719100 0.095890 0.351530
C787 C 0.762600 0.189060 0.358290
C788 C 0.564600 -0.013240 0.019690
C789 C 0.855500 0.214410 0.405500
C790 C 0.905400 0.143880 0.444750
C791 C 1.027700 0.184260 0.632250
C792 C 1.064600 0.513240 0.519690
C793 C 1.344000 0.222130 0.530320
C794 C 1.424400 0.148300 0.518700
C795 C 1.007500 0.164210 0.690310
C796 C 1.551600 0.169100 0.513180
C797 C 0.973300 0.235630 0.727020
C798 C 1.595900 0.262500 0.518860
C799 C 0.957300 0.328460 0.705550
C800 C 1.513800 0.335250 0.530690
C801 C 0.977700 0.349710 0.647950
C802 C 1.386700 0.315220 0.537050
C803 C 1.013700 0.277470 0.612260
C804 C 0.423700 0.546480 0.622600
O805 O 0.504720 0.340150 -0.008340
O806 O 0.716350 0.303260 0.037330
O807 O 0.680000 0.059910 -0.193710
O808 O 0.666400 1.019060 0.005030
O809 O 0.812720 0.199260 -0.156360
O810 O 0.554780 0.933940 0.064400
O811 O 0.853850 0.036040 -0.112650
O812 O 0.333600 -0.019060 -0.005030
O813 O 1.353850 0.463960 0.387350
O814 O 0.554780 -0.066060 0.064400
O815 O 1.312720 0.300740 0.343640
O816 O 1.180000 0.440090 0.306290
O817 O 1.004720 0.159850 0.491660
O818 O 1.034250 0.306360 0.554840
O819 O 0.666400 0.019060 0.005030
O820 O 1.216350 0.196740 0.537330
O821 O 1.054780 0.566060 0.564400
O822 O 1.166400 0.480940 0.505030
O823 O 0.445220 0.066060 -0.064400
O824 O 0.283650 -0.303260 -0.037330
O825 O 0.716350 1.303260 0.037330
O826 O -0.353850 0.536040 0.612650
O827 O -0.312720 0.699260 0.656360
O828 O -0.180000 0.559910 0.693710
O829 O -0.004720 0.840150 0.508340
O830 O -0.034250 0.693640 0.445160
O831 O -0.216350 0.803260 0.462670
O832 O 0.465750 -0.193640 -0.054840
O833 O 0.534250 1.193640 0.054840
O834 O 0.495280 -0.340150 0.008340
O835 O -0.054780 0.433940 0.435600
O836 O -0.166400 0.519060 0.494970
O837 O 0.504720 1.340150 -0.008340
O838 O 0.320000 -0.059910 0.193710
O839 O 0.680000 1.059910 -0.193710
O840 O 0.333600 -0.019060 0.994970
O841 O 0.445220 0.066060 0.935600
O842 O 0.283650 -0.303260 0.962670
O843 O 0.465750 -0.193640 0.945160
O844 O 0.495280 -0.340150 1.008340
O845 O 0.320000 -0.059910 1.193710
O846 O 0.187280 -0.199260 1.156360
O847 O 0.146150 -0.036040 1.112650
O848 O 0.353850 0.463960 0.387350
O849 O 0.312720 0.300740 0.343640
O850 O 0.180000 0.440090 0.306290
O851 O 0.004720 0.159850 0.491660
O852 O 0.034250 0.306360 0.554840
O853 O 0.216350 0.196740 0.537330
O854 O 0.054780 0.566060 0.564400
O855 O 0.166400 0.480940 0.505030
O856 O 0.187280 -0.199260 0.156360
O857 O 0.812720 1.199260 -0.156360
O858 O 0.853850 1.036040 -0.112650
O859 O 0.833600 0.519060 0.494970
O860 O 0.666400 0.019060 1.005030
O861 O 0.945220 0.433940 0.435600
O862 O 0.146150 -0.036040 0.112650
O863 O 0.146150 0.963960 0.112650
O864 O 0.187280 0.800740 0.156360
O865 O 0.783650 0.803260 0.462670
O866 O 0.965750 0.693640 0.445160
O867 O 0.995280 0.840150 0.508340
O868 O 0.820000 0.559910 0.693710
O869 O 0.687280 0.699260 0.656360
O870 O 0.646150 0.536040 0.612650
O871 O 0.554780 -0.066060 1.064400
O872 O 0.320000 0.940090 0.193710
O873 O 0.495280 0.659850 0.008340
O874 O 0.465750 0.806360 -0.054840
O875 O 0.853850 1.036040 0.887350
O876 O 0.812720 1.199260 0.843640
O877 O 0.680000 1.059910 0.806290
O878 O 0.504720 1.340150 0.991660
O879 O 0.534250 1.193640 1.054840
O880 O 0.716350 1.303260 1.037330
O881 O 0.283650 0.696740 -0.037330
O882 O 0.445220 1.066060 -0.064400
O883 O 0.333600 0.980940 -0.005030
O884 O 0.554780 0.933940 1.064400
O885 O 0.666400 1.019060 1.005030
O886 O 0.716350 0.303260 1.037330
O887 O 0.534250 0.193640 1.054840
O888 O 0.504720 0.340150 0.991660
O889 O 0.680000 0.059910 0.806290
O890 O 0.812720 0.199260 0.843640
O891 O 0.853850 0.036040 0.887350
O892 O 0.146150 0.963960 1.112650
O893 O 0.187280 0.800740 1.156360
O894 O 0.320000 0.940090 1.193710
O895 O 0.495280 0.659850 1.008340
O896 O 0.465750 0.806360 0.945160
O897 O 0.283650 0.696740 0.962670
O898 O 0.445220 1.066060 0.935600
O899 O 0.333600 0.980940 0.994970
O900 O 0.534250 0.193640 0.054840
P901 P 0.405110 0.753450 0.997060
P902 P 0.405110 -0.246550 -0.002940
P903 P 0.739830 0.109100 -0.131490
P904 P 0.405110 0.753450 -0.002940
P905 P 0.260170 0.890900 0.131490
P906 P 0.260170 -0.109100 0.131490
P907 P 0.594890 1.246550 1.002940
P908 P 0.739830 1.109100 0.868510
P909 P 0.739830 0.109100 0.868510
P910 P 0.594890 0.246550 1.002940
P911 P 0.594890 0.246550 0.002940
P912 P 0.760170 0.609100 0.631490
P913 P 0.905110 0.746550 0.497060
P914 P 1.239830 0.390900 0.368510
P915 P 0.594890 1.246550 0.002940
P916 P 0.094890 0.253450 0.502940
P917 P 0.239830 0.390900 0.368510
P918 P 0.260170 -0.109100 1.131490
P919 P 0.405110 -0.246550 0.997060
P920 P 0.739830 1.109100 -0.131490
P921 P 1.094890 0.253450 0.502940
P922 P -0.094890 0.746550 0.497060
P923 P -0.239830 0.609100 0.631490
P924 P 0.260170 0.890900 1.131490
Cu925 Cu -0.125050 0.626180 0.560180
Cu926 Cu 0.374950 -0.126180 1.060180
Cu927 Cu 0.125050 0.373820 0.439820
Cu928 Cu 0.874950 0.626180 0.560180
Cu929 Cu 0.625050 1.126180 -0.060180
Cu930 Cu 0.625050 0.126180 -0.060180
Cu931 Cu 0.625050 0.126180 0.939820
Cu932 Cu 0.625050 1.126180 0.939820
Cu933 Cu 0.374950 0.873820 0.060180
Cu934 Cu 0.374950 0.873820 1.060180
Cu935 Cu 1.125050 0.373820 0.439820
Cu936 Cu 0.374950 -0.126180 0.060180

#END
