./ABADAL_from_POSCAR.cif_generated_by_CrystalShift
_symmetry_cell_setting triclinic
_symmetry_space_group_name_H-M 'P 1'
loop_
_symmetry_equiv_pos_site_id
_symmetry_equiv_pos_as_xyz
1 x,y,z
_cell_length_a 11.760000
_cell_length_b 17.778000
_cell_length_c 10.320000
_cell_angle_alpha 90.000000
_cell_angle_beta 101.340000
_cell_angle_gamma 90.000000
_cell_volume 2115.473588
loop_
_atom_site_label
_atom_site_type_symbol
_atom_site_fract_x
_atom_site_fract_y
_atom_site_fract_z
H1 H 1.098100 0.518800 0.829900
H2 H 1.049300 0.533600 1.209900
H3 H 1.101800 0.411000 1.243700
H4 H 1.153600 0.338500 1.075300
H5 H 1.281200 0.581300 0.406600
H6 H 1.256800 0.592200 0.177200
H7 H 1.293000 0.489000 0.051000
H8 H 1.353500 0.375300 0.155100
H9 H 0.325100 0.206100 0.285000
H10 H 0.365100 0.135300 0.385100
H11 H 0.394000 0.157300 0.133100
H12 H 0.468500 0.105100 0.251000
H13 H 1.378000 0.364100 0.383900
H14 H 1.419400 0.604100 0.478000
H15 H 1.479800 0.723600 0.556000
H16 H 1.494100 0.753300 0.779000
H17 H 1.447400 0.662600 0.924400
H18 H 1.386900 0.543000 0.846500
H19 H -0.016400 0.162000 0.426400
H20 H -0.174600 0.244000 0.397100
H21 H -0.203400 0.329600 0.221000
H22 H -0.073600 0.332100 0.077300
H23 H 0.084400 0.250400 0.105900
H24 H 1.084400 0.249600 0.605900
H25 H 0.926400 0.167900 0.577300
H26 H 0.796600 0.170400 0.721000
H27 H 0.825400 0.256000 0.897100
H28 H 0.983600 0.338000 0.926400
H29 H 1.468500 0.394900 0.751000
H30 H 1.394000 0.342700 0.633100
H31 H 1.365100 0.364700 0.885100
H32 H 1.325100 0.293900 0.785000
H33 H 0.901900 0.481200 0.170100
H34 H 0.953600 0.409200 0.000500
H35 H 0.950700 0.466400 -0.209900
H36 H 0.386900 -0.043000 0.346500
H37 H 0.447400 -0.162600 0.424400
H38 H 0.494100 -0.253300 0.279000
H39 H 0.479800 -0.223600 0.056000
H40 H 0.419400 -0.104100 -0.022000
H41 H 0.378000 0.135900 -0.116100
H42 H 0.353500 0.124700 -0.344900
H43 H 0.293000 0.011000 -0.449000
H44 H 0.256800 -0.092200 -0.322800
H45 H 0.281200 -0.081300 -0.093400
H46 H 0.898200 0.589000 -0.243700
H47 H 0.846400 0.661500 -0.075300
H48 H 0.718800 0.418700 0.593400
H49 H 0.743200 0.407800 0.822800
H50 H 0.707000 0.511000 0.949000
H51 H 0.646500 0.624700 0.844900
H52 H 0.153600 0.161500 0.575300
H53 H 0.101800 0.089000 0.743700
H54 H 0.049300 -0.033600 0.709900
H55 H 0.046400 -0.090800 0.499500
H56 H 0.098100 -0.018800 0.329900
H57 H 0.622000 0.635900 0.616100
H58 H 0.580600 0.395900 0.522000
H59 H 0.520200 0.276400 0.444000
H60 H 0.505900 0.246700 0.221000
H61 H 0.552600 0.337400 0.075600
H62 H 0.613100 0.457000 0.153500
H63 H 0.915600 0.750400 0.394100
H64 H 1.073600 0.832100 0.422700
H65 H -0.325100 -0.206100 -0.285000
H66 H -0.365100 -0.135300 -0.385100
H67 H -0.394000 -0.157300 -0.133100
H68 H -0.468500 -0.105100 -0.251000
H69 H 1.203400 0.829600 0.279000
H70 H 1.174600 0.744000 0.102900
H71 H 1.016400 0.662000 0.073600
H72 H 0.531500 0.605100 0.249000
H73 H 0.606000 0.657300 0.366900
H74 H 0.634900 0.635300 0.114900
H75 H 0.016400 -0.162000 -0.426400
H76 H 0.174600 -0.244000 -0.397100
H77 H 0.203400 -0.329600 -0.221000
H78 H 0.073600 -0.332100 -0.077300
H79 H -0.084400 -0.250400 -0.105900
H80 H 0.674900 0.706100 0.215000
H81 H 0.098100 0.518800 0.829900
H82 H 0.046400 0.590800 0.999500
H83 H 0.049300 0.533600 1.209900
H84 H 0.101800 0.411000 1.243700
H85 H 0.153600 0.338500 1.075300
H86 H 0.281200 0.581300 0.406600
H87 H 0.256800 0.592200 0.177200
H88 H 0.293000 0.489000 0.051000
H89 H 0.353500 0.375300 0.155100
H90 H 0.378000 0.364100 0.383900
H91 H 0.419400 0.604100 0.478000
H92 H -0.386900 0.043000 -0.346500
H93 H -0.447400 0.162600 -0.424400
H94 H -0.494100 0.253300 -0.279000
H95 H -0.479800 0.223600 -0.056000
H96 H -0.419400 0.104100 0.022000
H97 H -0.378000 -0.135900 0.116100
H98 H -0.353500 -0.124700 0.344900
H99 H -0.293000 -0.011000 0.449000
H100 H -0.256800 0.092200 0.322800
H101 H -0.281200 0.081300 0.093400
H102 H 0.479800 0.723600 0.556000
H103 H 0.494100 0.753300 0.779000
H104 H 0.447400 0.662600 0.924400
H105 H 0.386900 0.543000 0.846500
H106 H 0.084400 0.249600 0.605900
H107 H -0.073600 0.167900 0.577300
H108 H -0.153600 -0.161500 -0.575300
H109 H -0.101800 -0.089000 -0.743700
H110 H -0.049300 0.033600 -0.709900
H111 H -0.046400 0.090800 -0.499500
H112 H -0.098100 0.018800 -0.329900
H113 H -0.203400 0.170400 0.721000
H114 H -0.174600 0.256000 0.897100
H115 H -0.016400 0.338000 0.926400
H116 H 0.468500 0.394900 0.751000
H117 H 0.394000 0.342700 0.633100
H118 H 0.365100 0.364700 0.885100
H119 H 0.325100 0.293900 0.785000
H120 H -0.098100 0.481200 0.170100
H121 H 0.325100 0.206100 1.285000
H122 H 0.365100 0.135300 1.385100
H123 H 0.394000 0.157300 1.133100
H124 H 0.468500 0.105100 1.251000
H125 H -0.046400 0.409200 0.000500
H126 H -0.049300 0.466400 -0.209900
H127 H -0.101800 0.589000 -0.243700
H128 H -0.153600 0.661500 -0.075300
H129 H -0.281200 0.418700 0.593400
H130 H -0.256800 0.407800 0.822800
H131 H -0.016400 0.162000 1.426400
H132 H -0.174600 0.244000 1.397100
H133 H -0.203400 0.329600 1.221000
H134 H -0.073600 0.332100 1.077300
H135 H 0.084400 0.250400 1.105900
H136 H -0.293000 0.511000 0.949000
H137 H -0.353500 0.624700 0.844900
H138 H -0.378000 0.635900 0.616100
H139 H -0.419400 0.395900 0.522000
H140 H -0.479800 0.276400 0.444000
H141 H -0.494100 0.246700 0.221000
H142 H -0.447400 0.337400 0.075600
H143 H -0.386900 0.457000 0.153500
H144 H -0.084400 0.750400 0.394100
H145 H 0.073600 0.832100 0.422700
H146 H 0.203400 0.829600 0.279000
H147 H 0.174600 0.744000 0.102900
H148 H 0.386900 -0.043000 1.346500
H149 H 0.447400 -0.162600 1.424400
H150 H 0.494100 -0.253300 1.279000
H151 H 0.479800 -0.223600 1.056000
H152 H 0.419400 -0.104100 0.978000
H153 H 0.378000 0.135900 0.883900
H154 H 0.353500 0.124700 0.655100
H155 H 0.293000 0.011000 0.551000
H156 H 0.256800 -0.092200 0.677200
H157 H 0.281200 -0.081300 0.906600
H158 H 0.016400 0.662000 0.073600
H159 H -0.468500 0.605100 0.249000
H160 H -0.394000 0.657300 0.366900
H161 H -0.365100 0.635300 0.114900
H162 H -0.325100 0.706100 0.215000
H163 H 0.901900 1.018800 0.670100
H164 H 0.153600 0.161500 1.575300
H165 H 0.101800 0.089000 1.743700
H166 H 0.049300 -0.033600 1.709900
H167 H 0.046400 -0.090800 1.499500
H168 H 0.098100 -0.018800 1.329900
H169 H 0.953600 1.090800 0.500500
H170 H 0.950700 1.033600 0.290100
H171 H 0.898200 0.911000 0.256300
H172 H 0.846400 0.838500 0.424700
H173 H 0.718800 1.081300 1.093400
H174 H 0.743200 1.092200 1.322800
H175 H 0.707000 0.989000 1.449000
H176 H 0.646500 0.875300 1.344900
H177 H -0.325100 -0.206100 0.715000
H178 H -0.365100 -0.135300 0.614900
H179 H -0.394000 -0.157300 0.866900
H180 H -0.468500 -0.105100 0.749000
H181 H 0.622000 0.864100 1.116100
H182 H 0.580600 1.104100 1.022000
H183 H 0.520200 1.223600 0.944000
H184 H 0.505900 1.253300 0.721000
H185 H 0.552600 1.162600 0.575600
H186 H 0.613100 1.043000 0.653500
H187 H 0.016400 -0.162000 0.573600
H188 H 0.174600 -0.244000 0.602900
H189 H 0.203400 -0.329600 0.779000
H190 H 0.073600 -0.332100 0.922700
H191 H -0.084400 -0.250400 0.894100
H192 H 0.915600 0.749600 0.894100
H193 H 1.073600 0.667900 0.922700
H194 H 1.203400 0.670400 0.779000
H195 H 1.174600 0.756000 0.602900
H196 H 1.016400 0.838000 0.573600
H197 H 0.531500 0.894900 0.749000
H198 H 0.606000 0.842700 0.866900
H199 H 0.634900 0.864700 0.614900
H200 H 0.674900 0.793900 0.715000
H201 H 1.098100 0.981200 1.329900
H202 H 1.046400 0.909200 1.499500
H203 H 1.049300 0.966400 1.709900
H204 H -0.386900 0.043000 0.653500
H205 H -0.447400 0.162600 0.575600
H206 H -0.494100 0.253300 0.721000
H207 H -0.479800 0.223600 0.944000
H208 H -0.419400 0.104100 1.022000
H209 H -0.378000 -0.135900 1.116100
H210 H -0.353500 -0.124700 1.344900
H211 H -0.293000 -0.011000 1.449000
H212 H -0.256800 0.092200 1.322800
H213 H -0.281200 0.081300 1.093400
H214 H 1.101800 1.089000 1.743700
H215 H 1.153600 1.161500 1.575300
H216 H 1.281200 0.918700 0.906600
H217 H 1.256800 0.907800 0.677200
H218 H 1.293000 1.011000 0.551000
H219 H 1.353500 1.124700 0.655100
H220 H -0.153600 -0.161500 0.424700
H221 H -0.101800 -0.089000 0.256300
H222 H -0.049300 0.033600 0.290100
H223 H -0.046400 0.090800 0.500500
H224 H -0.098100 0.018800 0.670100
H225 H 1.378000 1.135900 0.883900
H226 H 1.419400 0.895900 0.978000
H227 H 1.479800 0.776400 1.056000
H228 H 1.494100 0.746700 1.279000
H229 H 1.447400 0.837400 1.424400
H230 H 1.386900 0.957000 1.346500
H231 H 1.084400 1.250400 1.105900
H232 H 0.926400 1.332100 1.077300
H233 H 0.325100 1.206100 0.285000
H234 H 0.365100 1.135300 0.385100
H235 H 0.394000 1.157300 0.133100
H236 H 0.468500 1.105100 0.251000
H237 H 0.796600 1.329600 1.221000
H238 H 0.825400 1.244000 1.397100
H239 H 0.983600 1.162000 1.426400
H240 H 1.468500 1.105100 1.251000
H241 H 1.394000 1.157300 1.133100
H242 H 1.365100 1.135300 1.385100
H243 H -0.016400 1.162000 0.426400
H244 H -0.174600 1.244000 0.397100
H245 H -0.203400 1.329600 0.221000
H246 H -0.073600 1.332100 0.077300
H247 H 0.084400 1.250400 0.105900
H248 H 1.325100 1.206100 1.285000
H249 H 0.901900 1.018800 -0.329900
H250 H 0.953600 1.090800 -0.499500
H251 H 0.950700 1.033600 -0.709900
H252 H 0.898200 0.911000 -0.743700
H253 H 0.846400 0.838500 -0.575300
H254 H 0.718800 1.081300 0.093400
H255 H 0.743200 1.092200 0.322800
H256 H 0.707000 0.989000 0.449000
H257 H 0.646500 0.875300 0.344900
H258 H 0.622000 0.864100 0.116100
H259 H 0.580600 1.104100 0.022000
H260 H 0.386900 0.957000 0.346500
H261 H 0.447400 0.837400 0.424400
H262 H 0.494100 0.746700 0.279000
H263 H 0.479800 0.776400 0.056000
H264 H 0.419400 0.895900 -0.022000
H265 H 0.378000 1.135900 -0.116100
H266 H 0.353500 1.124700 -0.344900
H267 H 0.293000 1.011000 -0.449000
H268 H 0.256800 0.907800 -0.322800
H269 H 0.281200 0.918700 -0.093400
H270 H 0.520200 1.223600 -0.056000
H271 H 0.505900 1.253300 -0.279000
H272 H 0.552600 1.162600 -0.424400
H273 H 0.613100 1.043000 -0.346500
H274 H 0.915600 0.749600 -0.105900
H275 H 1.073600 0.667900 -0.077300
H276 H 0.153600 1.161500 0.575300
H277 H 0.101800 1.089000 0.743700
H278 H 0.049300 0.966400 0.709900
H279 H 0.046400 0.909200 0.499500
H280 H 0.098100 0.981200 0.329900
H281 H 1.203400 0.670400 -0.221000
H282 H 1.174600 0.756000 -0.397100
H283 H 1.016400 0.838000 -0.426400
H284 H 0.531500 0.894900 -0.251000
H285 H 0.606000 0.842700 -0.133100
H286 H 0.634900 0.864700 -0.385100
H287 H 0.674900 0.793900 -0.285000
H288 H 1.098100 0.981200 0.329900
H289 H -0.325100 0.793900 -0.285000
H290 H -0.365100 0.864700 -0.385100
H291 H -0.394000 0.842700 -0.133100
H292 H -0.468500 0.894900 -0.251000
H293 H 1.046400 0.909200 0.499500
H294 H 1.049300 0.966400 0.709900
H295 H 1.101800 1.089000 0.743700
H296 H 1.153600 1.161500 0.575300
H297 H 1.281200 0.918700 -0.093400
H298 H 1.256800 0.907800 -0.322800
H299 H 0.016400 0.838000 -0.426400
H300 H 0.174600 0.756000 -0.397100
H301 H 0.203400 0.670400 -0.221000
H302 H 0.073600 0.667900 -0.077300
H303 H -0.084400 0.749600 -0.105900
H304 H 1.293000 1.011000 -0.449000
H305 H 1.353500 1.124700 -0.344900
H306 H 1.378000 1.135900 -0.116100
H307 H 1.419400 0.895900 -0.022000
H308 H 1.479800 0.776400 0.056000
H309 H 1.494100 0.746700 0.279000
H310 H 1.447400 0.837400 0.424400
H311 H 1.386900 0.957000 0.346500
H312 H 1.084400 1.250400 0.105900
H313 H 0.926400 1.332100 0.077300
H314 H 0.796600 1.329600 0.221000
H315 H 0.825400 1.244000 0.397100
H316 H -0.386900 1.043000 -0.346500
H317 H -0.447400 1.162600 -0.424400
H318 H -0.494100 1.253300 -0.279000
H319 H -0.479800 1.223600 -0.056000
H320 H -0.419400 1.104100 0.022000
H321 H -0.378000 0.864100 0.116100
H322 H -0.353500 0.875300 0.344900
H323 H -0.293000 0.989000 0.449000
H324 H -0.256800 1.092200 0.322800
H325 H -0.281200 1.081300 0.093400
H326 H 0.983600 1.162000 0.426400
H327 H 1.468500 1.105100 0.251000
H328 H 1.394000 1.157300 0.133100
H329 H 1.365100 1.135300 0.385100
H330 H 1.325100 1.206100 0.285000
H331 H 0.901900 0.018800 0.670100
H332 H -0.153600 0.838500 -0.575300
H333 H -0.101800 0.911000 -0.743700
H334 H -0.049300 1.033600 -0.709900
H335 H -0.046400 1.090800 -0.499500
H336 H -0.098100 1.018800 -0.329900
H337 H 0.953600 0.090800 0.500500
H338 H 0.950700 0.033600 0.290100
H339 H 0.898200 -0.089000 0.256300
H340 H 0.846400 -0.161500 0.424700
H341 H 0.718800 0.081300 1.093400
H342 H 0.743200 0.092200 1.322800
H343 H 0.707000 -0.011000 1.449000
H344 H 0.646500 -0.124700 1.344900
H345 H 0.325100 1.206100 1.285000
H346 H 0.365100 1.135300 1.385100
H347 H 0.394000 1.157300 1.133100
H348 H 0.468500 1.105100 1.251000
H349 H 0.622000 -0.135900 1.116100
H350 H 0.580600 0.104100 1.022000
H351 H 0.520200 0.223600 0.944000
H352 H 0.505900 0.253300 0.721000
H353 H 0.552600 0.162600 0.575600
H354 H 0.613100 0.043000 0.653500
H355 H -0.016400 1.162000 1.426400
H356 H -0.174600 1.244000 1.397100
H357 H -0.203400 1.329600 1.221000
H358 H -0.073600 1.332100 1.077300
H359 H 0.084400 1.250400 1.105900
H360 H 0.915600 -0.250400 0.894100
H361 H 1.073600 -0.332100 0.922700
H362 H 1.203400 -0.329600 0.779000
H363 H 1.174600 -0.244000 0.602900
H364 H 1.016400 -0.162000 0.573600
H365 H 0.531500 -0.105100 0.749000
H366 H 0.606000 -0.157300 0.866900
H367 H 0.634900 -0.135300 0.614900
H368 H 0.674900 -0.206100 0.715000
H369 H 1.098100 -0.018800 1.329900
H370 H 1.046400 -0.090800 1.499500
H371 H 1.049300 -0.033600 1.709900
H372 H 0.386900 0.957000 1.346500
H373 H 0.447400 0.837400 1.424400
H374 H 0.494100 0.746700 1.279000
H375 H 0.479800 0.776400 1.056000
H376 H 0.419400 0.895900 0.978000
H377 H 0.378000 1.135900 0.883900
H378 H 0.353500 1.124700 0.655100
H379 H 0.293000 1.011000 0.551000
H380 H 0.256800 0.907800 0.677200
H381 H 0.281200 0.918700 0.906600
H382 H 1.101800 0.089000 1.743700
H383 H 1.153600 0.161500 1.575300
H384 H 1.281200 -0.081300 0.906600
H385 H 1.256800 -0.092200 0.677200
H386 H 1.293000 0.011000 0.551000
H387 H 1.353500 0.124700 0.655100
H388 H 0.153600 1.161500 1.575300
H389 H 0.101800 1.089000 1.743700
H390 H 0.049300 0.966400 1.709900
H391 H 0.046400 0.909200 1.499500
H392 H 0.098100 0.981200 1.329900
H393 H 1.378000 0.135900 0.883900
H394 H 1.419400 -0.104100 0.978000
H395 H 1.479800 -0.223600 1.056000
H396 H 1.494100 -0.253300 1.279000
H397 H 1.447400 -0.162600 1.424400
H398 H 1.386900 -0.043000 1.346500
H399 H 1.084400 0.250400 1.105900
H400 H 0.926400 0.332100 1.077300
H401 H -0.325100 0.793900 0.715000
H402 H -0.365100 0.864700 0.614900
H403 H -0.394000 0.842700 0.866900
H404 H -0.468500 0.894900 0.749000
H405 H 0.796600 0.329600 1.221000
H406 H 0.825400 0.244000 1.397100
H407 H 0.983600 0.162000 1.426400
H408 H 1.468500 0.105100 1.251000
H409 H 1.394000 0.157300 1.133100
H410 H 1.365100 0.135300 1.385100
H411 H 0.016400 0.838000 0.573600
H412 H 0.174600 0.756000 0.602900
H413 H 0.203400 0.670400 0.779000
H414 H 0.073600 0.667900 0.922700
H415 H -0.084400 0.749600 0.894100
H416 H 1.325100 0.206100 1.285000
H417 H 0.901900 0.018800 -0.329900
H418 H 0.953600 0.090800 -0.499500
H419 H 0.950700 0.033600 -0.709900
H420 H 0.898200 -0.089000 -0.743700
H421 H 0.846400 -0.161500 -0.575300
H422 H 0.718800 0.081300 0.093400
H423 H 0.743200 0.092200 0.322800
H424 H 0.707000 -0.011000 0.449000
H425 H 0.646500 -0.124700 0.344900
H426 H 0.622000 -0.135900 0.116100
H427 H 0.580600 0.104100 0.022000
H428 H -0.386900 1.043000 0.653500
H429 H -0.447400 1.162600 0.575600
H430 H -0.494100 1.253300 0.721000
H431 H -0.479800 1.223600 0.944000
H432 H -0.419400 1.104100 1.022000
H433 H -0.378000 0.864100 1.116100
H434 H -0.353500 0.875300 1.344900
H435 H -0.293000 0.989000 1.449000
H436 H -0.256800 1.092200 1.322800
H437 H -0.281200 1.081300 1.093400
H438 H 0.520200 0.223600 -0.056000
H439 H 0.505900 0.253300 -0.279000
H440 H 0.552600 0.162600 -0.424400
H441 H 0.613100 0.043000 -0.346500
H442 H 0.915600 -0.250400 -0.105900
H443 H 1.073600 -0.332100 -0.077300
H444 H -0.153600 0.838500 0.424700
H445 H -0.101800 0.911000 0.256300
H446 H -0.049300 1.033600 0.290100
H447 H -0.046400 1.090800 0.500500
H448 H -0.098100 1.018800 0.670100
H449 H 1.203400 -0.329600 -0.221000
H450 H 1.174600 -0.244000 -0.397100
H451 H 1.016400 -0.162000 -0.426400
H452 H 0.531500 -0.105100 -0.251000
H453 H 0.606000 -0.157300 -0.133100
H454 H 0.634900 -0.135300 -0.385100
H455 H 0.674900 -0.206100 -0.285000
H456 H 1.098100 -0.018800 0.329900
H457 H 1.325100 0.206100 0.285000
H458 H 1.365100 0.135300 0.385100
H459 H 1.394000 0.157300 0.133100
H460 H 1.468500 0.105100 0.251000
H461 H 1.046400 -0.090800 0.499500
H462 H 1.049300 -0.033600 0.709900
H463 H 1.101800 0.089000 0.743700
H464 H 1.153600 0.161500 0.575300
H465 H 1.281200 -0.081300 -0.093400
H466 H 1.256800 -0.092200 -0.322800
H467 H 0.983600 0.162000 0.426400
H468 H 0.825400 0.244000 0.397100
H469 H 0.796600 0.329600 0.221000
H470 H 0.926400 0.332100 0.077300
H471 H 1.084400 0.250400 0.105900
H472 H 1.293000 0.011000 -0.449000
H473 H 1.353500 0.124700 -0.344900
H474 H 1.378000 0.135900 -0.116100
H475 H 1.419400 -0.104100 -0.022000
H476 H 1.479800 -0.223600 0.056000
H477 H 1.494100 -0.253300 0.279000
H478 H 1.447400 -0.162600 0.424400
H479 H 1.386900 -0.043000 0.346500
H480 H 1.046400 0.590800 0.999500
C481 C 1.441800 -0.150900 0.333500
C482 C 1.469400 -0.204600 0.247800
C483 C 1.460900 -0.187000 0.115600
C484 C 1.425000 -0.115900 0.068900
C485 C 1.281400 -0.045800 -0.281000
C486 C 1.302800 0.015300 -0.355800
C487 C 1.338700 0.082600 -0.293900
C488 C 1.295900 -0.039300 -0.144800
C489 C 1.353300 0.089400 -0.157700
C490 C 1.397000 -0.061150 0.154300
C491 C 1.332300 0.028400 -0.081200
C492 C 0.877800 0.245500 0.337800
C493 C 0.860700 0.296100 0.234000
C494 C 1.130810 0.078100 0.436800
C495 C 1.131900 0.110300 0.560000
C496 C 1.101100 0.067200 0.659500
C497 C 1.069300 -0.007400 0.637200
C498 C 1.068200 -0.039600 0.514800
C499 C 1.098800 0.002800 0.414100
C500 C 0.937900 0.297400 0.148700
C501 C 1.032100 0.248900 0.165300
C502 C 0.971700 0.196800 0.355100
C503 C 1.050300 0.197800 0.269500
C504 C 1.393700 0.117700 0.197300
C505 C 1.098800 0.497200 0.914100
C506 C 0.994000 0.034570 -0.048700
C507 C 1.068200 0.539600 1.014800
C508 C 1.069300 0.507400 1.137200
C509 C 1.101100 0.432800 1.159500
C510 C 1.131900 0.389700 1.060000
C511 C 0.676800 -0.152400 -0.300000
C512 C 0.606300 -0.117700 -0.197300
C513 C 1.323200 0.152400 0.300000
C514 C 1.130810 0.421900 0.936800
C515 C 1.006000 -0.034570 0.048700
C516 C 0.006000 -0.034570 0.048700
C517 C 0.949700 -0.197800 -0.269500
C518 C 1.028300 -0.196800 -0.355100
C519 C 0.967900 -0.248900 -0.165300
C520 C 1.062100 -0.297400 -0.148700
C521 C 1.139300 -0.296100 -0.234000
C522 C 1.122200 -0.245500 -0.337800
C523 C 0.323200 0.152400 0.300000
C524 C 0.393700 0.117700 0.197300
C525 C 0.050300 0.197800 0.269500
C526 C -0.098800 0.997200 0.585900
C527 C -0.068200 1.039600 0.485200
C528 C 0.667700 -0.028400 0.081200
C529 C 0.603000 0.061150 -0.154300
C530 C 0.646700 -0.089400 0.157700
C531 C 0.704100 0.039300 0.144800
C532 C 0.661300 -0.082600 0.293900
C533 C 0.697200 -0.015300 0.355800
C534 C 0.718600 0.045800 0.281000
C535 C 0.575000 0.115900 -0.068900
C536 C 0.594200 0.079800 -0.287400
C537 C 0.558200 0.150900 -0.333500
C538 C 0.530600 0.204600 -0.247800
C539 C 0.539100 0.187000 -0.115600
C540 C -0.069300 1.007400 0.362800
C541 C -0.101100 0.932800 0.340500
C542 C -0.131900 0.889700 0.440000
C543 C -0.130810 0.921900 0.563200
C544 C -0.460900 1.187000 0.884400
C545 C -0.469400 1.204600 0.752200
C546 C -0.441800 1.150900 0.666500
C547 C -0.405800 1.079800 0.712600
C548 C -0.425000 1.115900 0.931100
C549 C -0.281400 1.045800 1.281000
C550 C 0.869190 -0.078100 -0.436800
C551 C 0.868100 -0.110300 -0.560000
C552 C 0.898900 -0.067200 -0.659500
C553 C 0.930700 0.007400 -0.637200
C554 C 0.931800 0.039600 -0.514800
C555 C 0.901200 -0.002800 -0.414100
C556 C -0.302800 0.984700 1.355800
C557 C -0.338700 0.917400 1.293900
C558 C -0.295900 1.039300 1.144800
C559 C -0.353300 0.910600 1.157700
C560 C -0.397000 1.061150 0.845700
C561 C -0.028300 0.196800 0.355100
C562 C 0.032100 0.248900 0.165300
C563 C -0.062100 0.297400 0.148700
C564 C -0.139300 0.296100 0.234000
C565 C 1.006000 -0.034570 1.048700
C566 C -0.122200 0.245500 0.337800
C567 C 1.323200 0.152400 1.300000
C568 C 1.393700 0.117700 1.197300
C569 C -0.332300 0.971600 1.081200
C570 C 0.122200 0.754500 0.662200
C571 C 0.139300 0.703900 0.766000
C572 C 0.062100 0.702600 0.851300
C573 C 1.050300 0.197800 1.269500
C574 C 0.971700 0.196800 1.355100
C575 C 1.032100 0.248900 1.165300
C576 C 0.937900 0.297400 1.148700
C577 C 0.860700 0.296100 1.234000
C578 C 0.877800 0.245500 1.337800
C579 C -0.032100 0.751100 0.834700
C580 C 0.028300 0.803200 0.644900
C581 C -0.050300 0.802200 0.730500
C582 C -0.393700 0.882300 0.802700
C583 C -0.323200 0.847600 0.700000
C584 C 1.332300 0.028400 0.918800
C585 C 1.397000 -0.061150 1.154300
C586 C 1.353300 0.089400 0.842300
C587 C 1.295900 -0.039300 0.855200
C588 C 1.338700 0.082600 0.706100
C589 C 1.302800 0.015300 0.644200
C590 C 1.281400 -0.045800 0.719000
C591 C 1.425000 -0.115900 1.068900
C592 C 1.405800 -0.079800 1.287400
C593 C 1.441800 -0.150900 1.333500
C594 C 1.469400 -0.204600 1.247800
C595 C 1.460900 -0.187000 1.115600
C596 C 1.460900 0.687000 0.615600
C597 C 1.469400 0.704600 0.747800
C598 C 1.441800 0.650900 0.833500
C599 C 1.405800 0.579800 0.787400
C600 C -0.006000 1.034570 0.951300
C601 C 1.425000 0.615900 0.568900
C602 C 0.098800 1.002800 1.414100
C603 C 0.068200 0.960400 1.514800
C604 C 0.069300 0.992600 1.637200
C605 C 0.101100 1.067200 1.659500
C606 C 1.130810 0.078100 1.436800
C607 C 1.131900 0.110300 1.560000
C608 C 1.101100 0.067200 1.659500
C609 C 1.069300 -0.007400 1.637200
C610 C 1.068200 -0.039600 1.514800
C611 C 1.098800 0.002800 1.414100
C612 C 0.131900 1.110300 1.560000
C613 C 0.130810 1.078100 1.436800
C614 C 0.460900 0.813000 1.115600
C615 C 0.469400 0.795400 1.247800
C616 C 0.441800 0.849100 1.333500
C617 C 1.281400 0.545800 0.219000
C618 C 0.994000 0.034570 0.951300
C619 C 1.302800 0.484700 0.144200
C620 C 1.338700 0.417400 0.206100
C621 C 1.295900 0.539300 0.355200
C622 C 1.353300 0.410600 0.342300
C623 C 0.676800 -0.152400 0.700000
C624 C 0.606300 -0.117700 0.802700
C625 C 0.405800 0.920200 1.287400
C626 C 0.425000 0.884100 1.068900
C627 C 0.281400 0.954200 0.719000
C628 C 0.302800 1.015300 0.644200
C629 C 0.949700 -0.197800 0.730500
C630 C 1.028300 -0.196800 0.644900
C631 C 0.967900 -0.248900 0.834700
C632 C 1.062100 -0.297400 0.851300
C633 C 1.139300 -0.296100 0.766000
C634 C 1.122200 -0.245500 0.662200
C635 C 0.338700 1.082600 0.706100
C636 C 0.295900 0.960700 0.855200
C637 C 0.353300 1.089400 0.842300
C638 C 0.397000 0.938850 1.154300
C639 C 0.332300 1.028400 0.918800
C640 C 0.667700 -0.028400 1.081200
C641 C 0.603000 0.061150 0.845700
C642 C 0.646700 -0.089400 1.157700
C643 C 0.704100 0.039300 1.144800
C644 C 0.661300 -0.082600 1.293900
C645 C 0.697200 -0.015300 1.355800
C646 C 0.718600 0.045800 1.281000
C647 C 0.575000 0.115900 0.931100
C648 C 0.594200 0.079800 0.712600
C649 C 0.558200 0.150900 0.666500
C650 C 0.530600 0.204600 0.752200
C651 C 0.539100 0.187000 0.884400
C652 C -0.122200 1.245500 1.337800
C653 C -0.139300 1.296100 1.234000
C654 C -0.062100 1.297400 1.148700
C655 C 0.032100 1.248900 1.165300
C656 C -0.028300 1.196800 1.355100
C657 C 0.050300 1.197800 1.269500
C658 C 0.393700 1.117700 1.197300
C659 C 0.323200 1.152400 1.300000
C660 C 1.397000 0.561150 0.654300
C661 C 0.006000 0.965430 1.048700
C662 C 0.869190 -0.078100 0.563200
C663 C 0.868100 -0.110300 0.440000
C664 C 0.898900 -0.067200 0.340500
C665 C 0.930700 0.007400 0.362800
C666 C 0.931800 0.039600 0.485200
C667 C 0.901200 -0.002800 0.585900
C668 C 1.332300 0.471600 0.418800
C669 C 0.332300 0.028400 -0.081200
C670 C 0.397000 -0.061150 0.154300
C671 C 0.353300 0.089400 -0.157700
C672 C -0.098800 0.997200 -0.414100
C673 C 0.295900 -0.039300 -0.144800
C674 C 0.338700 0.082600 -0.293900
C675 C 0.877800 0.254500 0.837800
C676 C 0.860700 0.203900 0.734000
C677 C 1.006000 0.965430 0.048700
C678 C 0.937900 0.202600 0.648700
C679 C 1.323200 1.152400 0.300000
C680 C 1.393700 1.117700 0.197300
C681 C -0.068200 1.039600 -0.514800
C682 C -0.069300 1.007400 -0.637200
C683 C -0.101100 0.932800 -0.659500
C684 C -0.131900 0.889700 -0.560000
C685 C 1.050300 1.197800 0.269500
C686 C 0.971700 1.196800 0.355100
C687 C 1.032100 1.248900 0.165300
C688 C 0.937900 1.297400 0.148700
C689 C 0.860700 1.296100 0.234000
C690 C 0.877800 1.245500 0.337800
C691 C -0.130810 0.921900 -0.436800
C692 C -0.460900 1.187000 -0.115600
C693 C -0.469400 1.204600 -0.247800
C694 C -0.441800 1.150900 -0.333500
C695 C -0.405800 1.079800 -0.287400
C696 C 1.332300 1.028400 -0.081200
C697 C 1.397000 0.938850 0.154300
C698 C 1.353300 1.089400 -0.157700
C699 C 1.295900 0.960700 -0.144800
C700 C 1.338700 1.082600 -0.293900
C701 C 1.302800 1.015300 -0.355800
C702 C 1.281400 0.954200 -0.281000
C703 C 1.425000 0.884100 0.068900
C704 C 1.405800 0.920200 0.287400
C705 C 1.441800 0.849100 0.333500
C706 C 1.469400 0.795400 0.247800
C707 C 1.460900 0.813000 0.115600
C708 C -0.425000 1.115900 -0.068900
C709 C -0.281400 1.045800 0.281000
C710 C -0.302800 0.984700 0.355800
C711 C -0.338700 0.917400 0.293900
C712 C -0.295900 1.039300 0.144800
C713 C -0.353300 0.910600 0.157700
C714 C -0.397000 1.061150 -0.154300
C715 C -0.332300 0.971600 0.081200
C716 C 0.122200 0.754500 -0.337800
C717 C 0.139300 0.703900 -0.234000
C718 C 1.130810 1.078100 0.436800
C719 C 1.131900 1.110300 0.560000
C720 C 1.101100 1.067200 0.659500
C721 C 1.069300 0.992600 0.637200
C722 C 1.068200 0.960400 0.514800
C723 C 1.098800 1.002800 0.414100
C724 C 0.062100 0.702600 -0.148700
C725 C -0.032100 0.751100 -0.165300
C726 C 0.028300 0.803200 -0.355100
C727 C -0.050300 0.802200 -0.269500
C728 C -0.393700 0.882300 -0.197300
C729 C 1.032100 0.251100 0.665300
C730 C 0.994000 1.034570 -0.048700
C731 C 0.971700 0.303200 0.855100
C732 C 1.050300 0.302200 0.769500
C733 C 0.302800 0.015300 -0.355800
C734 C 0.281400 -0.045800 -0.281000
C735 C 0.676800 0.847600 -0.300000
C736 C 0.606300 0.882300 -0.197300
C737 C -0.323200 0.847600 -0.300000
C738 C 0.425000 -0.115900 0.068900
C739 C 0.405800 -0.079800 0.287400
C740 C 1.393700 0.382300 0.697300
C741 C 0.949700 0.802200 -0.269500
C742 C 1.028300 0.803200 -0.355100
C743 C 0.967900 0.751100 -0.165300
C744 C 1.062100 0.702600 -0.148700
C745 C 1.139300 0.703900 -0.234000
C746 C 1.122200 0.754500 -0.337800
C747 C 1.323200 0.347600 0.800000
C748 C -0.006000 1.034570 -0.048700
C749 C 1.006000 0.534570 0.548700
C750 C 0.098800 1.002800 0.414100
C751 C 0.068200 0.960400 0.514800
C752 C 0.667700 0.971600 0.081200
C753 C 0.603000 1.061150 -0.154300
C754 C 0.646700 0.910600 0.157700
C755 C 0.704100 1.039300 0.144800
C756 C 0.661300 0.917400 0.293900
C757 C 0.697200 0.984700 0.355800
C758 C 0.718600 1.045800 0.281000
C759 C 0.575000 1.115900 -0.068900
C760 C 0.594200 1.079800 -0.287400
C761 C 0.558200 1.150900 -0.333500
C762 C 0.530600 1.204600 -0.247800
C763 C 0.539100 1.187000 -0.115600
C764 C 0.069300 0.992600 0.637200
C765 C 0.101100 1.067200 0.659500
C766 C 0.131900 1.110300 0.560000
C767 C 0.130810 1.078100 0.436800
C768 C 0.460900 0.813000 0.115600
C769 C 0.469400 0.795400 0.247800
C770 C 0.441800 0.849100 0.333500
C771 C 0.405800 0.920200 0.287400
C772 C 0.425000 0.884100 0.068900
C773 C 0.281400 0.954200 -0.281000
C774 C 0.869190 0.921900 -0.436800
C775 C 0.868100 0.889700 -0.560000
C776 C 0.898900 0.932800 -0.659500
C777 C 0.930700 1.007400 -0.637200
C778 C 0.931800 1.039600 -0.514800
C779 C 0.901200 0.997200 -0.414100
C780 C 0.302800 1.015300 -0.355800
C781 C 0.338700 1.082600 -0.293900
C782 C 0.295900 0.960700 -0.144800
C783 C 0.353300 1.089400 -0.157700
C784 C 0.397000 0.938850 0.154300
C785 C 0.441800 -0.150900 0.333500
C786 C 0.469400 -0.204600 0.247800
C787 C 0.460900 -0.187000 0.115600
C788 C 0.130810 0.078100 0.436800
C789 C 1.006000 0.965430 1.048700
C790 C 0.131900 0.110300 0.560000
C791 C 1.323200 1.152400 1.300000
C792 C 1.393700 1.117700 1.197300
C793 C 0.332300 1.028400 -0.081200
C794 C -0.122200 1.245500 0.337800
C795 C -0.139300 1.296100 0.234000
C796 C -0.062100 1.297400 0.148700
C797 C 1.050300 1.197800 1.269500
C798 C 0.971700 1.196800 1.355100
C799 C 1.032100 1.248900 1.165300
C800 C 0.937900 1.297400 1.148700
C801 C 0.860700 1.296100 1.234000
C802 C 0.877800 1.245500 1.337800
C803 C 0.032100 1.248900 0.165300
C804 C -0.028300 1.196800 0.355100
C805 C 0.050300 1.197800 0.269500
C806 C 0.393700 1.117700 0.197300
C807 C 0.323200 1.152400 0.300000
C808 C 1.332300 1.028400 0.918800
C809 C 1.397000 0.938850 1.154300
C810 C 1.353300 1.089400 0.842300
C811 C 1.295900 0.960700 0.855200
C812 C 1.338700 1.082600 0.706100
C813 C 1.302800 1.015300 0.644200
C814 C 1.281400 0.954200 0.719000
C815 C 1.425000 0.884100 1.068900
C816 C 1.405800 0.920200 1.287400
C817 C 1.441800 0.849100 1.333500
C818 C 1.469400 0.795400 1.247800
C819 C 1.460900 0.813000 1.115600
C820 C 0.901200 0.502800 0.085900
C821 C 0.006000 0.965430 0.048700
C822 C 0.931800 0.460400 -0.014800
C823 C 0.930700 0.492600 -0.137200
C824 C 0.898900 0.567200 -0.159500
C825 C 0.868100 0.610300 -0.060000
C826 C -0.098800 -0.002800 0.585900
C827 C -0.068200 0.039600 0.485200
C828 C -0.069300 0.007400 0.362800
C829 C -0.101100 -0.067200 0.340500
C830 C 1.130810 1.078100 1.436800
C831 C 1.131900 1.110300 1.560000
C832 C 1.101100 1.067200 1.659500
C833 C 1.069300 0.992600 1.637200
C834 C 1.068200 0.960400 1.514800
C835 C 1.098800 1.002800 1.414100
C836 C -0.131900 -0.110300 0.440000
C837 C -0.130810 -0.078100 0.563200
C838 C -0.460900 0.187000 0.884400
C839 C -0.469400 0.204600 0.752200
C840 C -0.441800 0.150900 0.666500
C841 C 0.869190 0.578100 0.063200
C842 C 0.994000 1.034570 0.951300
C843 C 0.101100 0.067200 0.659500
C844 C 0.069300 -0.007400 0.637200
C845 C 0.068200 -0.039600 0.514800
C846 C 0.098800 0.002800 0.414100
C847 C 0.676800 0.847600 0.700000
C848 C 0.606300 0.882300 0.802700
C849 C -0.405800 0.079800 0.712600
C850 C -0.425000 0.115900 0.931100
C851 C -0.281400 0.045800 1.281000
C852 C -0.302800 -0.015300 1.355800
C853 C 0.949700 0.802200 0.730500
C854 C 1.028300 0.803200 0.644900
C855 C 0.967900 0.751100 0.834700
C856 C 1.062100 0.702600 0.851300
C857 C 1.139300 0.703900 0.766000
C858 C 1.122200 0.754500 0.662200
C859 C -0.338700 -0.082600 1.293900
C860 C -0.295900 0.039300 1.144800
C861 C -0.353300 -0.089400 1.157700
C862 C -0.397000 0.061150 0.845700
C863 C -0.332300 -0.028400 1.081200
C864 C 0.667700 0.971600 1.081200
C865 C 0.603000 1.061150 0.845700
C866 C 0.646700 0.910600 1.157700
C867 C 0.704100 1.039300 1.144800
C868 C 0.661300 0.917400 1.293900
C869 C 0.697200 0.984700 1.355800
C870 C 0.718600 1.045800 1.281000
C871 C 0.575000 1.115900 0.931100
C872 C 0.594200 1.079800 0.712600
C873 C 0.558200 1.150900 0.666500
C874 C 0.530600 1.204600 0.752200
C875 C 0.539100 1.187000 0.884400
C876 C 0.122200 -0.245500 0.662200
C877 C 0.139300 -0.296100 0.766000
C878 C 0.062100 -0.297400 0.851300
C879 C -0.032100 -0.248900 0.834700
C880 C 0.028300 -0.196800 0.644900
C881 C -0.050300 -0.197800 0.730500
C882 C -0.393700 -0.117700 0.802700
C883 C -0.323200 -0.152400 0.700000
C884 C -0.006000 0.034570 -0.048700
C885 C 0.539100 0.313000 0.384400
C886 C 0.869190 0.921900 0.563200
C887 C 0.868100 0.889700 0.440000
C888 C 0.898900 0.932800 0.340500
C889 C 0.930700 1.007400 0.362800
C890 C 0.931800 1.039600 0.485200
C891 C 0.901200 0.997200 0.585900
C892 C 0.530600 0.295400 0.252200
C893 C 0.558200 0.349100 0.166500
C894 C -0.006000 0.034570 0.951300
C895 C 0.594200 0.420200 0.212600
C896 C 0.098800 0.002800 1.414100
C897 C 0.575000 0.384100 0.431100
C898 C 0.718600 0.454200 0.781000
C899 C 0.697200 0.515300 0.855800
C900 C 0.661300 0.582600 0.793900
C901 C -0.006000 0.465430 0.451300
C902 C 0.704100 0.460700 0.644800
C903 C -0.323200 0.652400 0.200000
C904 C -0.393700 0.617700 0.302700
C905 C 0.068200 -0.039600 1.514800
C906 C 0.069300 -0.007400 1.637200
C907 C 0.101100 0.067200 1.659500
C908 C 0.131900 0.110300 1.560000
C909 C -0.050300 0.697800 0.230500
C910 C 0.028300 0.696800 0.144900
C911 C -0.032100 0.748900 0.334700
C912 C 0.062100 0.797400 0.351300
C913 C 0.139300 0.796100 0.266000
C914 C 0.122200 0.745500 0.162200
C915 C 0.130810 0.078100 1.436800
C916 C 0.460900 -0.187000 1.115600
C917 C 0.469400 -0.204600 1.247800
C918 C 0.441800 -0.150900 1.333500
C919 C 0.405800 -0.079800 1.287400
C920 C -0.332300 0.528400 0.581200
C921 C -0.397000 0.438850 0.345700
C922 C -0.353300 0.589400 0.657700
C923 C -0.295900 0.460700 0.644800
C924 C -0.338700 0.582600 0.793900
C925 C -0.302800 0.515300 0.855800
C926 C -0.281400 0.454200 0.781000
C927 C -0.425000 0.384100 0.431100
C928 C -0.405800 0.420200 0.212600
C929 C -0.441800 0.349100 0.166500
C930 C -0.469400 0.295400 0.252200
C931 C -0.460900 0.313000 0.384400
C932 C 0.425000 -0.115900 1.068900
C933 C 0.281400 -0.045800 0.719000
C934 C 0.302800 0.015300 0.644200
C935 C 0.338700 0.082600 0.706100
C936 C 0.295900 -0.039300 0.855200
C937 C 0.353300 0.089400 0.842300
C938 C 0.397000 -0.061150 1.154300
C939 C 0.332300 0.028400 0.918800
C940 C -0.122200 0.245500 1.337800
C941 C -0.139300 0.296100 1.234000
C942 C -0.130810 0.578100 0.063200
C943 C -0.131900 0.610300 -0.060000
C944 C -0.101100 0.567200 -0.159500
C945 C -0.069300 0.492600 -0.137200
C946 C -0.068200 0.460400 -0.014800
C947 C -0.098800 0.502800 0.085900
C948 C -0.062100 0.297400 1.148700
C949 C 0.032100 0.248900 1.165300
C950 C -0.028300 0.196800 1.355100
C951 C 0.050300 0.197800 1.269500
C952 C 0.393700 0.117700 1.197300
C953 C 0.646700 0.589400 0.657700
C954 C 0.006000 0.534570 0.548700
C955 C 0.603000 0.438850 0.345700
C956 C 0.667700 0.528400 0.581200
C957 C -0.323200 -0.152400 -0.300000
C958 C -0.393700 -0.117700 -0.197300
C959 C 0.323200 0.347600 0.800000
C960 C 0.393700 0.382300 0.697300
C961 C 0.323200 0.152400 1.300000
C962 C -0.050300 -0.197800 -0.269500
C963 C 0.006000 -0.034570 1.048700
C964 C 0.028300 -0.196800 -0.355100
C965 C 0.050300 0.302200 0.769500
C966 C -0.028300 0.303200 0.855100
C967 C 0.032100 0.251100 0.665300
C968 C -0.062100 0.202600 0.648700
C969 C -0.139300 0.203900 0.734000
C970 C -0.122200 0.254500 0.837800
C971 C -0.032100 -0.248900 -0.165300
C972 C 1.122200 0.745500 0.162200
C973 C 1.139300 0.796100 0.266000
C974 C -0.098800 -0.002800 -0.414100
C975 C -0.068200 0.039600 -0.514800
C976 C 0.332300 0.471600 0.418800
C977 C 0.397000 0.561150 0.654300
C978 C 0.353300 0.410600 0.342300
C979 C 0.295900 0.539300 0.355200
C980 C 0.338700 0.417400 0.206100
C981 C 0.302800 0.484700 0.144200
C982 C 0.281400 0.545800 0.219000
C983 C 0.425000 0.615900 0.568900
C984 C 0.405800 0.579800 0.787400
C985 C 0.441800 0.650900 0.833500
C986 C 0.469400 0.704600 0.747800
C987 C 0.460900 0.687000 0.615600
C988 C -0.069300 0.007400 -0.637200
C989 C -0.101100 -0.067200 -0.659500
C990 C -0.131900 -0.110300 -0.560000
C991 C -0.130810 -0.078100 -0.436800
C992 C -0.460900 0.187000 -0.115600
C993 C -0.469400 0.204600 -0.247800
C994 C -0.441800 0.150900 -0.333500
C995 C -0.405800 0.079800 -0.287400
C996 C -0.425000 0.115900 -0.068900
C997 C -0.281400 0.045800 0.281000
C998 C 0.130810 0.421900 0.936800
C999 C 0.131900 0.389700 1.060000
C1000 C 0.101100 0.432800 1.159500
C1001 C 0.069300 0.507400 1.137200
C1002 C 0.068200 0.539600 1.014800
C1003 C 0.098800 0.497200 0.914100
C1004 C -0.302800 -0.015300 0.355800
C1005 C -0.338700 -0.082600 0.293900
C1006 C -0.295900 0.039300 0.144800
C1007 C -0.353300 -0.089400 0.157700
C1008 C -0.397000 0.061150 -0.154300
C1009 C 1.062100 0.797400 0.351300
C1010 C 0.967900 0.748900 0.334700
C1011 C 1.028300 0.696800 0.144900
C1012 C 0.949700 0.697800 0.230500
C1013 C 0.994000 0.465430 0.451300
C1014 C 0.062100 -0.297400 -0.148700
C1015 C 0.676800 0.652400 0.200000
C1016 C 0.606300 0.617700 0.302700
C1017 C -0.332300 -0.028400 0.081200
C1018 C 0.122200 -0.245500 -0.337800
C1019 C 0.139300 -0.296100 -0.234000
C1020 C 1.405800 -0.079800 0.287400
O1021 O 0.916240 0.455980 0.349700
O1022 O 0.083760 -0.044020 0.150300
O1023 O 0.916240 0.044020 -0.150300
O1024 O 1.061860 0.090000 -0.036980
O1025 O 0.938140 -0.090000 0.036980
O1026 O 1.083760 -0.044020 0.150300
O1027 O -0.061860 -0.090000 0.036980
O1028 O 0.083760 -0.044020 1.150300
O1029 O -0.061860 -0.090000 1.036980
O1030 O 1.083760 -0.044020 1.150300
O1031 O 0.938140 -0.090000 1.036980
O1032 O 0.061860 1.090000 0.963020
O1033 O -0.061860 0.590000 0.536980
O1034 O 0.083760 0.544020 0.650300
O1035 O 0.061860 0.410000 0.463020
O1036 O -0.083760 0.455980 0.349700
O1037 O -0.083760 1.044020 0.849700
O1038 O 0.916240 0.044020 0.849700
O1039 O 1.061860 0.090000 0.963020
O1040 O -0.083760 0.044020 0.849700
O1041 O 0.061860 0.090000 0.963020
O1042 O -0.061860 0.910000 1.036980
O1043 O 0.083760 0.955980 1.150300
O1044 O 1.083760 0.955980 0.150300
O1045 O 0.938140 0.910000 0.036980
O1046 O 0.916240 1.044020 -0.150300
O1047 O 0.061860 0.090000 -0.036980
O1048 O 1.061860 1.090000 -0.036980
O1049 O -0.083760 0.044020 -0.150300
O1050 O 0.061860 1.090000 -0.036980
O1051 O 1.061860 0.410000 0.463020
O1052 O 0.938140 0.590000 0.536980
O1053 O 1.061860 1.090000 0.963020
O1054 O 0.916240 1.044020 0.849700
O1055 O -0.083760 1.044020 -0.150300
O1056 O 1.083760 0.544020 0.650300
O1057 O 1.083760 0.955980 1.150300
O1058 O 0.083760 0.955980 0.150300
O1059 O -0.061860 0.910000 0.036980
O1060 O 0.938140 0.910000 1.036980
P1061 P 0.349250 1.032780 0.098100
P1062 P 1.349250 1.032780 1.098100
P1063 P 1.170210 1.131460 1.301270
P1064 P 0.170210 0.131460 0.301270
P1065 P 0.170210 1.131460 0.301270
P1066 P 0.349250 0.032780 0.098100
P1067 P 0.650750 0.532780 0.401900
P1068 P 0.829790 0.631460 0.198730
P1069 P 1.170210 0.368540 0.801270
P1070 P 0.829790 0.868540 0.698730
P1071 P 0.650750 0.967220 0.901900
P1072 P 0.829790 -0.131460 -0.301270
P1073 P -0.170210 0.868540 -0.301270
P1074 P -0.349250 0.967220 -0.098100
P1075 P 0.650750 0.967220 -0.098100
P1076 P 0.829790 0.868540 -0.301270
P1077 P 0.650750 -0.032780 -0.098100
P1078 P -0.349250 -0.032780 0.901900
P1079 P 0.170210 0.131460 1.301270
P1080 P -0.170210 -0.131460 -0.301270
P1081 P -0.349250 -0.032780 -0.098100
P1082 P 1.349250 1.032780 0.098100
P1083 P 1.170210 1.131460 0.301270
P1084 P 0.349250 0.032780 1.098100
P1085 P 1.349250 0.032780 0.098100
P1086 P 0.170210 1.131460 1.301270
P1087 P 0.349250 1.032780 1.098100
P1088 P -0.170210 -0.131460 0.698730
P1089 P 1.170210 0.131460 0.301270
P1090 P 0.650750 -0.032780 0.901900
P1091 P 0.829790 -0.131460 0.698730
P1092 P 1.170210 0.131460 1.301270
P1093 P 1.349250 0.032780 1.098100
P1094 P -0.170210 0.631460 0.198730
P1095 P -0.349250 0.532780 0.401900
P1096 P 0.349250 0.467220 0.598100
P1097 P 0.170210 0.368540 0.801270
P1098 P -0.170210 0.868540 0.698730
P1099 P -0.349250 0.967220 0.901900
P1100 P 1.349250 0.467220 0.598100
Cu1101 Cu 0.174720 0.444350 0.635280
Cu1102 Cu -0.174720 0.555650 0.364720
Cu1103 Cu 0.825280 -0.055650 0.864720
Cu1104 Cu 1.174720 0.055650 1.135280
Cu1105 Cu 1.174720 0.055650 0.135280
Cu1106 Cu -0.174720 -0.055650 0.864720
Cu1107 Cu 0.174720 1.055650 1.135280
Cu1108 Cu 1.174720 1.055650 0.135280
Cu1109 Cu -0.174720 -0.055650 -0.135280
Cu1110 Cu 0.174720 0.055650 1.135280
Cu1111 Cu 0.825280 0.944350 -0.135280
Cu1112 Cu -0.174720 0.944350 -0.135280
Cu1113 Cu 0.825280 -0.055650 -0.135280
Cu1114 Cu 0.825280 0.555650 0.364720
Cu1115 Cu 1.174720 0.444350 0.635280
Cu1116 Cu 0.825280 0.944350 0.864720
Cu1117 Cu 0.174720 1.055650 0.135280
Cu1118 Cu 1.174720 1.055650 1.135280
Cu1119 Cu -0.174720 0.944350 0.864720
Cu1120 Cu 0.174720 0.055650 0.135280

#END
