
#######################################################################
#
#                 Cambridge Crystallographic Data Centre
#                                CCDC 
#
#######################################################################
#
# If this CIF has been generated from an entry in the Cambridge 
# Structural Database, then it will include bibliographic, chemical, 
# crystal, experimental, refinement or atomic coordinate data resulting 
# from the CCDC's data processing and validation procedures.
#
#######################################################################

data_ABAHUI
_symmetry_cell_setting           triclinic
_symmetry_space_group_name_H-M   'P -1'
_symmetry_Int_Tables_number      2
_space_group_name_Hall           '-P 1'
loop_
_symmetry_equiv_pos_site_id
_symmetry_equiv_pos_as_xyz
1 x,y,z
2 -x,-y,-z
_cell_length_a                   5.7796(4)
_cell_length_b                   7.4691(5)
_cell_length_c                   16.9842(11)
_cell_angle_alpha                77.956(2)
_cell_angle_beta                 89.394(2)
_cell_angle_gamma                72.547(2)
_cell_volume                     682.968
loop_
_atom_site_label
_atom_site_type_symbol
_atom_site_fract_x
_atom_site_fract_y
_atom_site_fract_z
O1 O 0.1556(2) 0.3160(2) 0.33318(7)
O2 O 1.1429(2) -0.1952(2) 0.34750(7)
O3 O 0.2371(2) 0.53420(17) 0.05938(7)
O4 O -0.1755(2) 0.5181(2) 0.26261(8)
N1 N 0.5632(2) 0.27108(17) 0.15513(8)
N2 N 0.4082(2) 0.29646(16) 0.21110(7)
C1 C 0.8606(3) 0.0293(2) 0.25233(9)
H1 H 0.7505 0.0426 0.2927
C2 C 1.0931(3) -0.0981(2) 0.26917(9)
C3 C 1.2578(3) -0.1225(2) 0.20927(10)
H2 H 1.4129 -0.2093 0.2208
C4 C 1.1857(3) -0.0148(2) 0.13213(9)
H3 H 1.2943 -0.0305 0.0915
C5 C 0.9560(3) 0.1162(2) 0.11373(9)
H4 H 0.9107 0.1890 0.0617
C6 C 0.7950(2) 0.13607(19) 0.17489(8)
C7 C 0.1888(2) 0.41968(19) 0.19492(8)
C8 C 0.0353(3) 0.4262(2) 0.26510(9)
C9 C 0.0175(4) 0.3139(4) 0.40468(11)
H5 H -0.1166 0.2641 0.3986
H6 H -0.0475 0.4429 0.4141
C10 C 0.1857(5) 0.1891(5) 0.47226(13)
H7 H 0.0990 0.1788 0.5207
H8 H 0.3132 0.2433 0.4792
H9 H 0.2545 0.0638 0.4609
C11 C 0.0984(3) 0.5402(2) 0.11476(9)
C12 C -0.1580(3) 0.6703(2) 0.09875(10)
H10 H -0.1847 0.7315 0.0426
H11 H -0.1853 0.7663 0.1305
H12 H -0.2683 0.5963 0.1129
C13 C 1.3843(3) -0.3131(4) 0.37051(12)
H13 H 1.3949 -0.3739 0.4266
H14 H 1.4920 -0.2357 0.3616
H15 H 1.4297 -0.4096 0.3389
H16 H 0.517(3) 0.341(3) 0.1067(12)
O1 O 0.8444(2) 0.6840(2) 0.66682(7)
O2 O -0.1429(2) 1.1952(2) 0.65250(7)
O3 O 0.7629(2) 0.46580(17) 0.94062(7)
O4 O 1.1755(2) 0.4819(2) 0.73739(8)
N1 N 0.4368(2) 0.72892(17) 0.84487(8)
N2 N 0.5918(2) 0.70354(16) 0.78890(7)
C1 C 0.1394(3) 0.9707(2) 0.74767(9)
H1 H 0.2495 0.9574 0.7073
C2 C -0.0931(3) 1.0981(2) 0.73083(9)
C3 C -0.2578(3) 1.1225(2) 0.79073(10)
H2 H -0.4129 1.2093 0.7792
C4 C -0.1857(3) 1.0148(2) 0.86787(9)
H3 H -0.2943 1.0305 0.9085
C5 C 0.0440(3) 0.8838(2) 0.88627(9)
H4 H 0.0893 0.8110 0.9383
C6 C 0.2050(2) 0.86393(19) 0.82511(8)
C7 C 0.8112(2) 0.58032(19) 0.80508(8)
C8 C 0.9647(3) 0.5738(2) 0.73490(9)
C9 C 0.9825(4) 0.6861(4) 0.59532(11)
H5 H 1.1166 0.7359 0.6014
H6 H 1.0475 0.5571 0.5859
C10 C 0.8143(5) 0.8109(5) 0.52774(13)
H7 H 0.9010 0.8212 0.4793
H8 H 0.6868 0.7567 0.5208
H9 H 0.7455 0.9362 0.5391
C11 C 0.9016(3) 0.4598(2) 0.88524(9)
C12 C 1.1580(3) 0.3297(2) 0.90125(10)
H10 H 1.1847 0.2685 0.9574
H11 H 1.1853 0.2337 0.8695
H12 H 1.2683 0.4037 0.8871
C13 C -0.3843(3) 1.3131(4) 0.62949(12)
H13 H -0.3949 1.3739 0.5734
H14 H -0.4920 1.2357 0.6384
H15 H -0.4297 1.4096 0.6611
H16 H 0.483(3) 0.659(3) 0.8933(12)

#END
