./ABAJEV_from_POSCAR.cif_generated_by_CrystalShift
_symmetry_cell_setting triclinic
_symmetry_space_group_name_H-M 'P 1'
loop_
_symmetry_equiv_pos_site_id
_symmetry_equiv_pos_as_xyz
1 x,y,z
_cell_length_a 15.524000
_cell_length_b 8.811300
_cell_length_c 15.794000
_cell_angle_alpha 90.000000
_cell_angle_beta 109.072000
_cell_angle_gamma 90.000000
_cell_volume 2041.820315
loop_
_atom_site_label
_atom_site_type_symbol
_atom_site_fract_x
_atom_site_fract_y
_atom_site_fract_z
H1 H 0.117900 0.928900 0.450200
H2 H 0.021800 0.882600 0.454300
H3 H 0.059200 0.504700 0.423600
H4 H -0.016900 0.635800 0.406400
H5 H 0.240100 0.728200 0.479800
H6 H 0.226600 0.687400 0.571300
H7 H 0.198200 0.436100 0.603800
H8 H 0.361800 1.256400 0.755100
H9 H 0.212500 0.183400 0.586200
H10 H 0.345800 0.873100 0.720400
H11 H 0.299900 1.007700 0.730300
H12 H 0.254700 0.098200 0.464700
H13 H 0.481300 1.410300 0.762200
H14 H 0.277700 0.267500 0.366500
H15 H 0.608800 1.312500 0.732900
H16 H 0.271300 0.517000 0.320500
H17 H 0.613400 1.060800 0.704300
H18 H 0.243200 0.652100 0.364100
H19 H 0.472100 0.784800 0.731200
H20 H 0.566200 0.817000 0.718200
H21 H 0.382100 0.428900 0.049800
H22 H 0.394300 0.391000 -0.042600
H23 H 0.401900 0.866900 0.477200
H24 H 0.423200 1.001200 0.550300
H25 H 0.478200 0.382600 0.045700
H26 H 0.443100 0.613100 0.521300
H27 H 0.437800 0.578000 0.616700
H28 H 0.532600 0.604400 0.604000
H29 H 0.440800 0.004700 0.076400
H30 H 0.516900 0.135800 0.093600
H31 H 0.259900 0.228200 0.020200
H32 H 0.138200 0.756400 0.744900
H33 H 0.273400 0.187400 -0.071300
H34 H 0.154200 0.373100 0.779600
H35 H 0.200100 0.507700 0.769700
H36 H 0.301800 -0.063900 -0.103800
H37 H 0.018700 0.910300 0.737800
H38 H 0.287500 -0.316600 -0.086200
H39 H -0.108800 0.812500 0.767100
H40 H 0.245300 -0.401800 0.035300
H41 H -0.113400 0.560800 0.795700
H42 H 0.222300 -0.232500 0.133500
H43 H 0.027900 0.284800 0.768800
H44 H -0.066200 0.317000 0.781800
H45 H 0.228700 0.017000 0.179500
H46 H 0.256800 0.152100 0.135900
H47 H 0.098100 0.366900 1.022800
H48 H 0.076800 0.501200 0.949700
H49 H 0.882100 0.071100 0.549800
H50 H 0.056900 0.113100 0.978700
H51 H 0.062200 0.078000 0.883300
H52 H -0.032600 0.104400 0.896000
H53 H 0.894300 0.109000 0.457400
H54 H 0.978200 0.117400 0.545700
H55 H 0.940800 0.495300 0.576400
H56 H 0.638200 -0.256400 0.244900
H57 H 1.016900 0.364200 0.593600
H58 H 0.654200 0.126900 0.279600
H59 H 0.700100 -0.007700 0.269700
H60 H 0.759900 0.271800 0.520200
H61 H 0.518700 -0.410300 0.237800
H62 H 0.773400 0.312600 0.428700
H63 H 0.391200 -0.312500 0.267100
H64 H 0.801800 0.563900 0.396200
H65 H 0.386600 -0.060800 0.295700
H66 H 0.787500 0.816600 0.413800
H67 H 0.527900 0.215200 0.268800
H68 H 0.433800 0.183000 0.281800
H69 H 0.745300 0.901800 0.535300
H70 H 0.722300 0.732500 0.633500
H71 H 0.598100 0.133100 0.522800
H72 H 0.576800 -0.001200 0.449700
H73 H 0.728700 0.483000 0.679500
H74 H 0.556900 0.386900 0.478700
H75 H 0.562200 0.422000 0.383300
H76 H 0.467400 0.395600 0.396000
H77 H 0.756800 0.347900 0.635900
H78 H 0.617900 0.571100 0.950200
H79 H 0.605700 0.609000 1.042600
H80 H 0.861800 0.243600 0.255100
H81 H 0.521800 0.617400 0.954300
H82 H 0.845800 0.626900 0.220400
H83 H 0.799900 0.492300 0.230300
H84 H 0.559200 0.995300 0.923600
H85 H 0.981300 0.089700 0.262200
H86 H 0.483100 0.864200 0.906400
H87 H 1.108800 0.187500 0.232900
H88 H 0.740100 0.771800 0.979800
H89 H 1.113400 0.439200 0.204300
H90 H 0.726600 0.812600 1.071300
H91 H 0.972100 0.715200 0.231200
H92 H 1.066200 0.683000 0.218200
H93 H 0.698200 1.063900 1.103800
H94 H 0.712500 1.316600 1.086200
H95 H 0.901900 0.633100 -0.022800
H96 H 0.923200 0.498800 0.050300
H97 H 0.754700 1.401800 0.964700
H98 H 0.943100 0.886900 0.021300
H99 H 0.937800 0.922000 0.116700
H100 H 1.032600 0.895600 0.104000
H101 H 0.777700 1.232500 0.866500
H102 H 0.771300 0.983000 0.820500
H103 H 0.743200 0.847900 0.864100
H104 H 0.105700 0.891000 0.542600
C105 C 0.086280 0.865900 0.480040
C106 C 0.748090 1.042330 0.923660
C107 C 0.043650 0.605200 0.429180
C108 C 0.107030 0.703700 0.469130
C109 C 0.416620 1.061120 0.727770
C110 C 0.760250 1.198100 0.914180
C111 C 0.205870 0.664720 0.507670
C112 C 0.747230 1.298600 0.972620
C113 C 0.969650 0.866000 0.084100
C114 C 0.722430 1.248200 1.045470
C115 C 0.925650 0.600900 0.036360
C116 C 0.713350 1.098800 1.054930
C117 C 0.962630 0.699600 0.100200
C118 C 0.705870 0.835280 1.007670
C119 C 1.002060 0.656350 0.197020
C120 C 1.062740 0.399600 0.215530
C121 C 0.607030 0.796300 0.969130
C122 C 0.543650 0.894800 0.929180
C123 C 1.060480 0.250500 0.232300
C124 C 0.983690 0.192100 0.248840
C125 C 0.586280 0.634100 0.980040
C126 C 0.413230 1.216180 0.745490
C127 C 0.913230 0.283820 0.245490
C128 C 0.916620 0.438880 0.227770
C129 C 0.213350 0.401200 0.554930
C130 C 0.751910 0.542330 0.576340
C131 C 0.222430 0.251800 0.545470
C132 C 0.483690 1.307900 0.748840
C133 C 0.530350 0.366000 0.415900
C134 C 0.739750 0.698100 0.585820
C135 C 0.574350 0.100900 0.463640
C136 C 0.752770 0.798600 0.527380
C137 C 0.537370 0.199600 0.399800
C138 C 0.777570 0.748200 0.454530
C139 C 0.497940 0.156350 0.302980
C140 C 0.786650 0.598800 0.445070
C141 C 0.437260 -0.100400 0.284470
C142 C 0.794130 0.335280 0.492330
C143 C 0.439520 -0.249500 0.267700
C144 C 0.516310 -0.307900 0.251160
C145 C 0.892970 0.296300 0.530870
C146 C 0.956350 0.394800 0.570820
C147 C 0.247230 0.201400 0.472620
C148 C 0.586770 -0.216180 0.254510
C149 C 0.913720 0.134100 0.519960
C150 C 0.583380 -0.061120 0.272230
C151 C 0.560480 1.249500 0.732300
C152 C 0.030350 0.134000 0.915900
C153 C 0.260250 0.301900 0.414180
C154 C 0.251910 -0.042330 0.076340
C155 C 0.562740 1.100400 0.715530
C156 C 0.074350 0.399100 0.963640
C157 C 0.037370 0.300400 0.899800
C158 C 0.239750 -0.198100 0.085820
C159 C -0.002060 0.343650 0.802980
C160 C 0.252770 -0.298600 0.027380
C161 C -0.062740 0.600400 0.784470
C162 C 0.277570 -0.248200 -0.045470
C163 C -0.060480 0.749500 0.767700
C164 C 0.286650 -0.098800 -0.054930
C165 C 0.016310 0.807900 0.751160
C166 C 0.294130 0.164720 -0.007670
C167 C 0.502060 0.843650 0.697020
C168 C 0.086770 0.716180 0.754510
C169 C 0.392970 0.203700 0.030870
C170 C 0.456350 0.105200 0.070820
C171 C 0.083380 0.561120 0.772230
C172 C 0.248090 0.457670 0.423660
C173 C 0.413720 0.365900 0.019960
C174 C 0.469650 0.634000 0.584100
C175 C 0.425650 0.899100 0.536360
C176 C 0.462630 0.800400 0.600200
N177 N 0.225530 0.504610 0.495110
N178 N 0.007050 0.505060 0.785510
N179 N 0.258160 0.556340 0.364170
N180 N 0.152230 0.469670 0.776140
N181 N 0.241840 0.056340 0.135830
N182 N 0.274470 0.004610 0.004890
N183 N 0.507050 -0.005060 0.285510
N184 N 0.652230 0.030330 0.276140
N185 N 0.992950 0.494940 0.214490
N186 N 0.741840 0.443660 0.635830
N187 N 0.347770 0.969670 0.723860
N188 N 0.774470 0.495390 0.504890
N189 N 0.847770 0.530330 0.223860
N190 N 0.725530 0.995390 0.995110
N191 N 0.758160 0.943660 0.864170
N192 N 0.492950 1.005060 0.714490
Cl193 Cl 0.170800 0.115600 0.747530
Cl194 Cl 0.212980 0.901240 0.307250
Cl195 Cl 0.287020 0.401240 0.192750
Cl196 Cl 0.329200 0.615600 0.752470
Cl197 Cl 0.787020 0.098760 0.692750
Cl198 Cl 0.829200 0.884400 0.252470
Cl199 Cl 0.670800 0.384400 0.247530
Cl200 Cl 0.712980 0.598760 0.807250

#END
