./ABANUO_from_POSCAR.cif_generated_by_CrystalShift
_symmetry_cell_setting triclinic
_symmetry_space_group_name_H-M 'P 1'
loop_
_symmetry_equiv_pos_site_id
_symmetry_equiv_pos_as_xyz
1 x,y,z
_cell_length_a 5.535400
_cell_length_b 8.003900
_cell_length_c 35.820700
_cell_angle_alpha 90.000000
_cell_angle_beta 90.000000
_cell_angle_gamma 90.000000
_cell_volume 1587.028522
loop_
_atom_site_label
_atom_site_type_symbol
_atom_site_fract_x
_atom_site_fract_y
_atom_site_fract_z
H1 H 0.411200 0.278300 0.741800
H2 H 0.281200 0.282200 0.680100
H3 H -0.002000 0.000000 0.047700
H4 H 0.504800 0.423800 0.634500
H5 H 0.137300 -0.230200 0.077100
H6 H 0.103400 -0.115100 0.113300
H7 H 0.863200 0.557700 0.651600
H8 H 0.540300 -0.146900 0.070900
H9 H 0.501700 -0.212000 0.112800
H10 H 0.993400 0.555100 0.713200
H11 H 0.721300 0.048100 0.110000
H12 H 0.662800 0.282800 0.858200
H13 H 0.532500 0.274300 0.796500
H14 H 1.103500 0.559000 0.766200
H15 H 0.021100 0.273900 0.024100
H16 H 1.229500 0.568200 0.827700
H17 H 1.238100 0.157900 0.909000
H18 H 0.609200 0.553400 0.050600
H19 H 1.109200 -0.053400 0.949400
H20 H 0.738100 0.342100 0.091000
H21 H 0.521100 0.226100 0.975900
H22 H 1.221300 0.451900 0.890000
H23 H 0.729500 -0.068200 0.172300
H24 H 1.001700 0.712000 0.887200
H25 H 0.603500 -0.059000 0.233800
H26 H 1.040300 0.646900 0.929100
H27 H 0.603400 0.615100 0.886700
H28 H 0.032500 0.225700 0.203500
H29 H 0.637300 0.730200 0.922900
H30 H 0.162800 0.217200 0.141800
H31 H 0.498000 0.500000 0.952300
H32 H 1.088800 0.721700 0.241800
H33 H 0.493400 -0.055100 0.286800
H34 H 1.218800 0.717800 0.180100
H35 H 0.363200 -0.057700 0.348400
H36 H 0.995200 0.576200 0.134500
H37 H 0.004800 0.076200 0.365500
H38 H 0.636800 0.442300 0.151600
H39 H -0.218800 0.217800 0.319900
H40 H 0.506600 0.444900 0.213200
H41 H -0.088800 0.221700 0.258200
H42 H 0.837200 0.717200 0.358200
H43 H 0.967500 0.725700 0.296500
H44 H 0.502000 1.000000 0.547700
H45 H 0.396500 0.441000 0.266200
H46 H 0.362700 1.230200 0.577100
H47 H 0.396600 1.115100 0.613300
H48 H 0.270500 0.431800 0.327700
H49 H -0.040300 1.146900 0.570900
H50 H -0.001700 1.212000 0.612800
H51 H 0.261900 0.842100 0.409000
H52 H -0.221300 0.951900 0.610000
H53 H 0.390800 1.053400 0.449400
H54 H 0.978900 0.773900 0.475900
H55 H 0.278700 0.548100 0.390000
H56 H 0.478900 0.726100 0.524100
H57 H 0.498300 0.288000 0.387200
H58 H 0.459700 0.353100 0.429100
H59 H -0.109200 0.446600 0.550600
H60 H 0.896600 0.384900 0.386700
H61 H -0.238100 0.657900 0.591000
H62 H 0.862700 0.269800 0.422900
H63 H 1.002000 0.500000 0.452300
H64 H -0.229500 1.068200 0.672300
H65 H 0.588800 0.778300 0.758200
H66 H -0.103500 1.059000 0.733800
H67 H 0.718800 0.782200 0.819900
H68 H 0.495200 0.923800 0.865500
H69 H 0.467500 0.774300 0.703500
H70 H 0.136800 1.057700 0.848400
H71 H 0.337200 0.782800 0.641800
H72 H 0.006600 1.055100 0.786800
C73 C 0.152300 0.999390 0.793220
C74 C 0.284000 0.917300 0.765360
C75 C 0.229900 1.001200 0.830050
C76 C 0.248200 0.840980 0.660410
C77 C 0.441500 0.921540 0.840300
C78 C 0.325700 0.835400 0.697430
C79 C 0.573900 0.838200 0.813200
C80 C 0.199400 0.917710 0.725760
C81 C 0.495900 0.836180 0.776350
C82 C -0.010800 1.003500 0.715250
C83 C 0.426100 0.338200 0.686800
C84 C 0.186200 -0.123560 0.088830
C85 C -0.086100 1.009060 0.678460
C86 C 0.813800 0.376440 0.411170
C87 C 0.043600 0.929870 0.650170
C88 C -0.090600 0.671310 0.577810
C89 C 0.542500 0.376810 0.405170
C90 C -0.016000 0.545120 0.553930
C91 C 0.200000 0.568490 0.535070
C92 C 0.459400 0.547650 0.390100
C93 C 0.334600 0.712860 0.538140
C94 C 0.542700 0.682880 0.416850
C95 C 0.755800 0.659630 0.437710
C96 C 0.834600 0.787140 0.461860
C97 C 0.255800 0.840370 0.562290
C98 C 0.700000 0.931510 0.464930
C99 C 0.484000 0.954880 0.446070
C100 C 0.042700 0.817120 0.583150
C101 C 0.409400 0.828690 0.422190
C102 C -0.040600 0.952350 0.609900
C103 C 0.543600 0.570130 0.349830
C104 C 0.413900 0.490940 0.321540
C105 C 0.042500 1.123190 0.594830
C106 C 0.489200 0.496500 0.284750
C107 C 0.313800 1.123560 0.588830
C108 C 0.699400 0.582290 0.274240
C109 C 0.825700 0.664600 0.302570
C110 C 0.558500 0.421540 0.659700
C111 C 0.748200 0.659020 0.339590
C112 C 0.457500 -0.123190 0.094830
C113 C 0.784000 0.582700 0.234640
C114 C 0.652300 0.500610 0.206780
C115 C 0.004100 0.163820 0.276350
C116 C 0.729900 0.498800 0.169950
C117 C -0.073900 0.161800 0.313200
C118 C 0.941500 0.578460 0.159700
C119 C 0.058500 0.078460 0.340300
C120 C 1.073900 0.661800 0.186800
C121 C 0.270100 -0.001200 0.330050
C122 C 0.995900 0.663820 0.223650
C123 C 0.347700 0.000610 0.293220
C124 C 0.770100 0.501200 0.669950
C125 C 0.540600 0.047650 0.109900
C126 C 0.216000 0.082700 0.265360
C127 C 0.686200 0.623560 0.911170
C128 C 0.251800 0.159020 0.160410
C129 C 0.174300 0.164600 0.197430
C130 C 0.957500 0.623190 0.905170
C131 C 0.300600 0.082290 0.225760
C132 C 0.510800 -0.003500 0.215250
C133 C 1.040600 0.452350 0.890100
C134 C 0.586100 -0.009060 0.178460
C135 C 0.957300 0.317120 0.916850
C136 C 0.744200 0.340370 0.937710
C137 C 0.665400 0.212860 0.961860
C138 C 0.456400 0.070130 0.150170
C139 C 0.800000 0.068490 0.964930
C140 C 1.016000 0.045120 0.946070
C141 C 0.590600 0.328690 0.077810
C142 C 1.090600 0.171310 0.922190
C143 C 0.516000 0.454880 0.053930
C144 C 0.956400 0.429870 0.849830
C145 C 1.086100 0.509060 0.821540
C146 C 0.300000 0.431510 0.035070
C147 C 1.010800 0.503500 0.784750
C148 C 0.165400 0.287140 0.038140
C149 C 0.800600 0.417710 0.774240
C150 C 0.674300 0.335400 0.802570
C151 C 0.244200 0.159630 0.062290
C152 C 0.751800 0.340980 0.839590
C153 C 0.457300 0.182880 0.083150
C154 C 0.716000 0.417300 0.734640
C155 C 0.847700 0.499390 0.706780
C156 C 0.504100 0.336180 0.723650
N157 N 0.112200 0.015040 0.065170
N158 N 0.387800 0.984960 0.565170
N159 N 0.887800 0.515040 0.434830
N160 N 0.612200 0.484960 0.934830
Cl161 Cl 0.807900 1.090510 0.494232
Cl162 Cl 0.307900 0.409490 0.505768
Cl163 Cl 0.692100 -0.090510 0.994232
Cl164 Cl 0.192100 0.590510 0.005768

#END
