./ABEDIU01_from_POSCAR.cif_generated_by_CrystalShift
_symmetry_cell_setting triclinic
_symmetry_space_group_name_H-M 'P 1'
loop_
_symmetry_equiv_pos_site_id
_symmetry_equiv_pos_as_xyz
1 x,y,z
_cell_length_a 4.717700
_cell_length_b 16.964300
_cell_length_c 19.449400
_cell_angle_alpha 71.100000
_cell_angle_beta 88.345000
_cell_angle_gamma 89.735000
_cell_volume 1472.028298
loop_
_atom_site_label
_atom_site_type_symbol
_atom_site_fract_x
_atom_site_fract_y
_atom_site_fract_z
H1 H 1.462000 0.623800 1.038100
H2 H 2.241500 0.371400 1.185800
H3 H 2.013100 0.374600 1.122600
H4 H 2.184200 0.503500 1.167500
H5 H 1.990000 0.574200 1.043000
H6 H 1.738000 0.504400 1.060800
H7 H 1.457000 0.624700 1.218100
H8 H 0.153000 0.979900 1.131400
H9 H 0.346000 0.940400 1.198800
H10 H 0.354000 -0.076300 0.697700
H11 H 0.157000 -0.071800 0.630000
H12 H 0.580000 1.284600 1.110600
H13 H 0.065000 -0.207900 0.666800
H14 H 0.249000 -0.227300 0.736600
H15 H 0.638000 1.201000 1.088200
H16 H 0.241000 -0.348800 0.702300
H17 H 0.234000 1.213000 1.188000
H18 H 0.664000 -0.261600 0.601000
H19 H 0.578000 -0.366000 0.620400
H20 H 0.237000 1.067600 1.226600
H21 H 0.052000 1.096600 1.155600
H22 H 0.420000 0.715400 0.889400
H23 H 1.486000 0.215800 0.708700
H24 H 0.362000 0.799000 0.911800
H25 H 0.766000 0.787000 0.812000
H26 H 1.711000 0.285400 0.528900
H27 H 1.460000 0.352300 0.525300
H28 H 0.763000 0.932400 0.773400
H29 H 1.728000 0.457800 0.553900
H30 H 1.981000 0.406000 0.533100
H31 H 0.948000 0.903400 0.844400
H32 H 2.247000 0.386000 0.651000
H33 H 0.847000 1.020100 0.868600
H34 H 1.952800 0.536600 0.624300
H35 H 2.212700 0.495400 0.678900
H36 H 0.654000 1.059600 0.801200
H37 H -1.241500 1.628600 0.814200
H38 H -1.013100 1.625400 0.877400
H39 H -1.184200 1.496500 0.832500
H40 H -0.990000 1.425800 0.957000
H41 H -0.738000 1.495600 0.939200
H42 H -0.462000 1.376200 0.961900
H43 H -0.711000 1.308600 0.961000
H44 H 0.935000 0.207900 0.333200
H45 H 0.751000 0.227300 0.263400
H46 H -0.457000 1.375300 0.781900
H47 H 0.759000 0.348800 0.297700
H48 H 1.462000 0.623800 0.038100
H49 H 0.336000 0.261600 0.399000
H50 H 0.422000 0.366000 0.379600
H51 H 0.646000 0.076300 0.302300
H52 H 0.843000 0.071800 0.370000
H53 H 1.711000 0.691400 0.039000
H54 H 2.241500 0.371400 0.185800
H55 H 2.013100 0.374600 0.122600
H56 H -0.486000 -0.215800 0.291300
H57 H 2.184200 0.503500 0.167500
H58 H 1.990000 0.574200 0.043000
H59 H 1.738000 0.504400 0.060800
H60 H 1.457000 0.624700 0.218100
H61 H 0.153000 0.979900 0.131400
H62 H -0.728000 -0.457800 0.446100
H63 H -0.981000 -0.406000 0.466900
H64 H 0.346000 0.940400 0.198800
H65 H -1.247000 -0.386000 0.349000
H66 H 0.580000 1.284600 0.110600
H67 H -0.952800 -0.536600 0.375700
H68 H -1.212700 -0.495400 0.321100
H69 H -0.711000 -0.285400 0.471100
H70 H -0.460000 -0.352300 0.474700
H71 H 0.638000 1.201000 0.088200
H72 H 0.234000 1.213000 0.188000
H73 H 0.237000 1.067600 0.226600
H74 H 0.052000 1.096600 0.155600
H75 H 0.420000 0.715400 -0.110600
H76 H 0.362000 0.799000 -0.088200
H77 H 0.766000 0.787000 -0.188000
H78 H 0.763000 0.932400 -0.226600
H79 H 0.948000 0.903400 -0.155600
H80 H 0.354000 0.923700 0.697700
H81 H 0.157000 0.928200 0.630000
H82 H 0.847000 1.020100 -0.131400
H83 H 0.065000 0.792100 0.666800
H84 H 0.249000 0.772700 0.736600
H85 H 0.654000 1.059600 -0.198800
H86 H 0.241000 0.651200 0.702300
H87 H -1.241500 1.628600 -0.185800
H88 H 0.664000 0.738400 0.601000
H89 H 0.578000 0.634000 0.620400
H90 H -1.013100 1.625400 -0.122600
H91 H -1.184200 1.496500 -0.167500
H92 H -0.990000 1.425800 -0.043000
H93 H 1.486000 1.215800 0.708700
H94 H -0.738000 1.495600 -0.060800
H95 H -0.462000 1.376200 -0.038100
H96 H 1.711000 1.285400 0.528900
H97 H 1.460000 1.352300 0.525300
H98 H -0.711000 1.308600 -0.039000
H99 H 1.728000 1.457800 0.553900
H100 H 1.981000 1.406000 0.533100
H101 H -0.457000 1.375300 -0.218100
H102 H 2.247000 1.386000 0.651000
H103 H 1.462000 -0.376200 1.038100
H104 H 1.952800 1.536600 0.624300
H105 H 2.212700 1.495400 0.678900
H106 H 1.711000 -0.308600 1.039000
H107 H 2.241500 -0.628600 1.185800
H108 H 2.013100 -0.625400 1.122600
H109 H 2.184200 -0.496500 1.167500
H110 H 1.990000 -0.425800 1.043000
H111 H 1.738000 -0.495600 1.060800
H112 H 1.457000 -0.375300 1.218100
H113 H 0.153000 -0.020100 1.131400
H114 H 0.935000 1.207900 0.333200
H115 H 0.751000 1.227300 0.263400
H116 H 0.346000 -0.059600 1.198800
H117 H 0.759000 1.348800 0.297700
H118 H 0.580000 0.284600 1.110600
H119 H 0.336000 1.261600 0.399000
H120 H 0.422000 1.366000 0.379600
H121 H 0.646000 1.076300 0.302300
H122 H 0.843000 1.071800 0.370000
H123 H 0.638000 0.201000 1.088200
H124 H 0.234000 0.213000 1.188000
H125 H 0.237000 0.067600 1.226600
H126 H -0.486000 0.784200 0.291300
H127 H 0.052000 0.096600 1.155600
H128 H 0.420000 -0.284600 0.889400
H129 H 0.362000 -0.201000 0.911800
H130 H 0.766000 -0.213000 0.812000
H131 H 0.763000 -0.067600 0.773400
H132 H -0.728000 0.542200 0.446100
H133 H -0.981000 0.594000 0.466900
H134 H 0.948000 -0.096600 0.844400
H135 H -1.247000 0.614000 0.349000
H136 H 0.847000 0.020100 0.868600
H137 H -0.952800 0.463400 0.375700
H138 H -1.212700 0.504600 0.321100
H139 H -0.711000 0.714600 0.471100
H140 H -0.460000 0.647700 0.474700
H141 H 0.654000 0.059600 0.801200
H142 H -1.241500 0.628600 0.814200
H143 H -1.013100 0.625400 0.877400
H144 H -1.184200 0.496500 0.832500
H145 H -0.990000 0.425800 0.957000
H146 H -0.738000 0.495600 0.939200
H147 H -0.462000 0.376200 0.961900
H148 H -0.457000 0.375300 -0.218100
H149 H -0.711000 0.308600 0.961000
H150 H -0.457000 0.375300 0.781900
H151 H -0.711000 0.308600 -0.039000
H152 H -0.462000 0.376200 -0.038100
H153 H 1.462000 -0.376200 0.038100
H154 H -0.738000 0.495600 -0.060800
H155 H -0.990000 0.425800 -0.043000
H156 H 1.711000 -0.308600 0.039000
H157 H -1.184200 0.496500 -0.167500
H158 H 2.241500 -0.628600 0.185800
H159 H -1.013100 0.625400 -0.122600
H160 H -1.241500 0.628600 -0.185800
H161 H 2.013100 -0.625400 0.122600
H162 H 2.184200 -0.496500 0.167500
H163 H 1.990000 -0.425800 0.043000
H164 H 1.738000 -0.495600 0.060800
H165 H 1.457000 -0.375300 0.218100
H166 H 0.654000 0.059600 -0.198800
H167 H 0.847000 0.020100 -0.131400
H168 H 0.153000 -0.020100 0.131400
H169 H 0.948000 -0.096600 -0.155600
H170 H 0.763000 -0.067600 -0.226600
H171 H 0.346000 -0.059600 0.198800
H172 H 0.766000 -0.213000 -0.188000
H173 H 0.580000 0.284600 0.110600
H174 H 0.362000 -0.201000 -0.088200
H175 H 0.420000 -0.284600 -0.110600
H176 H 0.638000 0.201000 0.088200
H177 H 0.234000 0.213000 0.188000
H178 H 0.237000 0.067600 0.226600
H179 H 0.052000 0.096600 0.155600
H180 H 1.711000 0.691400 1.039000
C181 C 0.349900 -0.022960 0.146920
C182 C 2.114100 0.401900 1.150000
C183 C 0.245300 0.098310 0.175040
C184 C 2.078800 0.478830 1.138800
C185 C 0.860100 -0.151960 0.093610
C186 C 0.332900 0.186780 0.161120
C187 C 1.884300 0.535380 1.083990
C188 C 0.533600 0.227090 0.116140
C189 C 0.569300 -0.034310 0.027280
C190 C 0.466400 -0.227090 -0.116140
C191 C 0.667100 -0.186780 -0.161120
C192 C 0.754700 -0.098310 -0.175040
C193 C 1.062200 -0.219690 0.116620
C194 C 1.578800 0.649270 1.068540
C195 C 1.359000 -0.332480 0.183460
C196 C 0.650100 0.022960 -0.146920
C197 C 1.387300 -0.310730 0.109930
C198 C 1.387300 0.689270 1.109930
C199 C 1.578800 -0.350730 0.068540
C200 C 0.568900 0.015540 0.526220
C201 C 1.884300 -0.464620 0.083990
C202 C 0.458600 0.059410 -0.102420
C203 C 0.430700 0.034310 -0.027280
C204 C 2.078800 -0.521170 0.138800
C205 C 0.139900 0.151960 -0.093610
C206 C 2.114100 -0.598100 0.150000
C207 C -0.062200 0.219690 -0.116620
C208 C -1.114100 0.598100 -0.150000
C209 C -1.078800 0.521170 -0.138800
C210 C -0.884300 0.464620 -0.083990
C211 C 1.359000 0.667520 1.183460
C212 C 1.062200 0.780310 1.116620
C213 C 0.542000 -0.011290 0.601340
C214 C 0.349500 -0.078570 0.648410
C215 C 0.260800 -0.222640 0.685530
C216 C 0.352000 -0.302130 0.673730
C217 C -0.359000 0.332480 0.816540
C218 C -0.578800 0.350730 -0.068540
C219 C -0.387300 0.310730 0.890070
C220 C -0.578800 0.350730 0.931460
C221 C -0.387300 0.310730 -0.109930
C222 C -0.359000 0.332480 -0.183460
C223 C -0.884300 0.464620 0.916010
C224 C 0.533600 1.227090 1.116140
C225 C 0.549900 -0.309400 0.627900
C226 C -1.078800 0.521170 0.861200
C227 C 0.332900 1.186780 1.161120
C228 C -1.114100 0.598100 0.850000
C229 C 0.863200 0.087320 0.588300
C230 C 1.067800 0.138670 0.609280
C231 C -0.062200 0.219690 0.883380
C232 C 0.139900 0.151960 0.906390
C233 C 0.430700 0.034310 0.972720
C234 C 0.458600 0.059410 0.897580
C235 C 0.650100 0.022960 0.853080
C236 C 0.245300 1.098310 1.175040
C237 C -1.078600 0.508300 0.355400
C238 C 0.754700 -0.098310 0.824960
C239 C -1.067700 0.572300 0.374000
C240 C -0.871900 0.588750 0.426900
C241 C 0.667100 -0.186780 0.838880
C242 C 0.349900 0.977040 1.146920
C243 C 0.466400 -0.227090 0.883860
C244 C -0.575700 0.693590 0.441720
C245 C 0.541400 0.940590 1.102420
C246 C 0.569300 -0.034310 1.027280
C247 C 0.860100 0.848040 1.093610
C248 C 0.860100 -0.151960 1.093610
C249 C 0.569300 0.965690 1.027280
C250 C 0.541400 -0.059410 1.102420
C251 C 0.349900 -0.022960 1.146920
C252 C 1.372900 0.201150 0.674160
C253 C 0.245300 0.098310 1.175040
C254 C -0.389200 0.764800 0.399480
C255 C -0.372900 0.798850 0.325840
C256 C 0.332900 0.186780 1.161120
C257 C 1.389200 0.235200 0.600520
C258 C 0.533600 0.227090 1.116140
C259 C -0.067800 0.861330 0.390720
C260 C 0.450100 1.309400 0.372100
C261 C 0.648000 1.302130 0.326270
C262 C 0.739200 1.222640 0.314470
C263 C 1.062200 -0.219690 1.116620
C264 C 0.466400 0.772910 0.883860
C265 C 1.359000 -0.332480 1.183460
C266 C 1.575700 0.306410 0.558280
C267 C 1.387300 -0.310730 1.109930
C268 C 0.667100 0.813220 0.838880
C269 C 1.578800 -0.350730 1.068540
C270 C 1.871900 0.411250 0.573100
C271 C 1.884300 -0.464620 1.083990
C272 C 0.650500 1.078570 0.351590
C273 C 0.458000 1.011290 0.398660
C274 C 2.078800 -0.521170 1.138800
C275 C 2.067700 0.427700 0.626000
C276 C 2.114100 -0.598100 1.150000
C277 C 0.136800 0.912680 0.411700
C278 C 0.754700 0.901690 0.824960
C279 C 0.431100 0.984460 0.473780
C280 C 2.078600 1.491700 0.644600
C281 C 2.078600 0.491700 0.644600
C282 C 0.431100 -0.015540 0.473780
C283 C 0.650100 1.022960 0.853080
C284 C 0.458600 1.059410 0.897580
C285 C 0.430700 1.034310 0.972720
C286 C 0.139900 1.151960 0.906390
C287 C -0.359000 1.332480 -0.183460
C288 C 2.067700 1.427700 0.626000
C289 C -0.387300 1.310730 -0.109930
C290 C -0.578800 1.350730 -0.068540
C291 C 1.871900 1.411250 0.573100
C292 C 1.575700 1.306410 0.558280
C293 C -0.884300 1.464620 -0.083990
C294 C 1.389200 1.235200 0.600520
C295 C 1.372900 1.201150 0.674160
C296 C -1.078800 1.521170 -0.138800
C297 C 1.067800 1.138670 0.609280
C298 C -1.114100 1.598100 -0.150000
C299 C 0.863200 1.087320 0.588300
C300 C 0.549900 0.690600 0.627900
C301 C -0.062200 1.219690 -0.116620
C302 C 0.139900 1.151960 -0.093610
C303 C 0.430700 1.034310 -0.027280
C304 C 0.458600 1.059410 -0.102420
C305 C 0.650100 1.022960 -0.146920
C306 C 0.352000 0.697870 0.673730
C307 C 0.260800 0.777360 0.685530
C308 C 0.754700 0.901690 -0.175040
C309 C 0.349500 0.921430 0.648410
C310 C 0.542000 0.988710 0.601340
C311 C 0.667100 0.813220 -0.161120
C312 C 0.568900 1.015540 0.526220
C313 C 0.466400 0.772910 -0.116140
C314 C -0.062200 1.219690 0.883380
C315 C 0.136800 -0.087320 0.411700
C316 C 0.569300 0.965690 0.027280
C317 C -1.114100 1.598100 0.850000
C318 C 0.860100 0.848040 0.093610
C319 C -1.078800 1.521170 0.861200
C320 C 0.541400 0.940590 0.102420
C321 C 0.349900 0.977040 0.146920
C322 C 0.458000 0.011290 0.398660
C323 C 0.245300 1.098310 0.175040
C324 C 0.650500 0.078570 0.351590
C325 C -0.884300 1.464620 0.916010
C326 C 0.332900 1.186780 0.161120
C327 C 0.739200 0.222640 0.314470
C328 C 0.533600 1.227090 0.116140
C329 C -0.578800 1.350730 0.931460
C330 C -1.078600 -0.491700 0.355400
C331 C -1.067700 -0.427700 0.374000
C332 C -0.871900 -0.411250 0.426900
C333 C 1.062200 0.780310 0.116620
C334 C -0.387300 1.310730 0.890070
C335 C 1.359000 0.667520 0.183460
C336 C 0.648000 0.302130 0.326270
C337 C 1.387300 0.689270 0.109930
C338 C -0.359000 1.332480 0.816540
C339 C 1.578800 0.649270 0.068540
C340 C 0.450100 0.309400 0.372100
C341 C 1.884300 0.535380 0.083990
C342 C -0.575700 -0.306410 0.441720
C343 C -0.067800 -0.138670 0.390720
C344 C 2.078800 0.478830 0.138800
C345 C -0.389200 -0.235200 0.399480
C346 C 2.114100 0.401900 0.150000
C347 C -0.372900 -0.201150 0.325840
C348 C 0.541400 -0.059410 0.102420
N349 N -0.214700 -0.199680 0.437070
N350 N 0.293700 0.125860 -0.139340
N351 N -0.214700 0.800320 0.437070
N352 N 0.706300 0.874140 1.139340
N353 N 0.293700 0.125860 0.860660
N354 N -0.216500 0.246060 0.928660
N355 N -0.216500 1.246060 0.928660
N356 N 0.293700 1.125860 0.860660
N357 N 1.216500 0.753940 0.071340
N358 N 0.706300 -0.125860 1.139340
N359 N 0.706300 -0.125860 0.139340
N360 N 0.710100 0.029510 0.635760
N361 N 1.214700 0.199680 0.562930
N362 N 1.216500 -0.246060 1.071340
N363 N 0.289900 0.970490 0.364240
N364 N 1.216500 -0.246060 0.071340
N365 N -0.216500 1.246060 -0.071340
N366 N 0.706300 0.874140 0.139340
N367 N 0.289900 -0.029510 0.364240
N368 N 0.293700 1.125860 -0.139340
N369 N 0.710100 1.029510 0.635760
N370 N 1.216500 0.753940 1.071340
N371 N 1.214700 1.199680 0.562930
N372 N -0.216500 0.246060 -0.071340
O373 O 0.443700 1.058880 0.140290
O374 O 0.556300 0.941120 -0.140290
O375 O -0.729300 1.415780 -0.118680
O376 O 1.718800 1.336450 0.608250
O377 O 1.729300 -0.415780 0.118680
O378 O -0.729300 0.415780 0.881320
O379 O 0.454000 0.842620 0.648290
O380 O 1.729300 -0.415780 1.118680
O381 O 0.546000 0.157380 0.351710
O382 O 0.546000 1.157380 0.351710
O383 O 0.454000 -0.157380 0.648290
O384 O 0.556300 -0.058880 0.859710
O385 O 0.443700 0.058880 1.140290
O386 O -0.718800 -0.336450 0.391750
O387 O 0.556300 0.941120 0.859710
O388 O -0.729300 1.415780 0.881320
O389 O 1.718800 0.336450 0.608250
O390 O 0.443700 0.058880 0.140290
O391 O -0.718800 0.663550 0.391750
O392 O 0.443700 1.058880 1.140290
O393 O 1.729300 0.584220 0.118680
O394 O 1.729300 0.584220 1.118680
O395 O -0.729300 0.415780 -0.118680
O396 O 0.556300 -0.058880 -0.140290
S397 S 0.188440 0.098950 -0.003030
S398 S -0.111100 0.271580 -0.207800
S399 S 0.811560 -0.098950 1.003030
S400 S 0.811560 0.901050 1.003030
S401 S -0.131980 0.878570 0.300130
S402 S 0.189720 0.902140 0.501390
S403 S 0.188440 0.098950 0.996970
S404 S 1.111100 0.728420 1.207800
S405 S -0.111100 0.271580 0.792200
S406 S -0.111100 1.271580 -0.207800
S407 S 0.188440 1.098950 -0.003030
S408 S 0.189720 -0.097860 0.501390
S409 S 1.111100 -0.271580 0.207800
S410 S 0.811560 0.901050 0.003030
S411 S 0.811560 -0.098950 0.003030
S412 S 1.131980 1.121430 0.699870
S413 S 0.810280 1.097860 0.498610
S414 S 1.111100 0.728420 0.207800
S415 S 0.188440 1.098950 0.996970
S416 S -0.111100 1.271580 0.792200
S417 S 1.111100 -0.271580 1.207800
S418 S 1.131980 0.121430 0.699870
S419 S -0.131980 -0.121430 0.300130
S420 S 0.810280 0.097860 0.498610

#END
