./ABEDAP_from_POSCAR.cif_generated_by_CrystalShift
_symmetry_cell_setting triclinic
_symmetry_space_group_name_H-M 'P 1'
loop_
_symmetry_equiv_pos_site_id
_symmetry_equiv_pos_as_xyz
1 x,y,z
_cell_length_a 9.958100
_cell_length_b 10.762500
_cell_length_c 13.615900
_cell_angle_alpha 71.809000
_cell_angle_beta 74.815000
_cell_angle_gamma 65.984000
_cell_volume 1250.935734
loop_
_atom_site_label
_atom_site_type_symbol
_atom_site_fract_x
_atom_site_fract_y
_atom_site_fract_z
H1 H 0.194800 0.877900 0.837600
H2 H 0.138200 0.844000 0.772000
H3 H 0.907100 0.113500 0.414100
H4 H 0.092900 0.886500 0.585900
H5 H -0.012700 0.993600 0.628800
H6 H 0.972400 -0.211100 1.252500
H7 H 1.229800 -0.364000 1.005600
H8 H 0.562600 0.655100 0.241800
H9 H 1.404700 -0.516100 1.114200
H10 H 1.358500 -0.509800 1.286700
H11 H 0.854800 -0.031900 0.853300
H12 H -0.004600 1.175300 0.015400
H13 H 0.646100 0.155900 0.774400
H14 H 0.708400 -0.021200 0.644800
H15 H 0.318600 0.484100 0.623000
H16 H 0.091300 0.489200 0.912200
H17 H -0.118000 0.641900 0.836700
H18 H -0.105200 0.700700 0.658700
H19 H 0.295200 0.029100 0.621900
H20 H 0.477700 1.219800 0.347500
H21 H 0.536700 1.178300 0.239300
H22 H 0.367200 1.216200 0.285800
H23 H 0.562200 0.646300 0.492500
H24 H 0.437800 0.353700 0.507500
H25 H 0.704800 0.970900 0.378100
H26 H 0.632800 -0.216200 0.714200
H27 H 0.463300 -0.178300 0.760700
H28 H 0.522300 -0.219800 0.652500
H29 H 0.291600 1.021200 0.355200
H30 H 1.004600 -0.175300 0.984600
H31 H 1.105200 0.299300 0.341300
H32 H 0.437400 0.344900 0.758200
H33 H 1.118000 0.358100 0.163300
H34 H 1.012700 0.006400 0.371200
H35 H 0.908700 0.510800 0.087800
H36 H 0.861800 0.156000 0.228000
H37 H 0.805200 0.122100 0.162400
H38 H 0.681400 0.515900 0.377000
H39 H 0.027600 1.211100 -0.252500
H40 H -0.229800 1.364000 -0.005600
H41 H -0.404700 1.516100 -0.114200
H42 H 0.353900 0.844100 0.225600
H43 H -0.358500 1.509800 -0.286700
H44 H 0.145200 1.031900 0.146700
C45 C 0.253400 0.999100 0.003080
C46 C 0.161300 1.092800 -0.079600
C47 C -0.287700 1.448700 -0.244020
C48 C 0.230400 0.979900 0.108800
C49 C -0.316300 1.453000 -0.140550
C50 C 0.351300 0.871700 0.153990
C51 C -0.212400 1.362600 -0.075840
C52 C 0.463700 0.811800 0.082860
C53 C -0.081800 1.270000 -0.117770
C54 C -0.060200 1.272400 -0.223920
C55 C 0.610100 0.697300 0.093230
C56 C 0.699160 0.243470 0.566910
C57 C 0.771400 0.487600 0.332970
C58 C 0.771700 0.535100 0.225530
C59 C 1.060200 -0.272400 1.223920
C60 C 1.081800 -0.270000 1.117770
C61 C 0.904100 0.484500 0.160100
C62 C 1.212400 -0.362600 1.075840
C63 C 0.589530 0.176490 0.576370
C64 C 1.316300 -0.453000 1.140550
C65 C 0.300840 0.756530 0.433090
C66 C 1.287700 -0.448700 1.244020
C67 C 0.838700 -0.092800 1.079600
C68 C 1.028200 0.394400 0.205210
C69 C 0.410470 0.823510 0.423630
C70 C 0.746600 0.000900 0.996920
C71 C 0.769600 0.020100 0.891200
C72 C 1.019500 0.358000 0.312470
C73 C 0.383830 0.964410 0.375530
C74 C 0.195220 0.300600 0.526260
C75 C 0.616170 0.035590 0.624470
C76 C 0.493870 1.021240 0.357570
C77 C 0.630100 0.934610 0.390290
C78 C 0.533600 -0.172600 0.697460
C79 C 0.648700 0.128300 0.846010
C80 C 0.656780 0.794170 0.441130
C81 C 0.536300 0.188200 0.917140
C82 C 0.545730 0.739480 0.458050
C83 C 0.454270 0.260520 0.541950
C84 C 0.466400 1.172600 0.302540
C85 C 0.389900 0.302700 0.906770
C86 C 0.343220 0.205830 0.558870
C87 C 0.228600 0.512400 0.667030
C88 C 0.804780 0.699400 0.473740
C89 C -0.019500 0.642000 0.687530
C90 C 0.369900 0.065390 0.609710
C91 C -0.028200 0.605600 0.794790
C92 C 0.506130 -0.021240 0.642430
C93 C 0.095900 0.515500 0.839900
C94 C 0.228300 0.464900 0.774470
N95 N 0.107260 0.596260 0.623350
N96 N 0.892740 0.403740 0.376650
N97 N -0.161890 1.360120 -0.286010
N98 N 0.838110 0.360120 0.713990
N99 N 0.636600 0.633300 0.193010
N100 N 0.161890 0.639880 0.286010
N101 N 1.161890 -0.360120 1.286010
N102 N 0.977100 -0.177450 1.050330
N103 N 0.022900 1.177450 -0.050330
N104 N 0.363400 0.366700 0.806990
O105 O 0.908510 0.746920 0.446960
O106 O 0.348500 0.628570 0.433510
O107 O 0.302100 0.335900 0.982430
O108 O 0.182700 0.422380 0.473370
O109 O 0.163520 0.826790 0.438010
O110 O 0.858200 0.166200 0.164170
O111 O 0.786300 -0.086100 1.169770
O112 O 0.213700 1.086100 -0.169770
O113 O 1.091490 0.253080 0.553040
O114 O 0.651500 0.371430 0.566490
O115 O 0.141800 0.833800 0.835830
O116 O 0.697900 0.664100 0.017570
O117 O -0.091490 0.746920 0.446960
O118 O 0.091490 0.253080 0.553040
O119 O 0.935100 0.078780 0.360750
O120 O 0.836480 0.173210 0.561990
O121 O 0.817300 0.577620 0.526630
O122 O 0.064900 0.921220 0.639250
S123 S 0.576600 0.112890 1.041620
S124 S 0.423400 0.887110 -0.041620
Co125 Co 0.125000 0.629490 0.454040
Co126 Co -0.125000 1.370510 -0.454040
Co127 Co -0.125000 0.370510 0.545960
Co128 Co 1.125000 0.629490 0.454040
Co129 Co 0.875000 0.370510 0.545960
Co130 Co 1.125000 -0.370510 1.454040

#END
