
#######################################################################
#
#                 Cambridge Crystallographic Data Centre
#                                CCDC 
#
#######################################################################
#
# If this CIF has been generated from an entry in the Cambridge 
# Structural Database, then it will include bibliographic, chemical, 
# crystal, experimental, refinement or atomic coordinate data resulting 
# from the CCDC's data processing and validation procedures.
#
#######################################################################

data_ABEDIU
_symmetry_cell_setting           triclinic
_symmetry_space_group_name_H-M   'P -1'
_symmetry_Int_Tables_number      2
_space_group_name_Hall           '-P 1'
loop_
_symmetry_equiv_pos_site_id
_symmetry_equiv_pos_as_xyz
1 x,y,z
2 -x,-y,-z
_cell_length_a                   4.71770(10)
_cell_length_b                   16.96430(10)
_cell_length_c                   19.44940(10)
_cell_angle_alpha                71.1000(10)
_cell_angle_beta                 88.3450(10)
_cell_angle_gamma                89.7350(10)
_cell_volume                     1472.03
loop_
_atom_site_label
_atom_site_type_symbol
_atom_site_fract_x
_atom_site_fract_y
_atom_site_fract_z
S1 S 0.8103(1) 0.0979(1) 0.4986(1)
S2 S 1.1320(1) 0.1214(1) 0.6999(1)
O1 O 0.4540(4) -0.1574(1) 0.6483(1)
O2 O 1.7188(4) 0.3364(1) 0.6083(1)
N1 N 0.7101(4) 0.0295(1) 0.6358(1)
N2 N 1.2147(4) 0.1997(1) 0.5629(1)
C1 C 0.5689(5) 0.0155(1) 0.5262(1)
C2 C 0.5420(5) -0.0113(1) 0.6013(1)
C3 C 0.3495(6) -0.0786(2) 0.6484(1)
C4 C 0.2608(7) -0.2226(2) 0.6855(2)
C5 C 0.3520(8) -0.3021(2) 0.6737(2)
C6 C 0.5499(9) -0.3094(2) 0.6279(2)
C7 C 0.8632(5) 0.0873(1) 0.5883(1)
C8 C 1.0678(5) 0.1387(1) 0.6093(1)
C9 C 1.3729(6) 0.2011(1) 0.6742(1)
C10 C 1.3892(5) 0.2352(1) 0.6005(1)
C11 C 1.5757(6) 0.3064(2) 0.5583(1)
C12 C 1.8719(7) 0.4112(2) 0.5731(2)
C13 C 2.0677(9) 0.4277(2) 0.6260(2)
C14 C 2.0786(10) 0.4917(2) 0.6446(2)
C1A C 0.4311(5) -0.0155(1) 0.4738(1)
S1A S 0.1897(1) -0.0979(1) 0.5014(1)
C7A C 0.1368(5) -0.0873(1) 0.4117(1)
N1A N 0.2899(4) -0.0295(1) 0.3642(1)
C2A C 0.4580(5) 0.0113(1) 0.3987(1)
C3A C 0.6505(6) 0.0786(2) 0.3516(1)
O1A O 0.5460(4) 0.1574(1) 0.3517(1)
C4A C 0.7392(7) 0.2226(2) 0.3145(2)
C5A C 0.6480(8) 0.3021(2) 0.3263(2)
C6A C 0.4501(9) 0.3094(2) 0.3721(2)
C8A C -0.0678(5) -0.1387(1) 0.3907(1)
S2A S -0.1320(1) -0.1214(1) 0.3001(1)
C9A C -0.3729(6) -0.2011(1) 0.3258(1)
C10A C -0.3892(5) -0.2352(1) 0.3995(1)
N2A N -0.2147(4) -0.1997(1) 0.4371(1)
C11A C -0.5757(6) -0.3064(2) 0.4417(1)
O2A O -0.7188(4) -0.3364(1) 0.3917(1)
C12A C -0.8719(7) -0.4112(2) 0.4269(2)
C13A C -1.0677(9) -0.4277(2) 0.3740(2)
C14A C -1.0786(10) -0.4917(2) 0.3554(2)
S1 S 0.8103(1) 1.0979(1) 0.4986(1)
S2 S 1.1320(1) 1.1214(1) 0.6999(1)
O1 O 0.4540(4) 0.8426(1) 0.6483(1)
O2 O 1.7188(4) 1.3364(1) 0.6083(1)
N1 N 0.7101(4) 1.0295(1) 0.6358(1)
N2 N 1.2147(4) 1.1997(1) 0.5629(1)
C1 C 0.5689(5) 1.0155(1) 0.5262(1)
C2 C 0.5420(5) 0.9887(1) 0.6013(1)
C3 C 0.3495(6) 0.9214(2) 0.6484(1)
C4 C 0.2608(7) 0.7774(2) 0.6855(2)
C5 C 0.3520(8) 0.6979(2) 0.6737(2)
C6 C 0.5499(9) 0.6906(2) 0.6279(2)
C7 C 0.8632(5) 1.0873(1) 0.5883(1)
C8 C 1.0678(5) 1.1387(1) 0.6093(1)
C9 C 1.3729(6) 1.2011(1) 0.6742(1)
C10 C 1.3892(5) 1.2352(1) 0.6005(1)
C11 C 1.5757(6) 1.3064(2) 0.5583(1)
C12 C 1.8719(7) 1.4112(2) 0.5731(2)
C13 C 2.0677(9) 1.4277(2) 0.6260(2)
C14 C 2.0786(10) 1.4917(2) 0.6446(2)
C1A C 0.4311(5) 0.9845(1) 0.4738(1)
S1A S 0.1897(1) 0.9021(1) 0.5014(1)
C7A C 0.1368(5) 0.9127(1) 0.4117(1)
N1A N 0.2899(4) 0.9705(1) 0.3642(1)
C2A C 0.4580(5) 1.0113(1) 0.3987(1)
C3A C 0.6505(6) 1.0786(2) 0.3516(1)
O1A O 0.5460(4) 1.1574(1) 0.3517(1)
C4A C 0.7392(7) 1.2226(2) 0.3145(2)
C5A C 0.6480(8) 1.3021(2) 0.3263(2)
C6A C 0.4501(9) 1.3094(2) 0.3721(2)
C8A C -0.0678(5) 0.8613(1) 0.3907(1)
S2A S -0.1320(1) 0.8786(1) 0.3001(1)
C9A C -0.3729(6) 0.7989(1) 0.3258(1)
C10A C -0.3892(5) 0.7648(1) 0.3995(1)
N2A N -0.2147(4) 0.8003(1) 0.4371(1)
C11A C -0.5757(6) 0.6936(2) 0.4417(1)
O2A O -0.7188(4) 0.6636(1) 0.3917(1)
C12A C -0.8719(7) 0.5888(2) 0.4269(2)
C13A C -1.0677(9) 0.5723(2) 0.3740(2)
C14A C -1.0786(10) 0.5083(2) 0.3554(2)
S3 S -0.1111(1) 0.2716(1) -0.2078(1)
S4 S 0.1884(1) 0.0990(1) -0.0030(1)
O3 O -0.7293(4) 0.4158(1) -0.1187(1)
O4 O 0.5563(4) -0.0589(1) -0.1403(1)
N3 N -0.2165(4) 0.2461(1) -0.0713(1)
N4 N 0.2937(4) 0.1259(1) -0.1393(1)
C15 C -0.3590(6) 0.3325(2) -0.1835(1)
C16 C -0.3873(5) 0.3107(1) -0.1099(1)
C17 C -0.5788(6) 0.3507(2) -0.0685(2)
C18 C -0.8843(7) 0.4646(2) -0.0840(2)
C19 C -1.0788(7) 0.5212(2) -0.1388(2)
C20 C -1.1141(10) 0.5981(2) -0.1500(2)
C21 C -0.0622(5) 0.2197(1) -0.1166(1)
C22 C 0.1399(5) 0.1520(1) -0.0936(1)
C23 C 0.4307(5) 0.0343(1) -0.0273(1)
C24 C 0.4586(5) 0.0594(1) -0.1024(1)
C25 C 0.6501(6) 0.0230(1) -0.1469(1)
C26 C 0.7547(6) -0.0983(2) -0.1750(2)
C27 C 0.6671(7) -0.1868(2) -0.1611(2)
C28 C 0.4664(7) -0.2271(2) -0.1161(2)
C23A C 0.5693(5) -0.0343(1) 0.0273(1)
S4A S 0.8116(1) -0.0990(1) 0.0030(1)
C22A C 0.8601(5) -0.1520(1) 0.0936(1)
N4A N 0.7063(4) -0.1259(1) 0.1393(1)
C24A C 0.5414(5) -0.0594(1) 0.1024(1)
C25A C 0.3499(6) -0.0230(1) 0.1469(1)
O4A O 0.4437(4) 0.0589(1) 0.1403(1)
C26A C 0.2453(6) 0.0983(2) 0.1750(2)
C27A C 0.3329(7) 0.1868(2) 0.1611(2)
C28A C 0.5336(7) 0.2271(2) 0.1161(2)
C21A C 1.0622(5) -0.2197(1) 0.1166(1)
S3A S 1.1111(1) -0.2716(1) 0.2078(1)
C15A C 1.3590(6) -0.3325(2) 0.1835(1)
C16A C 1.3873(5) -0.3107(1) 0.1099(1)
N3A N 1.2165(4) -0.2461(1) 0.0713(1)
C17A C 1.5788(6) -0.3507(2) 0.0685(2)
O3A O 1.7293(4) -0.4158(1) 0.1187(1)
C18A C 1.8843(7) -0.4646(2) 0.0840(2)
C19A C 2.0788(7) -0.5212(2) 0.1388(2)
C20A C 2.1141(10) -0.5981(2) 0.1500(2)
S3 S -0.1111(1) 0.2716(1) 0.7922(1)
S4 S 0.1884(1) 0.0990(1) 0.9970(1)
O3 O -0.7293(4) 0.4158(1) 0.8813(1)
O4 O 0.5563(4) -0.0589(1) 0.8597(1)
N3 N -0.2165(4) 0.2461(1) 0.9287(1)
N4 N 0.2937(4) 0.1259(1) 0.8607(1)
C15 C -0.3590(6) 0.3325(2) 0.8165(1)
C16 C -0.3873(5) 0.3107(1) 0.8901(1)
C17 C -0.5788(6) 0.3507(2) 0.9315(2)
C18 C -0.8843(7) 0.4646(2) 0.9160(2)
C19 C -1.0788(7) 0.5212(2) 0.8612(2)
C20 C -1.1141(10) 0.5981(2) 0.8500(2)
C21 C -0.0622(5) 0.2197(1) 0.8834(1)
C22 C 0.1399(5) 0.1520(1) 0.9064(1)
C23 C 0.4307(5) 0.0343(1) 0.9727(1)
C24 C 0.4586(5) 0.0594(1) 0.8976(1)
C25 C 0.6501(6) 0.0230(1) 0.8531(1)
C26 C 0.7547(6) -0.0983(2) 0.8250(2)
C27 C 0.6671(7) -0.1868(2) 0.8389(2)
C28 C 0.4664(7) -0.2271(2) 0.8839(2)
C23A C 0.5693(5) -0.0343(1) 1.0273(1)
S4A S 0.8116(1) -0.0990(1) 1.0030(1)
C22A C 0.8601(5) -0.1520(1) 1.0936(1)
N4A N 0.7063(4) -0.1259(1) 1.1393(1)
C24A C 0.5414(5) -0.0594(1) 1.1024(1)
C25A C 0.3499(6) -0.0230(1) 1.1469(1)
O4A O 0.4437(4) 0.0589(1) 1.1403(1)
C26A C 0.2453(6) 0.0983(2) 1.1750(2)
C27A C 0.3329(7) 0.1868(2) 1.1611(2)
C28A C 0.5336(7) 0.2271(2) 1.1161(2)
C21A C 1.0622(5) -0.2197(1) 1.1166(1)
S3A S 1.1111(1) -0.2716(1) 1.2078(1)
C15A C 1.3590(6) -0.3325(2) 1.1835(1)
C16A C 1.3873(5) -0.3107(1) 1.1099(1)
N3A N 1.2165(4) -0.2461(1) 1.0713(1)
C17A C 1.5788(6) -0.3507(2) 1.0685(2)
O3A O 1.7293(4) -0.4158(1) 1.1187(1)
C18A C 1.8843(7) -0.4646(2) 1.0840(2)
C19A C 2.0788(7) -0.5212(2) 1.1388(2)
C20A C 2.1141(10) -0.5981(2) 1.1500(2)
S3 S -0.1111(1) 1.2716(1) -0.2078(1)
S4 S 0.1884(1) 1.0990(1) -0.0030(1)
O3 O -0.7293(4) 1.4158(1) -0.1187(1)
O4 O 0.5563(4) 0.9411(1) -0.1403(1)
N3 N -0.2165(4) 1.2461(1) -0.0713(1)
N4 N 0.2937(4) 1.1259(1) -0.1393(1)
C15 C -0.3590(6) 1.3325(2) -0.1835(1)
C16 C -0.3873(5) 1.3107(1) -0.1099(1)
C17 C -0.5788(6) 1.3507(2) -0.0685(2)
C18 C -0.8843(7) 1.4646(2) -0.0840(2)
C19 C -1.0788(7) 1.5212(2) -0.1388(2)
C20 C -1.1141(10) 1.5981(2) -0.1500(2)
C21 C -0.0622(5) 1.2197(1) -0.1166(1)
C22 C 0.1399(5) 1.1520(1) -0.0936(1)
C23 C 0.4307(5) 1.0343(1) -0.0273(1)
C24 C 0.4586(5) 1.0594(1) -0.1024(1)
C25 C 0.6501(6) 1.0230(1) -0.1469(1)
C26 C 0.7547(6) 0.9017(2) -0.1750(2)
C27 C 0.6671(7) 0.8132(2) -0.1611(2)
C28 C 0.4664(7) 0.7729(2) -0.1161(2)
C23A C 0.5693(5) 0.9657(1) 0.0273(1)
S4A S 0.8116(1) 0.9010(1) 0.0030(1)
C22A C 0.8601(5) 0.8480(1) 0.0936(1)
N4A N 0.7063(4) 0.8741(1) 0.1393(1)
C24A C 0.5414(5) 0.9406(1) 0.1024(1)
C25A C 0.3499(6) 0.9770(1) 0.1469(1)
O4A O 0.4437(4) 1.0589(1) 0.1403(1)
C26A C 0.2453(6) 1.0983(2) 0.1750(2)
C27A C 0.3329(7) 1.1868(2) 0.1611(2)
C28A C 0.5336(7) 1.2271(2) 0.1161(2)
C21A C 1.0622(5) 0.7803(1) 0.1166(1)
S3A S 1.1111(1) 0.7284(1) 0.2078(1)
C15A C 1.3590(6) 0.6675(2) 0.1835(1)
C16A C 1.3873(5) 0.6893(1) 0.1099(1)
N3A N 1.2165(4) 0.7539(1) 0.0713(1)
C17A C 1.5788(6) 0.6493(2) 0.0685(2)
O3A O 1.7293(4) 0.5842(1) 0.1187(1)
C18A C 1.8843(7) 0.5354(2) 0.0840(2)
C19A C 2.0788(7) 0.4788(2) 0.1388(2)
C20A C 2.1141(10) 0.4019(2) 0.1500(2)
S3 S -0.1111(1) 1.2716(1) 0.7922(1)
S4 S 0.1884(1) 1.0990(1) 0.9970(1)
O3 O -0.7293(4) 1.4158(1) 0.8813(1)
O4 O 0.5563(4) 0.9411(1) 0.8597(1)
N3 N -0.2165(4) 1.2461(1) 0.9287(1)
N4 N 0.2937(4) 1.1259(1) 0.8607(1)
C15 C -0.3590(6) 1.3325(2) 0.8165(1)
C16 C -0.3873(5) 1.3107(1) 0.8901(1)
C17 C -0.5788(6) 1.3507(2) 0.9315(2)
C18 C -0.8843(7) 1.4646(2) 0.9160(2)
C19 C -1.0788(7) 1.5212(2) 0.8612(2)
C20 C -1.1141(10) 1.5981(2) 0.8500(2)
C21 C -0.0622(5) 1.2197(1) 0.8834(1)
C22 C 0.1399(5) 1.1520(1) 0.9064(1)
C23 C 0.4307(5) 1.0343(1) 0.9727(1)
C24 C 0.4586(5) 1.0594(1) 0.8976(1)
C25 C 0.6501(6) 1.0230(1) 0.8531(1)
C26 C 0.7547(6) 0.9017(2) 0.8250(2)
C27 C 0.6671(7) 0.8132(2) 0.8389(2)
C28 C 0.4664(7) 0.7729(2) 0.8839(2)
C23A C 0.5693(5) 0.9657(1) 1.0273(1)
S4A S 0.8116(1) 0.9010(1) 1.0030(1)
C22A C 0.8601(5) 0.8480(1) 1.0936(1)
N4A N 0.7063(4) 0.8741(1) 1.1393(1)
C24A C 0.5414(5) 0.9406(1) 1.1024(1)
C25A C 0.3499(6) 0.9770(1) 1.1469(1)
O4A O 0.4437(4) 1.0589(1) 1.1403(1)
C26A C 0.2453(6) 1.0983(2) 1.1750(2)
C27A C 0.3329(7) 1.1868(2) 1.1611(2)
C28A C 0.5336(7) 1.2271(2) 1.1161(2)
C21A C 1.0622(5) 0.7803(1) 1.1166(1)
S3A S 1.1111(1) 0.7284(1) 1.2078(1)
C15A C 1.3590(6) 0.6675(2) 1.1835(1)
C16A C 1.3873(5) 0.6893(1) 1.1099(1)
N3A N 1.2165(4) 0.7539(1) 1.0713(1)
C17A C 1.5788(6) 0.6493(2) 1.0685(2)
O3A O 1.7293(4) 0.5842(1) 1.1187(1)
C18A C 1.8843(7) 0.5354(2) 1.0840(2)
C19A C 2.0788(7) 0.4788(2) 1.1388(2)
C20A C 2.1141(10) 0.4019(2) 1.1500(2)

#END
