
#######################################################################
#
#                 Cambridge Crystallographic Data Centre
#                                CCDC 
#
#######################################################################
#
# If this CIF has been generated from an entry in the Cambridge 
# Structural Database, then it will include bibliographic, chemical, 
# crystal, experimental, refinement or atomic coordinate data resulting 
# from the CCDC's data processing and validation procedures.
#
#######################################################################

data_KACTEQ
_symmetry_cell_setting           orthorhombic
_symmetry_space_group_name_H-M   'I 2 2 2'
_symmetry_Int_Tables_number      23
_space_group_name_Hall           'I 2 2'
loop_
_symmetry_equiv_pos_site_id
_symmetry_equiv_pos_as_xyz
1 x,y,z
2 -x,-y,z
3 x,-y,-z
4 -x,y,-z
5 1/2+x,1/2+y,1/2+z
6 1/2-x,1/2-y,1/2+z
7 1/2+x,1/2-y,1/2-z
8 1/2-x,1/2+y,1/2-z
_cell_length_a                   15.713(12)
_cell_length_b                   28.08(2)
_cell_length_c                   28.507(18)
_cell_angle_alpha                90
_cell_angle_beta                 90
_cell_angle_gamma                90
_cell_volume                     12577.9
loop_
_atom_site_label
_atom_site_type_symbol
_atom_site_fract_x
_atom_site_fract_y
_atom_site_fract_z
Br1 Br 0.13221(9) 0.51121(4) 0.08640(4)
N1 N 0.3564(4) 0.8051(2) 0.3350(2)
O1 O 0.0875(5) 0.6504(3) 0.2774(3)
O2 O 0.3572(7) 0.6157(3) 0.3953(3)
O3 O 0.3234(6) 0.6575(3) 0.4556(2)
O4 O 0.1452(5) 0.6749(3) 0.4057(3)
O5 O 0.2022(5) 0.7411(3) 0.4253(3)
C1 C 0.1437(6) 0.6523(3) 0.2490(3)
C2 C 0.2140(6) 0.6881(3) 0.2527(3)
H1 H 0.2024 0.7144 0.2316
H2 H 0.2670 0.6734 0.2429
C3 C 0.2236(6) 0.7070(3) 0.3028(3)
H3 H 0.1667 0.7127 0.3157
C4 C 0.2685(6) 0.6706(3) 0.3334(3)
H4 H 0.3223 0.6622 0.3189
H5 H 0.2340 0.6420 0.3350
C5 C 0.2854(6) 0.6884(3) 0.3835(3)
C6 C 0.3479(6) 0.7291(3) 0.3815(3)
H6 H 0.4050 0.7168 0.3770
H7 H 0.3467 0.7465 0.4109
C7 C 0.3249(6) 0.7621(3) 0.3414(3)
C8 C 0.2735(6) 0.7526(3) 0.3049(3)
C9 C 0.2754(6) 0.7905(3) 0.2755(3)
H8 H 0.2463 0.7928 0.2472
C10 C 0.3252(6) 0.8237(3) 0.2937(3)
C11 C 0.3466(5) 0.8698(3) 0.2755(3)
C12 C 0.3741(7) 0.8751(3) 0.2300(3)
H9 H 0.3810 0.8480 0.2116
C13 C 0.3916(8) 0.9184(4) 0.2108(4)
H10 H 0.4113 0.9209 0.1802
C14 C 0.3800(9) 0.9562(4) 0.2365(4)
H11 H 0.3897 0.9859 0.2232
C15 C 0.3544(9) 0.9539(4) 0.2817(5)
H12 H 0.3490 0.9817 0.2992
C16 C 0.3364(7) 0.9110(3) 0.3016(4)
H13 H 0.3175 0.9094 0.3325
C17 C 0.4143(6) 0.8293(3) 0.3679(3)
H14 H 0.4479 0.8522 0.3503
H15 H 0.4532 0.8058 0.3806
C18 C 0.3735(7) 0.8548(3) 0.4081(3)
C19 C 0.4222(6) 0.8791(3) 0.4384(3)
H16 H 0.4807 0.8793 0.4337
C20 C 0.3913(9) 0.9026(4) 0.4744(4)
H17 H 0.4275 0.9172 0.4958
C21 C 0.3040(10) 0.9053(4) 0.4799(4)
H18 H 0.2807 0.9230 0.5042
C22 C 0.2522(8) 0.8816(5) 0.4493(4)
H19 H 0.1934 0.8837 0.4524
C23 C 0.2865(7) 0.8552(3) 0.4143(4)
H20 H 0.2516 0.8373 0.3946
C24 C 0.3261(7) 0.6503(4) 0.4115(4)
C25 C 0.3584(9) 0.6209(5) 0.4866(4)
H21 H 0.3323 0.5908 0.4796
H22 H 0.3471 0.6292 0.5187
H23 H 0.4187 0.6186 0.4819
C26 C 0.2046(8) 0.6987(4) 0.4056(3)
C27 C 0.1222(10) 0.7564(6) 0.4461(5)
H24 H 0.0955 0.7794 0.4261
H25 H 0.1330 0.7704 0.4762
H26 H 0.0853 0.7294 0.4498
C28 C 0.1440(5) 0.6200(3) 0.2089(3)
C29 C 0.0714(6) 0.5936(3) 0.1990(4)
H27 H 0.0236 0.5971 0.2179
C30 C 0.0688(6) 0.5627(3) 0.1621(3)
H28 H 0.0192 0.5456 0.1563
C31 C 0.1358(7) 0.5564(3) 0.1344(3)
C32 C 0.2080(7) 0.5805(3) 0.1408(3)
H29 H 0.2545 0.5760 0.1211
C33 C 0.2113(6) 0.6127(3) 0.1782(3)
H30 H 0.2610 0.6301 0.1827
Br1 Br 0.86779(9) 0.48879(4) 0.08640(4)
N1 N 0.6436(4) 0.1949(2) 0.3350(2)
O1 O 0.9125(5) 0.3496(3) 0.2774(3)
O2 O 0.6428(7) 0.3843(3) 0.3953(3)
O3 O 0.6766(6) 0.3425(3) 0.4556(2)
O4 O 0.8548(5) 0.3251(3) 0.4057(3)
O5 O 0.7978(5) 0.2589(3) 0.4253(3)
C1 C 0.8563(6) 0.3477(3) 0.2490(3)
C2 C 0.7860(6) 0.3119(3) 0.2527(3)
H1 H 0.7976 0.2856 0.2316
H2 H 0.7330 0.3266 0.2429
C3 C 0.7764(6) 0.2930(3) 0.3028(3)
H3 H 0.8333 0.2873 0.3157
C4 C 0.7315(6) 0.3294(3) 0.3334(3)
H4 H 0.6777 0.3378 0.3189
H5 H 0.7660 0.3580 0.3350
C5 C 0.7146(6) 0.3116(3) 0.3835(3)
C6 C 0.6521(6) 0.2709(3) 0.3815(3)
H6 H 0.5950 0.2832 0.3770
H7 H 0.6533 0.2535 0.4109
C7 C 0.6751(6) 0.2379(3) 0.3414(3)
C8 C 0.7265(6) 0.2474(3) 0.3049(3)
C9 C 0.7246(6) 0.2095(3) 0.2755(3)
H8 H 0.7537 0.2072 0.2472
C10 C 0.6748(6) 0.1763(3) 0.2937(3)
C11 C 0.6534(5) 0.1302(3) 0.2755(3)
C12 C 0.6259(7) 0.1249(3) 0.2300(3)
H9 H 0.6190 0.1520 0.2116
C13 C 0.6084(8) 0.0816(4) 0.2108(4)
H10 H 0.5887 0.0791 0.1802
C14 C 0.6200(9) 0.0438(4) 0.2365(4)
H11 H 0.6103 0.0141 0.2232
C15 C 0.6456(9) 0.0461(4) 0.2817(5)
H12 H 0.6510 0.0183 0.2992
C16 C 0.6636(7) 0.0890(3) 0.3016(4)
H13 H 0.6825 0.0906 0.3325
C17 C 0.5857(6) 0.1707(3) 0.3679(3)
H14 H 0.5521 0.1478 0.3503
H15 H 0.5468 0.1942 0.3806
C18 C 0.6265(7) 0.1452(3) 0.4081(3)
C19 C 0.5778(6) 0.1209(3) 0.4384(3)
H16 H 0.5193 0.1207 0.4337
C20 C 0.6087(9) 0.0974(4) 0.4744(4)
H17 H 0.5725 0.0828 0.4958
C21 C 0.6960(10) 0.0947(4) 0.4799(4)
H18 H 0.7193 0.0770 0.5042
C22 C 0.7478(8) 0.1184(5) 0.4493(4)
H19 H 0.8066 0.1163 0.4524
C23 C 0.7135(7) 0.1448(3) 0.4143(4)
H20 H 0.7484 0.1627 0.3946
C24 C 0.6739(7) 0.3497(4) 0.4115(4)
C25 C 0.6416(9) 0.3791(5) 0.4866(4)
H21 H 0.6677 0.4092 0.4796
H22 H 0.6529 0.3708 0.5187
H23 H 0.5813 0.3814 0.4819
C26 C 0.7954(8) 0.3013(4) 0.4056(3)
C27 C 0.8778(10) 0.2436(6) 0.4461(5)
H24 H 0.9045 0.2206 0.4261
H25 H 0.8670 0.2296 0.4762
H26 H 0.9147 0.2706 0.4498
C28 C 0.8560(5) 0.3800(3) 0.2089(3)
C29 C 0.9286(6) 0.4064(3) 0.1990(4)
H27 H 0.9764 0.4029 0.2179
C30 C 0.9312(6) 0.4373(3) 0.1621(3)
H28 H 0.9808 0.4544 0.1563
C31 C 0.8642(7) 0.4436(3) 0.1344(3)
C32 C 0.7920(7) 0.4195(3) 0.1408(3)
H29 H 0.7455 0.4240 0.1211
C33 C 0.7887(6) 0.3873(3) 0.1782(3)
H30 H 0.7390 0.3699 0.1827
Br1 Br 0.13221(9) 0.48879(4) 0.91360(4)
N1 N 0.3564(4) 0.1949(2) 0.6650(2)
O1 O 0.0875(5) 0.3496(3) 0.7226(3)
O2 O 0.3572(7) 0.3843(3) 0.6047(3)
O3 O 0.3234(6) 0.3425(3) 0.5444(2)
O4 O 0.1452(5) 0.3251(3) 0.5943(3)
O5 O 0.2022(5) 0.2589(3) 0.5747(3)
C1 C 0.1437(6) 0.3477(3) 0.7510(3)
C2 C 0.2140(6) 0.3119(3) 0.7473(3)
H1 H 0.2024 0.2856 0.7684
H2 H 0.2670 0.3266 0.7571
C3 C 0.2236(6) 0.2930(3) 0.6972(3)
H3 H 0.1667 0.2873 0.6843
C4 C 0.2685(6) 0.3294(3) 0.6666(3)
H4 H 0.3223 0.3378 0.6811
H5 H 0.2340 0.3580 0.6650
C5 C 0.2854(6) 0.3116(3) 0.6165(3)
C6 C 0.3479(6) 0.2709(3) 0.6185(3)
H6 H 0.4050 0.2832 0.6230
H7 H 0.3467 0.2535 0.5891
C7 C 0.3249(6) 0.2379(3) 0.6586(3)
C8 C 0.2735(6) 0.2474(3) 0.6951(3)
C9 C 0.2754(6) 0.2095(3) 0.7245(3)
H8 H 0.2463 0.2072 0.7528
C10 C 0.3252(6) 0.1763(3) 0.7063(3)
C11 C 0.3466(5) 0.1302(3) 0.7245(3)
C12 C 0.3741(7) 0.1249(3) 0.7700(3)
H9 H 0.3810 0.1520 0.7884
C13 C 0.3916(8) 0.0816(4) 0.7892(4)
H10 H 0.4113 0.0791 0.8198
C14 C 0.3800(9) 0.0438(4) 0.7635(4)
H11 H 0.3897 0.0141 0.7768
C15 C 0.3544(9) 0.0461(4) 0.7183(5)
H12 H 0.3490 0.0183 0.7008
C16 C 0.3364(7) 0.0890(3) 0.6984(4)
H13 H 0.3175 0.0906 0.6675
C17 C 0.4143(6) 0.1707(3) 0.6321(3)
H14 H 0.4479 0.1478 0.6497
H15 H 0.4532 0.1942 0.6194
C18 C 0.3735(7) 0.1452(3) 0.5919(3)
C19 C 0.4222(6) 0.1209(3) 0.5616(3)
H16 H 0.4807 0.1207 0.5663
C20 C 0.3913(9) 0.0974(4) 0.5256(4)
H17 H 0.4275 0.0828 0.5042
C21 C 0.3040(10) 0.0947(4) 0.5201(4)
H18 H 0.2807 0.0770 0.4958
C22 C 0.2522(8) 0.1184(5) 0.5507(4)
H19 H 0.1934 0.1163 0.5476
C23 C 0.2865(7) 0.1448(3) 0.5857(4)
H20 H 0.2516 0.1627 0.6054
C24 C 0.3261(7) 0.3497(4) 0.5885(4)
C25 C 0.3584(9) 0.3791(5) 0.5134(4)
H21 H 0.3323 0.4092 0.5204
H22 H 0.3471 0.3708 0.4813
H23 H 0.4187 0.3814 0.5181
C26 C 0.2046(8) 0.3013(4) 0.5944(3)
C27 C 0.1222(10) 0.2436(6) 0.5539(5)
H24 H 0.0955 0.2206 0.5739
H25 H 0.1330 0.2296 0.5238
H26 H 0.0853 0.2706 0.5502
C28 C 0.1440(5) 0.3800(3) 0.7911(3)
C29 C 0.0714(6) 0.4064(3) 0.8010(4)
H27 H 0.0236 0.4029 0.7821
C30 C 0.0688(6) 0.4373(3) 0.8379(3)
H28 H 0.0192 0.4544 0.8437
C31 C 0.1358(7) 0.4436(3) 0.8656(3)
C32 C 0.2080(7) 0.4195(3) 0.8592(3)
H29 H 0.2545 0.4240 0.8789
C33 C 0.2113(6) 0.3873(3) 0.8218(3)
H30 H 0.2610 0.3699 0.8173
Br1 Br 0.86779(9) 0.51121(4) 0.91360(4)
N1 N 0.6436(4) 0.8051(2) 0.6650(2)
O1 O 0.9125(5) 0.6504(3) 0.7226(3)
O2 O 0.6428(7) 0.6157(3) 0.6047(3)
O3 O 0.6766(6) 0.6575(3) 0.5444(2)
O4 O 0.8548(5) 0.6749(3) 0.5943(3)
O5 O 0.7978(5) 0.7411(3) 0.5747(3)
C1 C 0.8563(6) 0.6523(3) 0.7510(3)
C2 C 0.7860(6) 0.6881(3) 0.7473(3)
H1 H 0.7976 0.7144 0.7684
H2 H 0.7330 0.6734 0.7571
C3 C 0.7764(6) 0.7070(3) 0.6972(3)
H3 H 0.8333 0.7127 0.6843
C4 C 0.7315(6) 0.6706(3) 0.6666(3)
H4 H 0.6777 0.6622 0.6811
H5 H 0.7660 0.6420 0.6650
C5 C 0.7146(6) 0.6884(3) 0.6165(3)
C6 C 0.6521(6) 0.7291(3) 0.6185(3)
H6 H 0.5950 0.7168 0.6230
H7 H 0.6533 0.7465 0.5891
C7 C 0.6751(6) 0.7621(3) 0.6586(3)
C8 C 0.7265(6) 0.7526(3) 0.6951(3)
C9 C 0.7246(6) 0.7905(3) 0.7245(3)
H8 H 0.7537 0.7928 0.7528
C10 C 0.6748(6) 0.8237(3) 0.7063(3)
C11 C 0.6534(5) 0.8698(3) 0.7245(3)
C12 C 0.6259(7) 0.8751(3) 0.7700(3)
H9 H 0.6190 0.8480 0.7884
C13 C 0.6084(8) 0.9184(4) 0.7892(4)
H10 H 0.5887 0.9209 0.8198
C14 C 0.6200(9) 0.9562(4) 0.7635(4)
H11 H 0.6103 0.9859 0.7768
C15 C 0.6456(9) 0.9539(4) 0.7183(5)
H12 H 0.6510 0.9817 0.7008
C16 C 0.6636(7) 0.9110(3) 0.6984(4)
H13 H 0.6825 0.9094 0.6675
C17 C 0.5857(6) 0.8293(3) 0.6321(3)
H14 H 0.5521 0.8522 0.6497
H15 H 0.5468 0.8058 0.6194
C18 C 0.6265(7) 0.8548(3) 0.5919(3)
C19 C 0.5778(6) 0.8791(3) 0.5616(3)
H16 H 0.5193 0.8793 0.5663
C20 C 0.6087(9) 0.9026(4) 0.5256(4)
H17 H 0.5725 0.9172 0.5042
C21 C 0.6960(10) 0.9053(4) 0.5201(4)
H18 H 0.7193 0.9230 0.4958
C22 C 0.7478(8) 0.8816(5) 0.5507(4)
H19 H 0.8066 0.8837 0.5476
C23 C 0.7135(7) 0.8552(3) 0.5857(4)
H20 H 0.7484 0.8373 0.6054
C24 C 0.6739(7) 0.6503(4) 0.5885(4)
C25 C 0.6416(9) 0.6209(5) 0.5134(4)
H21 H 0.6677 0.5908 0.5204
H22 H 0.6529 0.6292 0.4813
H23 H 0.5813 0.6186 0.5181
C26 C 0.7954(8) 0.6987(4) 0.5944(3)
C27 C 0.8778(10) 0.7564(6) 0.5539(5)
H24 H 0.9045 0.7794 0.5739
H25 H 0.8670 0.7704 0.5238
H26 H 0.9147 0.7294 0.5502
C28 C 0.8560(5) 0.6200(3) 0.7911(3)
C29 C 0.9286(6) 0.5936(3) 0.8010(4)
H27 H 0.9764 0.5971 0.7821
C30 C 0.9312(6) 0.5627(3) 0.8379(3)
H28 H 0.9808 0.5456 0.8437
C31 C 0.8642(7) 0.5564(3) 0.8656(3)
C32 C 0.7920(7) 0.5805(3) 0.8592(3)
H29 H 0.7455 0.5760 0.8789
C33 C 0.7887(6) 0.6127(3) 0.8218(3)
H30 H 0.7390 0.6301 0.8173
Br1 Br 0.63221(9) 0.01121(4) 0.58640(4)
N1 N 0.8564(4) 0.3051(2) 0.8350(2)
O1 O 0.5875(5) 0.1504(3) 0.7774(3)
O2 O 0.8572(7) 0.1157(3) 0.8953(3)
O3 O 0.8234(6) 0.1575(3) 0.9556(2)
O4 O 0.6452(5) 0.1749(3) 0.9057(3)
O5 O 0.7022(5) 0.2411(3) 0.9253(3)
C1 C 0.6437(6) 0.1523(3) 0.7490(3)
C2 C 0.7140(6) 0.1881(3) 0.7527(3)
H1 H 0.7024 0.2144 0.7316
H2 H 0.7670 0.1734 0.7429
C3 C 0.7236(6) 0.2070(3) 0.8028(3)
H3 H 0.6667 0.2127 0.8157
C4 C 0.7685(6) 0.1706(3) 0.8334(3)
H4 H 0.8223 0.1622 0.8189
H5 H 0.7340 0.1420 0.8350
C5 C 0.7854(6) 0.1884(3) 0.8835(3)
C6 C 0.8479(6) 0.2291(3) 0.8815(3)
H6 H 0.9050 0.2168 0.8770
H7 H 0.8467 0.2465 0.9109
C7 C 0.8249(6) 0.2621(3) 0.8414(3)
C8 C 0.7735(6) 0.2526(3) 0.8049(3)
C9 C 0.7754(6) 0.2905(3) 0.7755(3)
H8 H 0.7463 0.2928 0.7472
C10 C 0.8252(6) 0.3237(3) 0.7937(3)
C11 C 0.8466(5) 0.3698(3) 0.7755(3)
C12 C 0.8741(7) 0.3751(3) 0.7300(3)
H9 H 0.8810 0.3480 0.7116
C13 C 0.8916(8) 0.4184(4) 0.7108(4)
H10 H 0.9113 0.4209 0.6802
C14 C 0.8800(9) 0.4562(4) 0.7365(4)
H11 H 0.8897 0.4859 0.7232
C15 C 0.8544(9) 0.4539(4) 0.7817(5)
H12 H 0.8490 0.4817 0.7992
C16 C 0.8364(7) 0.4110(3) 0.8016(4)
H13 H 0.8175 0.4094 0.8325
C17 C 0.9143(6) 0.3293(3) 0.8679(3)
H14 H 0.9479 0.3522 0.8503
H15 H 0.9532 0.3058 0.8806
C18 C 0.8735(7) 0.3548(3) 0.9081(3)
C19 C 0.9222(6) 0.3791(3) 0.9384(3)
H16 H 0.9807 0.3793 0.9337
C20 C 0.8913(9) 0.4026(4) 0.9744(4)
H17 H 0.9275 0.4172 0.9958
C21 C 0.8040(10) 0.4053(4) 0.9799(4)
H18 H 0.7807 0.4230 1.0042
C22 C 0.7522(8) 0.3816(5) 0.9493(4)
H19 H 0.6934 0.3837 0.9524
C23 C 0.7865(7) 0.3552(3) 0.9143(4)
H20 H 0.7516 0.3373 0.8946
C24 C 0.8261(7) 0.1503(4) 0.9115(4)
C25 C 0.8584(9) 0.1209(5) 0.9866(4)
H21 H 0.8323 0.0908 0.9796
H22 H 0.8471 0.1292 1.0187
H23 H 0.9187 0.1186 0.9819
C26 C 0.7046(8) 0.1987(4) 0.9056(3)
C27 C 0.6222(10) 0.2564(6) 0.9461(5)
H24 H 0.5955 0.2794 0.9261
H25 H 0.6330 0.2704 0.9762
H26 H 0.5853 0.2294 0.9498
C28 C 0.6440(5) 0.1200(3) 0.7089(3)
C29 C 0.5714(6) 0.0936(3) 0.6990(4)
H27 H 0.5236 0.0971 0.7179
C30 C 0.5688(6) 0.0627(3) 0.6621(3)
H28 H 0.5192 0.0456 0.6563
C31 C 0.6358(7) 0.0564(3) 0.6344(3)
C32 C 0.7080(7) 0.0805(3) 0.6408(3)
H29 H 0.7545 0.0760 0.6211
C33 C 0.7113(6) 0.1127(3) 0.6782(3)
H30 H 0.7610 0.1301 0.6827
Br1 Br 0.36779(9) 0.98879(4) 0.58640(4)
N1 N 0.1436(4) 0.6949(2) 0.8350(2)
O1 O 0.4125(5) 0.8496(3) 0.7774(3)
O2 O 0.1428(7) 0.8843(3) 0.8953(3)
O3 O 0.1766(6) 0.8425(3) 0.9556(2)
O4 O 0.3548(5) 0.8251(3) 0.9057(3)
O5 O 0.2978(5) 0.7589(3) 0.9253(3)
C1 C 0.3563(6) 0.8477(3) 0.7490(3)
C2 C 0.2860(6) 0.8119(3) 0.7527(3)
H1 H 0.2976 0.7856 0.7316
H2 H 0.2330 0.8266 0.7429
C3 C 0.2764(6) 0.7930(3) 0.8028(3)
H3 H 0.3333 0.7873 0.8157
C4 C 0.2315(6) 0.8294(3) 0.8334(3)
H4 H 0.1777 0.8378 0.8189
H5 H 0.2660 0.8580 0.8350
C5 C 0.2146(6) 0.8116(3) 0.8835(3)
C6 C 0.1521(6) 0.7709(3) 0.8815(3)
H6 H 0.0950 0.7832 0.8770
H7 H 0.1533 0.7535 0.9109
C7 C 0.1751(6) 0.7379(3) 0.8414(3)
C8 C 0.2265(6) 0.7474(3) 0.8049(3)
C9 C 0.2246(6) 0.7095(3) 0.7755(3)
H8 H 0.2537 0.7072 0.7472
C10 C 0.1748(6) 0.6763(3) 0.7937(3)
C11 C 0.1534(5) 0.6302(3) 0.7755(3)
C12 C 0.1259(7) 0.6249(3) 0.7300(3)
H9 H 0.1190 0.6520 0.7116
C13 C 0.1084(8) 0.5816(4) 0.7108(4)
H10 H 0.0887 0.5791 0.6802
C14 C 0.1200(9) 0.5438(4) 0.7365(4)
H11 H 0.1103 0.5141 0.7232
C15 C 0.1456(9) 0.5461(4) 0.7817(5)
H12 H 0.1510 0.5183 0.7992
C16 C 0.1636(7) 0.5890(3) 0.8016(4)
H13 H 0.1825 0.5906 0.8325
C17 C 0.0857(6) 0.6707(3) 0.8679(3)
H14 H 0.0521 0.6478 0.8503
H15 H 0.0468 0.6942 0.8806
C18 C 0.1265(7) 0.6452(3) 0.9081(3)
C19 C 0.0778(6) 0.6209(3) 0.9384(3)
H16 H 0.0193 0.6207 0.9337
C20 C 0.1087(9) 0.5974(4) 0.9744(4)
H17 H 0.0725 0.5828 0.9958
C21 C 0.1960(10) 0.5947(4) 0.9799(4)
H18 H 0.2193 0.5770 1.0042
C22 C 0.2478(8) 0.6184(5) 0.9493(4)
H19 H 0.3066 0.6163 0.9524
C23 C 0.2135(7) 0.6448(3) 0.9143(4)
H20 H 0.2484 0.6627 0.8946
C24 C 0.1739(7) 0.8497(4) 0.9115(4)
C25 C 0.1416(9) 0.8791(5) 0.9866(4)
H21 H 0.1677 0.9092 0.9796
H22 H 0.1529 0.8708 1.0187
H23 H 0.0813 0.8814 0.9819
C26 C 0.2954(8) 0.8013(4) 0.9056(3)
C27 C 0.3778(10) 0.7436(6) 0.9461(5)
H24 H 0.4045 0.7206 0.9261
H25 H 0.3670 0.7296 0.9762
H26 H 0.4147 0.7706 0.9498
C28 C 0.3560(5) 0.8800(3) 0.7089(3)
C29 C 0.4286(6) 0.9064(3) 0.6990(4)
H27 H 0.4764 0.9029 0.7179
C30 C 0.4312(6) 0.9373(3) 0.6621(3)
H28 H 0.4808 0.9544 0.6563
C31 C 0.3642(7) 0.9436(3) 0.6344(3)
C32 C 0.2920(7) 0.9195(3) 0.6408(3)
H29 H 0.2455 0.9240 0.6211
C33 C 0.2887(6) 0.8873(3) 0.6782(3)
H30 H 0.2390 0.8699 0.6827
Br1 Br 0.63221(9) 0.98879(4) 0.41360(4)
N1 N 0.8564(4) 0.6949(2) 0.1650(2)
O1 O 0.5875(5) 0.8496(3) 0.2226(3)
O2 O 0.8572(7) 0.8843(3) 0.1047(3)
O3 O 0.8234(6) 0.8425(3) 0.0444(2)
O4 O 0.6452(5) 0.8251(3) 0.0943(3)
O5 O 0.7022(5) 0.7589(3) 0.0747(3)
C1 C 0.6437(6) 0.8477(3) 0.2510(3)
C2 C 0.7140(6) 0.8119(3) 0.2473(3)
H1 H 0.7024 0.7856 0.2684
H2 H 0.7670 0.8266 0.2571
C3 C 0.7236(6) 0.7930(3) 0.1972(3)
H3 H 0.6667 0.7873 0.1843
C4 C 0.7685(6) 0.8294(3) 0.1666(3)
H4 H 0.8223 0.8378 0.1811
H5 H 0.7340 0.8580 0.1650
C5 C 0.7854(6) 0.8116(3) 0.1165(3)
C6 C 0.8479(6) 0.7709(3) 0.1185(3)
H6 H 0.9050 0.7832 0.1230
H7 H 0.8467 0.7535 0.0891
C7 C 0.8249(6) 0.7379(3) 0.1586(3)
C8 C 0.7735(6) 0.7474(3) 0.1951(3)
C9 C 0.7754(6) 0.7095(3) 0.2245(3)
H8 H 0.7463 0.7072 0.2528
C10 C 0.8252(6) 0.6763(3) 0.2063(3)
C11 C 0.8466(5) 0.6302(3) 0.2245(3)
C12 C 0.8741(7) 0.6249(3) 0.2700(3)
H9 H 0.8810 0.6520 0.2884
C13 C 0.8916(8) 0.5816(4) 0.2892(4)
H10 H 0.9113 0.5791 0.3198
C14 C 0.8800(9) 0.5438(4) 0.2635(4)
H11 H 0.8897 0.5141 0.2768
C15 C 0.8544(9) 0.5461(4) 0.2183(5)
H12 H 0.8490 0.5183 0.2008
C16 C 0.8364(7) 0.5890(3) 0.1984(4)
H13 H 0.8175 0.5906 0.1675
C17 C 0.9143(6) 0.6707(3) 0.1321(3)
H14 H 0.9479 0.6478 0.1497
H15 H 0.9532 0.6942 0.1194
C18 C 0.8735(7) 0.6452(3) 0.0919(3)
C19 C 0.9222(6) 0.6209(3) 0.0616(3)
H16 H 0.9807 0.6207 0.0663
C20 C 0.8913(9) 0.5974(4) 0.0256(4)
H17 H 0.9275 0.5828 0.0042
C21 C 0.8040(10) 0.5947(4) 0.0201(4)
H18 H 0.7807 0.5770 -0.0042
C22 C 0.7522(8) 0.6184(5) 0.0507(4)
H19 H 0.6934 0.6163 0.0476
C23 C 0.7865(7) 0.6448(3) 0.0857(4)
H20 H 0.7516 0.6627 0.1054
C24 C 0.8261(7) 0.8497(4) 0.0885(4)
C25 C 0.8584(9) 0.8791(5) 0.0134(4)
H21 H 0.8323 0.9092 0.0204
H22 H 0.8471 0.8708 -0.0187
H23 H 0.9187 0.8814 0.0181
C26 C 0.7046(8) 0.8013(4) 0.0944(3)
C27 C 0.6222(10) 0.7436(6) 0.0539(5)
H24 H 0.5955 0.7206 0.0739
H25 H 0.6330 0.7296 0.0238
H26 H 0.5853 0.7706 0.0502
C28 C 0.6440(5) 0.8800(3) 0.2911(3)
C29 C 0.5714(6) 0.9064(3) 0.3010(4)
H27 H 0.5236 0.9029 0.2821
C30 C 0.5688(6) 0.9373(3) 0.3379(3)
H28 H 0.5192 0.9544 0.3437
C31 C 0.6358(7) 0.9436(3) 0.3656(3)
C32 C 0.7080(7) 0.9195(3) 0.3592(3)
H29 H 0.7545 0.9240 0.3789
C33 C 0.7113(6) 0.8873(3) 0.3218(3)
H30 H 0.7610 0.8699 0.3173
Br1 Br 0.36779(9) 0.01121(4) 0.41360(4)
N1 N 0.1436(4) 0.3051(2) 0.1650(2)
O1 O 0.4125(5) 0.1504(3) 0.2226(3)
O2 O 0.1428(7) 0.1157(3) 0.1047(3)
O3 O 0.1766(6) 0.1575(3) 0.0444(2)
O4 O 0.3548(5) 0.1749(3) 0.0943(3)
O5 O 0.2978(5) 0.2411(3) 0.0747(3)
C1 C 0.3563(6) 0.1523(3) 0.2510(3)
C2 C 0.2860(6) 0.1881(3) 0.2473(3)
H1 H 0.2976 0.2144 0.2684
H2 H 0.2330 0.1734 0.2571
C3 C 0.2764(6) 0.2070(3) 0.1972(3)
H3 H 0.3333 0.2127 0.1843
C4 C 0.2315(6) 0.1706(3) 0.1666(3)
H4 H 0.1777 0.1622 0.1811
H5 H 0.2660 0.1420 0.1650
C5 C 0.2146(6) 0.1884(3) 0.1165(3)
C6 C 0.1521(6) 0.2291(3) 0.1185(3)
H6 H 0.0950 0.2168 0.1230
H7 H 0.1533 0.2465 0.0891
C7 C 0.1751(6) 0.2621(3) 0.1586(3)
C8 C 0.2265(6) 0.2526(3) 0.1951(3)
C9 C 0.2246(6) 0.2905(3) 0.2245(3)
H8 H 0.2537 0.2928 0.2528
C10 C 0.1748(6) 0.3237(3) 0.2063(3)
C11 C 0.1534(5) 0.3698(3) 0.2245(3)
C12 C 0.1259(7) 0.3751(3) 0.2700(3)
H9 H 0.1190 0.3480 0.2884
C13 C 0.1084(8) 0.4184(4) 0.2892(4)
H10 H 0.0887 0.4209 0.3198
C14 C 0.1200(9) 0.4562(4) 0.2635(4)
H11 H 0.1103 0.4859 0.2768
C15 C 0.1456(9) 0.4539(4) 0.2183(5)
H12 H 0.1510 0.4817 0.2008
C16 C 0.1636(7) 0.4110(3) 0.1984(4)
H13 H 0.1825 0.4094 0.1675
C17 C 0.0857(6) 0.3293(3) 0.1321(3)
H14 H 0.0521 0.3522 0.1497
H15 H 0.0468 0.3058 0.1194
C18 C 0.1265(7) 0.3548(3) 0.0919(3)
C19 C 0.0778(6) 0.3791(3) 0.0616(3)
H16 H 0.0193 0.3793 0.0663
C20 C 0.1087(9) 0.4026(4) 0.0256(4)
H17 H 0.0725 0.4172 0.0042
C21 C 0.1960(10) 0.4053(4) 0.0201(4)
H18 H 0.2193 0.4230 -0.0042
C22 C 0.2478(8) 0.3816(5) 0.0507(4)
H19 H 0.3066 0.3837 0.0476
C23 C 0.2135(7) 0.3552(3) 0.0857(4)
H20 H 0.2484 0.3373 0.1054
C24 C 0.1739(7) 0.1503(4) 0.0885(4)
C25 C 0.1416(9) 0.1209(5) 0.0134(4)
H21 H 0.1677 0.0908 0.0204
H22 H 0.1529 0.1292 -0.0187
H23 H 0.0813 0.1186 0.0181
C26 C 0.2954(8) 0.1987(4) 0.0944(3)
C27 C 0.3778(10) 0.2564(6) 0.0539(5)
H24 H 0.4045 0.2794 0.0739
H25 H 0.3670 0.2704 0.0238
H26 H 0.4147 0.2294 0.0502
C28 C 0.3560(5) 0.1200(3) 0.2911(3)
C29 C 0.4286(6) 0.0936(3) 0.3010(4)
H27 H 0.4764 0.0971 0.2821
C30 C 0.4312(6) 0.0627(3) 0.3379(3)
H28 H 0.4808 0.0456 0.3437
C31 C 0.3642(7) 0.0564(3) 0.3656(3)
C32 C 0.2920(7) 0.0805(3) 0.3592(3)
H29 H 0.2455 0.0760 0.3789
C33 C 0.2887(6) 0.1127(3) 0.3218(3)
H30 H 0.2390 0.1301 0.3173
Br2 Br 0.37895(9) 0.89430(5) 0.01070(4)
N2 N 0.6182(5) 0.6760(2) 0.3225(2)
O6 O 0.3469(5) 0.7103(3) 0.1610(2)
O7 O 0.4032(8) 0.5919(4) 0.2138(6)
O8 O 0.4727(5) 0.5690(4) 0.2729(3)
O9 O 0.5941(11) 0.5920(5) 0.1407(5)
O10 O 0.6061(8) 0.5436(3) 0.1925(3)
C34 C 0.4007(7) 0.7410(4) 0.1612(3)
C35 C 0.4674(6) 0.7413(3) 0.1986(3)
H31 H 0.5216 0.7495 0.1844
H32 H 0.4537 0.7660 0.2212
C36 C 0.4761(6) 0.6955(3) 0.2234(3)
H33 H 0.4191 0.6840 0.2315
C37 C 0.5184(7) 0.6588(4) 0.1901(3)
H34 H 0.4792 0.6509 0.1650
H35 H 0.5688 0.6728 0.1761
C38 C 0.5432(7) 0.6134(3) 0.2160(3)
C39 C 0.6081(6) 0.6226(3) 0.2532(3)
H36 H 0.6128 0.5950 0.2734
H37 H 0.6632 0.6281 0.2388
C40 C 0.5840(6) 0.6638(3) 0.2807(3)
C41 C 0.5279(6) 0.6978(3) 0.2673(3)
C42 C 0.5321(6) 0.7324(3) 0.3028(3)
H38 H 0.5018 0.7608 0.3029
C43 C 0.5856(6) 0.7187(3) 0.3363(3)
C44 C 0.6046(6) 0.7397(3) 0.3827(3)
C45 C 0.6328(7) 0.7866(3) 0.3840(3)
H39 H 0.6431 0.8027 0.3561
C46 C 0.6453(7) 0.8093(3) 0.4253(3)
H40 H 0.6614 0.8412 0.4250
C47 C 0.6353(8) 0.7870(4) 0.4671(3)
H41 H 0.6457 0.8027 0.4952
C48 C 0.6103(9) 0.7423(4) 0.4664(3)
H42 H 0.6029 0.7259 0.4945
C49 C 0.5949(7) 0.7197(3) 0.4241(3)
H43 H 0.5764 0.6883 0.4249
C50 C 0.6842(6) 0.6505(3) 0.3455(3)
H44 H 0.7131 0.6720 0.3668
H45 H 0.7252 0.6404 0.3221
C51 C 0.6562(6) 0.6077(3) 0.3725(3)
C52 C 0.7163(8) 0.5781(4) 0.3907(4)
H46 H 0.7735 0.5838 0.3845
C53 C 0.6938(10) 0.5406(4) 0.4177(6)
H47 H 0.7364 0.5212 0.4299
C54 C 0.6137(12) 0.5303(4) 0.4274(4)
H48 H 0.6000 0.5048 0.4468
C55 C 0.5512(10) 0.5582(4) 0.4082(4)
H49 H 0.4943 0.5508 0.4132
C56 C 0.5738(8) 0.5989(4) 0.3802(4)
H50 H 0.5320 0.6187 0.3678
C57 C 0.4672(9) 0.5909(4) 0.2329(6)
C58 C 0.3985(10) 0.5434(5) 0.2918(5)
H51 H 0.3589 0.5371 0.2669
H52 H 0.3715 0.5625 0.3154
H53 H 0.4168 0.5139 0.3054
C59 C 0.5809(11) 0.5804(6) 0.1796(5)
C60 C 0.6482(11) 0.5132(5) 0.1600(6)
H54 H 0.6067 0.4973 0.1410
H55 H 0.6811 0.4900 0.1768
H56 H 0.6851 0.5318 0.1404
C61 C 0.3974(6) 0.7779(3) 0.1253(3)
C62 C 0.3376(6) 0.7757(4) 0.0902(3)
H57 H 0.2995 0.7504 0.0896
C63 C 0.3327(7) 0.8101(4) 0.0558(3)
H58 H 0.2916 0.8081 0.0324
C64 C 0.3887(7) 0.8470(4) 0.0566(3)
C65 C 0.4476(7) 0.8494(4) 0.0906(4)
H59 H 0.4865 0.8744 0.0903
C66 C 0.4523(7) 0.8165(3) 0.1255(3)
H60 H 0.4922 0.8199 0.1494
Br2 Br 0.62105(9) 0.10570(5) 0.01070(4)
N2 N 0.3818(5) 0.3240(2) 0.3225(2)
O6 O 0.6531(5) 0.2897(3) 0.1610(2)
O7 O 0.5968(8) 0.4081(4) 0.2138(6)
O8 O 0.5273(5) 0.4310(4) 0.2729(3)
O9 O 0.4059(11) 0.4080(5) 0.1407(5)
O10 O 0.3939(8) 0.4564(3) 0.1925(3)
C34 C 0.5993(7) 0.2590(4) 0.1612(3)
C35 C 0.5326(6) 0.2587(3) 0.1986(3)
H31 H 0.4784 0.2505 0.1844
H32 H 0.5463 0.2340 0.2212
C36 C 0.5239(6) 0.3045(3) 0.2234(3)
H33 H 0.5809 0.3160 0.2315
C37 C 0.4816(7) 0.3412(4) 0.1901(3)
H34 H 0.5208 0.3491 0.1650
H35 H 0.4312 0.3272 0.1761
C38 C 0.4568(7) 0.3866(3) 0.2160(3)
C39 C 0.3919(6) 0.3774(3) 0.2532(3)
H36 H 0.3872 0.4050 0.2734
H37 H 0.3368 0.3719 0.2388
C40 C 0.4160(6) 0.3362(3) 0.2807(3)
C41 C 0.4721(6) 0.3022(3) 0.2673(3)
C42 C 0.4679(6) 0.2676(3) 0.3028(3)
H38 H 0.4982 0.2392 0.3029
C43 C 0.4144(6) 0.2813(3) 0.3363(3)
C44 C 0.3954(6) 0.2603(3) 0.3827(3)
C45 C 0.3672(7) 0.2134(3) 0.3840(3)
H39 H 0.3569 0.1973 0.3561
C46 C 0.3547(7) 0.1907(3) 0.4253(3)
H40 H 0.3386 0.1588 0.4250
C47 C 0.3647(8) 0.2130(4) 0.4671(3)
H41 H 0.3543 0.1973 0.4952
C48 C 0.3897(9) 0.2577(4) 0.4664(3)
H42 H 0.3971 0.2741 0.4945
C49 C 0.4051(7) 0.2803(3) 0.4241(3)
H43 H 0.4236 0.3117 0.4249
C50 C 0.3158(6) 0.3495(3) 0.3455(3)
H44 H 0.2869 0.3280 0.3668
H45 H 0.2748 0.3596 0.3221
C51 C 0.3438(6) 0.3923(3) 0.3725(3)
C52 C 0.2837(8) 0.4219(4) 0.3907(4)
H46 H 0.2265 0.4162 0.3845
C53 C 0.3062(10) 0.4594(4) 0.4177(6)
H47 H 0.2636 0.4788 0.4299
C54 C 0.3863(12) 0.4697(4) 0.4274(4)
H48 H 0.4000 0.4952 0.4468
C55 C 0.4488(10) 0.4418(4) 0.4082(4)
H49 H 0.5057 0.4492 0.4132
C56 C 0.4262(8) 0.4011(4) 0.3802(4)
H50 H 0.4680 0.3813 0.3678
C57 C 0.5328(9) 0.4091(4) 0.2329(6)
C58 C 0.6015(10) 0.4566(5) 0.2918(5)
H51 H 0.6411 0.4629 0.2669
H52 H 0.6285 0.4375 0.3154
H53 H 0.5832 0.4861 0.3054
C59 C 0.4191(11) 0.4196(6) 0.1796(5)
C60 C 0.3518(11) 0.4868(5) 0.1600(6)
H54 H 0.3933 0.5027 0.1410
H55 H 0.3189 0.5100 0.1768
H56 H 0.3149 0.4682 0.1404
C61 C 0.6026(6) 0.2221(3) 0.1253(3)
C62 C 0.6624(6) 0.2243(4) 0.0902(3)
H57 H 0.7005 0.2496 0.0896
C63 C 0.6673(7) 0.1899(4) 0.0558(3)
H58 H 0.7084 0.1919 0.0324
C64 C 0.6113(7) 0.1530(4) 0.0566(3)
C65 C 0.5524(7) 0.1506(4) 0.0906(4)
H59 H 0.5135 0.1256 0.0903
C66 C 0.5477(7) 0.1835(3) 0.1255(3)
H60 H 0.5078 0.1801 0.1494
Br2 Br 0.37895(9) 0.10570(5) 0.98930(4)
N2 N 0.6182(5) 0.3240(2) 0.6775(2)
O6 O 0.3469(5) 0.2897(3) 0.8390(2)
O7 O 0.4032(8) 0.4081(4) 0.7862(6)
O8 O 0.4727(5) 0.4310(4) 0.7271(3)
O9 O 0.5941(11) 0.4080(5) 0.8593(5)
O10 O 0.6061(8) 0.4564(3) 0.8075(3)
C34 C 0.4007(7) 0.2590(4) 0.8388(3)
C35 C 0.4674(6) 0.2587(3) 0.8014(3)
H31 H 0.5216 0.2505 0.8156
H32 H 0.4537 0.2340 0.7788
C36 C 0.4761(6) 0.3045(3) 0.7766(3)
H33 H 0.4191 0.3160 0.7685
C37 C 0.5184(7) 0.3412(4) 0.8099(3)
H34 H 0.4792 0.3491 0.8350
H35 H 0.5688 0.3272 0.8239
C38 C 0.5432(7) 0.3866(3) 0.7840(3)
C39 C 0.6081(6) 0.3774(3) 0.7468(3)
H36 H 0.6128 0.4050 0.7266
H37 H 0.6632 0.3719 0.7612
C40 C 0.5840(6) 0.3362(3) 0.7193(3)
C41 C 0.5279(6) 0.3022(3) 0.7327(3)
C42 C 0.5321(6) 0.2676(3) 0.6972(3)
H38 H 0.5018 0.2392 0.6971
C43 C 0.5856(6) 0.2813(3) 0.6637(3)
C44 C 0.6046(6) 0.2603(3) 0.6173(3)
C45 C 0.6328(7) 0.2134(3) 0.6160(3)
H39 H 0.6431 0.1973 0.6439
C46 C 0.6453(7) 0.1907(3) 0.5747(3)
H40 H 0.6614 0.1588 0.5750
C47 C 0.6353(8) 0.2130(4) 0.5329(3)
H41 H 0.6457 0.1973 0.5048
C48 C 0.6103(9) 0.2577(4) 0.5336(3)
H42 H 0.6029 0.2741 0.5055
C49 C 0.5949(7) 0.2803(3) 0.5759(3)
H43 H 0.5764 0.3117 0.5751
C50 C 0.6842(6) 0.3495(3) 0.6545(3)
H44 H 0.7131 0.3280 0.6332
H45 H 0.7252 0.3596 0.6779
C51 C 0.6562(6) 0.3923(3) 0.6275(3)
C52 C 0.7163(8) 0.4219(4) 0.6093(4)
H46 H 0.7735 0.4162 0.6155
C53 C 0.6938(10) 0.4594(4) 0.5823(6)
H47 H 0.7364 0.4788 0.5701
C54 C 0.6137(12) 0.4697(4) 0.5726(4)
H48 H 0.6000 0.4952 0.5532
C55 C 0.5512(10) 0.4418(4) 0.5918(4)
H49 H 0.4943 0.4492 0.5868
C56 C 0.5738(8) 0.4011(4) 0.6198(4)
H50 H 0.5320 0.3813 0.6322
C57 C 0.4672(9) 0.4091(4) 0.7671(6)
C58 C 0.3985(10) 0.4566(5) 0.7082(5)
H51 H 0.3589 0.4629 0.7331
H52 H 0.3715 0.4375 0.6846
H53 H 0.4168 0.4861 0.6946
C59 C 0.5809(11) 0.4196(6) 0.8204(5)
C60 C 0.6482(11) 0.4868(5) 0.8400(6)
H54 H 0.6067 0.5027 0.8590
H55 H 0.6811 0.5100 0.8232
H56 H 0.6851 0.4682 0.8596
C61 C 0.3974(6) 0.2221(3) 0.8747(3)
C62 C 0.3376(6) 0.2243(4) 0.9098(3)
H57 H 0.2995 0.2496 0.9104
C63 C 0.3327(7) 0.1899(4) 0.9442(3)
H58 H 0.2916 0.1919 0.9676
C64 C 0.3887(7) 0.1530(4) 0.9434(3)
C65 C 0.4476(7) 0.1506(4) 0.9094(4)
H59 H 0.4865 0.1256 0.9097
C66 C 0.4523(7) 0.1835(3) 0.8745(3)
H60 H 0.4922 0.1801 0.8506
Br2 Br 0.62105(9) 0.89430(5) 0.98930(4)
N2 N 0.3818(5) 0.6760(2) 0.6775(2)
O6 O 0.6531(5) 0.7103(3) 0.8390(2)
O7 O 0.5968(8) 0.5919(4) 0.7862(6)
O8 O 0.5273(5) 0.5690(4) 0.7271(3)
O9 O 0.4059(11) 0.5920(5) 0.8593(5)
O10 O 0.3939(8) 0.5436(3) 0.8075(3)
C34 C 0.5993(7) 0.7410(4) 0.8388(3)
C35 C 0.5326(6) 0.7413(3) 0.8014(3)
H31 H 0.4784 0.7495 0.8156
H32 H 0.5463 0.7660 0.7788
C36 C 0.5239(6) 0.6955(3) 0.7766(3)
H33 H 0.5809 0.6840 0.7685
C37 C 0.4816(7) 0.6588(4) 0.8099(3)
H34 H 0.5208 0.6509 0.8350
H35 H 0.4312 0.6728 0.8239
C38 C 0.4568(7) 0.6134(3) 0.7840(3)
C39 C 0.3919(6) 0.6226(3) 0.7468(3)
H36 H 0.3872 0.5950 0.7266
H37 H 0.3368 0.6281 0.7612
C40 C 0.4160(6) 0.6638(3) 0.7193(3)
C41 C 0.4721(6) 0.6978(3) 0.7327(3)
C42 C 0.4679(6) 0.7324(3) 0.6972(3)
H38 H 0.4982 0.7608 0.6971
C43 C 0.4144(6) 0.7187(3) 0.6637(3)
C44 C 0.3954(6) 0.7397(3) 0.6173(3)
C45 C 0.3672(7) 0.7866(3) 0.6160(3)
H39 H 0.3569 0.8027 0.6439
C46 C 0.3547(7) 0.8093(3) 0.5747(3)
H40 H 0.3386 0.8412 0.5750
C47 C 0.3647(8) 0.7870(4) 0.5329(3)
H41 H 0.3543 0.8027 0.5048
C48 C 0.3897(9) 0.7423(4) 0.5336(3)
H42 H 0.3971 0.7259 0.5055
C49 C 0.4051(7) 0.7197(3) 0.5759(3)
H43 H 0.4236 0.6883 0.5751
C50 C 0.3158(6) 0.6505(3) 0.6545(3)
H44 H 0.2869 0.6720 0.6332
H45 H 0.2748 0.6404 0.6779
C51 C 0.3438(6) 0.6077(3) 0.6275(3)
C52 C 0.2837(8) 0.5781(4) 0.6093(4)
H46 H 0.2265 0.5838 0.6155
C53 C 0.3062(10) 0.5406(4) 0.5823(6)
H47 H 0.2636 0.5212 0.5701
C54 C 0.3863(12) 0.5303(4) 0.5726(4)
H48 H 0.4000 0.5048 0.5532
C55 C 0.4488(10) 0.5582(4) 0.5918(4)
H49 H 0.5057 0.5508 0.5868
C56 C 0.4262(8) 0.5989(4) 0.6198(4)
H50 H 0.4680 0.6187 0.6322
C57 C 0.5328(9) 0.5909(4) 0.7671(6)
C58 C 0.6015(10) 0.5434(5) 0.7082(5)
H51 H 0.6411 0.5371 0.7331
H52 H 0.6285 0.5625 0.6846
H53 H 0.5832 0.5139 0.6946
C59 C 0.4191(11) 0.5804(6) 0.8204(5)
C60 C 0.3518(11) 0.5132(5) 0.8400(6)
H54 H 0.3933 0.4973 0.8590
H55 H 0.3189 0.4900 0.8232
H56 H 0.3149 0.5318 0.8596
C61 C 0.6026(6) 0.7779(3) 0.8747(3)
C62 C 0.6624(6) 0.7757(4) 0.9098(3)
H57 H 0.7005 0.7504 0.9104
C63 C 0.6673(7) 0.8101(4) 0.9442(3)
H58 H 0.7084 0.8081 0.9676
C64 C 0.6113(7) 0.8470(4) 0.9434(3)
C65 C 0.5524(7) 0.8494(4) 0.9094(4)
H59 H 0.5135 0.8744 0.9097
C66 C 0.5477(7) 0.8165(3) 0.8745(3)
H60 H 0.5078 0.8199 0.8506
Br2 Br -0.12105(9) 0.39430(5) 0.51070(4)
N2 N 0.1182(5) 0.1760(2) 0.8225(2)
O6 O -0.1531(5) 0.2103(3) 0.6610(2)
O7 O -0.0968(8) 0.0919(4) 0.7138(6)
O8 O -0.0273(5) 0.0690(4) 0.7729(3)
O9 O 0.0941(11) 0.0920(5) 0.6407(5)
O10 O 0.1061(8) 0.0436(3) 0.6925(3)
C34 C -0.0993(7) 0.2410(4) 0.6612(3)
C35 C -0.0326(6) 0.2413(3) 0.6986(3)
H31 H 0.0216 0.2495 0.6844
H32 H -0.0463 0.2660 0.7212
C36 C -0.0239(6) 0.1955(3) 0.7234(3)
H33 H -0.0809 0.1840 0.7315
C37 C 0.0184(7) 0.1588(4) 0.6901(3)
H34 H -0.0208 0.1509 0.6650
H35 H 0.0688 0.1728 0.6761
C38 C 0.0432(7) 0.1134(3) 0.7160(3)
C39 C 0.1081(6) 0.1226(3) 0.7532(3)
H36 H 0.1128 0.0950 0.7734
H37 H 0.1632 0.1281 0.7388
C40 C 0.0840(6) 0.1638(3) 0.7807(3)
C41 C 0.0279(6) 0.1978(3) 0.7673(3)
C42 C 0.0321(6) 0.2324(3) 0.8028(3)
H38 H 0.0018 0.2608 0.8029
C43 C 0.0856(6) 0.2187(3) 0.8363(3)
C44 C 0.1046(6) 0.2397(3) 0.8827(3)
C45 C 0.1328(7) 0.2866(3) 0.8840(3)
H39 H 0.1431 0.3027 0.8561
C46 C 0.1453(7) 0.3093(3) 0.9253(3)
H40 H 0.1614 0.3412 0.9250
C47 C 0.1353(8) 0.2870(4) 0.9671(3)
H41 H 0.1457 0.3027 0.9952
C48 C 0.1103(9) 0.2423(4) 0.9664(3)
H42 H 0.1029 0.2259 0.9945
C49 C 0.0949(7) 0.2197(3) 0.9241(3)
H43 H 0.0764 0.1883 0.9249
C50 C 0.1842(6) 0.1505(3) 0.8455(3)
H44 H 0.2131 0.1720 0.8668
H45 H 0.2252 0.1404 0.8221
C51 C 0.1562(6) 0.1077(3) 0.8725(3)
C52 C 0.2163(8) 0.0781(4) 0.8907(4)
H46 H 0.2735 0.0838 0.8845
C53 C 0.1938(10) 0.0406(4) 0.9177(6)
H47 H 0.2364 0.0212 0.9299
C54 C 0.1137(12) 0.0303(4) 0.9274(4)
H48 H 0.1000 0.0048 0.9468
C55 C 0.0512(10) 0.0582(4) 0.9082(4)
H49 H -0.0057 0.0508 0.9132
C56 C 0.0738(8) 0.0989(4) 0.8802(4)
H50 H 0.0320 0.1187 0.8678
C57 C -0.0328(9) 0.0909(4) 0.7329(6)
C58 C -0.1015(10) 0.0434(5) 0.7918(5)
H51 H -0.1411 0.0371 0.7669
H52 H -0.1285 0.0625 0.8154
H53 H -0.0832 0.0139 0.8054
C59 C 0.0809(11) 0.0804(6) 0.6796(5)
C60 C 0.1482(11) 0.0132(5) 0.6600(6)
H54 H 0.1067 -0.0027 0.6410
H55 H 0.1811 -0.0100 0.6768
H56 H 0.1851 0.0318 0.6404
C61 C -0.1026(6) 0.2779(3) 0.6253(3)
C62 C -0.1624(6) 0.2757(4) 0.5902(3)
H57 H -0.2005 0.2504 0.5896
C63 C -0.1673(7) 0.3101(4) 0.5558(3)
H58 H -0.2084 0.3081 0.5324
C64 C -0.1113(7) 0.3470(4) 0.5566(3)
C65 C -0.0524(7) 0.3494(4) 0.5906(4)
H59 H -0.0135 0.3744 0.5903
C66 C -0.0477(7) 0.3165(3) 0.6255(3)
H60 H -0.0078 0.3199 0.6494
Br2 Br 1.12105(9) 0.60570(5) 0.51070(4)
N2 N 0.8818(5) 0.8240(2) 0.8225(2)
O6 O 1.1531(5) 0.7897(3) 0.6610(2)
O7 O 1.0968(8) 0.9081(4) 0.7138(6)
O8 O 1.0273(5) 0.9310(4) 0.7729(3)
O9 O 0.9059(11) 0.9080(5) 0.6407(5)
O10 O 0.8939(8) 0.9564(3) 0.6925(3)
C34 C 1.0993(7) 0.7590(4) 0.6612(3)
C35 C 1.0326(6) 0.7587(3) 0.6986(3)
H31 H 0.9784 0.7505 0.6844
H32 H 1.0463 0.7340 0.7212
C36 C 1.0239(6) 0.8045(3) 0.7234(3)
H33 H 1.0809 0.8160 0.7315
C37 C 0.9816(7) 0.8412(4) 0.6901(3)
H34 H 1.0208 0.8491 0.6650
H35 H 0.9312 0.8272 0.6761
C38 C 0.9568(7) 0.8866(3) 0.7160(3)
C39 C 0.8919(6) 0.8774(3) 0.7532(3)
H36 H 0.8872 0.9050 0.7734
H37 H 0.8368 0.8719 0.7388
C40 C 0.9160(6) 0.8362(3) 0.7807(3)
C41 C 0.9721(6) 0.8022(3) 0.7673(3)
C42 C 0.9679(6) 0.7676(3) 0.8028(3)
H38 H 0.9982 0.7392 0.8029
C43 C 0.9144(6) 0.7813(3) 0.8363(3)
C44 C 0.8954(6) 0.7603(3) 0.8827(3)
C45 C 0.8672(7) 0.7134(3) 0.8840(3)
H39 H 0.8569 0.6973 0.8561
C46 C 0.8547(7) 0.6907(3) 0.9253(3)
H40 H 0.8386 0.6588 0.9250
C47 C 0.8647(8) 0.7130(4) 0.9671(3)
H41 H 0.8543 0.6973 0.9952
C48 C 0.8897(9) 0.7577(4) 0.9664(3)
H42 H 0.8971 0.7741 0.9945
C49 C 0.9051(7) 0.7803(3) 0.9241(3)
H43 H 0.9236 0.8117 0.9249
C50 C 0.8158(6) 0.8495(3) 0.8455(3)
H44 H 0.7869 0.8280 0.8668
H45 H 0.7748 0.8596 0.8221
C51 C 0.8438(6) 0.8923(3) 0.8725(3)
C52 C 0.7837(8) 0.9219(4) 0.8907(4)
H46 H 0.7265 0.9162 0.8845
C53 C 0.8062(10) 0.9594(4) 0.9177(6)
H47 H 0.7636 0.9788 0.9299
C54 C 0.8863(12) 0.9697(4) 0.9274(4)
H48 H 0.9000 0.9952 0.9468
C55 C 0.9488(10) 0.9418(4) 0.9082(4)
H49 H 1.0057 0.9492 0.9132
C56 C 0.9262(8) 0.9011(4) 0.8802(4)
H50 H 0.9680 0.8813 0.8678
C57 C 1.0328(9) 0.9091(4) 0.7329(6)
C58 C 1.1015(10) 0.9566(5) 0.7918(5)
H51 H 1.1411 0.9629 0.7669
H52 H 1.1285 0.9375 0.8154
H53 H 1.0832 0.9861 0.8054
C59 C 0.9191(11) 0.9196(6) 0.6796(5)
C60 C 0.8518(11) 0.9868(5) 0.6600(6)
H54 H 0.8933 1.0027 0.6410
H55 H 0.8189 1.0100 0.6768
H56 H 0.8149 0.9682 0.6404
C61 C 1.1026(6) 0.7221(3) 0.6253(3)
C62 C 1.1624(6) 0.7243(4) 0.5902(3)
H57 H 1.2005 0.7496 0.5896
C63 C 1.1673(7) 0.6899(4) 0.5558(3)
H58 H 1.2084 0.6919 0.5324
C64 C 1.1113(7) 0.6530(4) 0.5566(3)
C65 C 1.0524(7) 0.6506(4) 0.5906(4)
H59 H 1.0135 0.6256 0.5903
C66 C 1.0477(7) 0.6835(3) 0.6255(3)
H60 H 1.0078 0.6801 0.6494
Br2 Br -0.12105(9) 0.60570(5) 0.48930(4)
N2 N 0.1182(5) 0.8240(2) 0.1775(2)
O6 O -0.1531(5) 0.7897(3) 0.3390(2)
O7 O -0.0968(8) 0.9081(4) 0.2862(6)
O8 O -0.0273(5) 0.9310(4) 0.2271(3)
O9 O 0.0941(11) 0.9080(5) 0.3593(5)
O10 O 0.1061(8) 0.9564(3) 0.3075(3)
C34 C -0.0993(7) 0.7590(4) 0.3388(3)
C35 C -0.0326(6) 0.7587(3) 0.3014(3)
H31 H 0.0216 0.7505 0.3156
H32 H -0.0463 0.7340 0.2788
C36 C -0.0239(6) 0.8045(3) 0.2766(3)
H33 H -0.0809 0.8160 0.2685
C37 C 0.0184(7) 0.8412(4) 0.3099(3)
H34 H -0.0208 0.8491 0.3350
H35 H 0.0688 0.8272 0.3239
C38 C 0.0432(7) 0.8866(3) 0.2840(3)
C39 C 0.1081(6) 0.8774(3) 0.2468(3)
H36 H 0.1128 0.9050 0.2266
H37 H 0.1632 0.8719 0.2612
C40 C 0.0840(6) 0.8362(3) 0.2193(3)
C41 C 0.0279(6) 0.8022(3) 0.2327(3)
C42 C 0.0321(6) 0.7676(3) 0.1972(3)
H38 H 0.0018 0.7392 0.1971
C43 C 0.0856(6) 0.7813(3) 0.1637(3)
C44 C 0.1046(6) 0.7603(3) 0.1173(3)
C45 C 0.1328(7) 0.7134(3) 0.1160(3)
H39 H 0.1431 0.6973 0.1439
C46 C 0.1453(7) 0.6907(3) 0.0747(3)
H40 H 0.1614 0.6588 0.0750
C47 C 0.1353(8) 0.7130(4) 0.0329(3)
H41 H 0.1457 0.6973 0.0048
C48 C 0.1103(9) 0.7577(4) 0.0336(3)
H42 H 0.1029 0.7741 0.0055
C49 C 0.0949(7) 0.7803(3) 0.0759(3)
H43 H 0.0764 0.8117 0.0751
C50 C 0.1842(6) 0.8495(3) 0.1545(3)
H44 H 0.2131 0.8280 0.1332
H45 H 0.2252 0.8596 0.1779
C51 C 0.1562(6) 0.8923(3) 0.1275(3)
C52 C 0.2163(8) 0.9219(4) 0.1093(4)
H46 H 0.2735 0.9162 0.1155
C53 C 0.1938(10) 0.9594(4) 0.0823(6)
H47 H 0.2364 0.9788 0.0701
C54 C 0.1137(12) 0.9697(4) 0.0726(4)
H48 H 0.1000 0.9952 0.0532
C55 C 0.0512(10) 0.9418(4) 0.0918(4)
H49 H -0.0057 0.9492 0.0868
C56 C 0.0738(8) 0.9011(4) 0.1198(4)
H50 H 0.0320 0.8813 0.1322
C57 C -0.0328(9) 0.9091(4) 0.2671(6)
C58 C -0.1015(10) 0.9566(5) 0.2082(5)
H51 H -0.1411 0.9629 0.2331
H52 H -0.1285 0.9375 0.1846
H53 H -0.0832 0.9861 0.1946
C59 C 0.0809(11) 0.9196(6) 0.3204(5)
C60 C 0.1482(11) 0.9868(5) 0.3400(6)
H54 H 0.1067 1.0027 0.3590
H55 H 0.1811 1.0100 0.3232
H56 H 0.1851 0.9682 0.3596
C61 C -0.1026(6) 0.7221(3) 0.3747(3)
C62 C -0.1624(6) 0.7243(4) 0.4098(3)
H57 H -0.2005 0.7496 0.4104
C63 C -0.1673(7) 0.6899(4) 0.4442(3)
H58 H -0.2084 0.6919 0.4676
C64 C -0.1113(7) 0.6530(4) 0.4434(3)
C65 C -0.0524(7) 0.6506(4) 0.4094(4)
H59 H -0.0135 0.6256 0.4097
C66 C -0.0477(7) 0.6835(3) 0.3745(3)
H60 H -0.0078 0.6801 0.3506
Br2 Br 1.12105(9) 0.39430(5) 0.48930(4)
N2 N 0.8818(5) 0.1760(2) 0.1775(2)
O6 O 1.1531(5) 0.2103(3) 0.3390(2)
O7 O 1.0968(8) 0.0919(4) 0.2862(6)
O8 O 1.0273(5) 0.0690(4) 0.2271(3)
O9 O 0.9059(11) 0.0920(5) 0.3593(5)
O10 O 0.8939(8) 0.0436(3) 0.3075(3)
C34 C 1.0993(7) 0.2410(4) 0.3388(3)
C35 C 1.0326(6) 0.2413(3) 0.3014(3)
H31 H 0.9784 0.2495 0.3156
H32 H 1.0463 0.2660 0.2788
C36 C 1.0239(6) 0.1955(3) 0.2766(3)
H33 H 1.0809 0.1840 0.2685
C37 C 0.9816(7) 0.1588(4) 0.3099(3)
H34 H 1.0208 0.1509 0.3350
H35 H 0.9312 0.1728 0.3239
C38 C 0.9568(7) 0.1134(3) 0.2840(3)
C39 C 0.8919(6) 0.1226(3) 0.2468(3)
H36 H 0.8872 0.0950 0.2266
H37 H 0.8368 0.1281 0.2612
C40 C 0.9160(6) 0.1638(3) 0.2193(3)
C41 C 0.9721(6) 0.1978(3) 0.2327(3)
C42 C 0.9679(6) 0.2324(3) 0.1972(3)
H38 H 0.9982 0.2608 0.1971
C43 C 0.9144(6) 0.2187(3) 0.1637(3)
C44 C 0.8954(6) 0.2397(3) 0.1173(3)
C45 C 0.8672(7) 0.2866(3) 0.1160(3)
H39 H 0.8569 0.3027 0.1439
C46 C 0.8547(7) 0.3093(3) 0.0747(3)
H40 H 0.8386 0.3412 0.0750
C47 C 0.8647(8) 0.2870(4) 0.0329(3)
H41 H 0.8543 0.3027 0.0048
C48 C 0.8897(9) 0.2423(4) 0.0336(3)
H42 H 0.8971 0.2259 0.0055
C49 C 0.9051(7) 0.2197(3) 0.0759(3)
H43 H 0.9236 0.1883 0.0751
C50 C 0.8158(6) 0.1505(3) 0.1545(3)
H44 H 0.7869 0.1720 0.1332
H45 H 0.7748 0.1404 0.1779
C51 C 0.8438(6) 0.1077(3) 0.1275(3)
C52 C 0.7837(8) 0.0781(4) 0.1093(4)
H46 H 0.7265 0.0838 0.1155
C53 C 0.8062(10) 0.0406(4) 0.0823(6)
H47 H 0.7636 0.0212 0.0701
C54 C 0.8863(12) 0.0303(4) 0.0726(4)
H48 H 0.9000 0.0048 0.0532
C55 C 0.9488(10) 0.0582(4) 0.0918(4)
H49 H 1.0057 0.0508 0.0868
C56 C 0.9262(8) 0.0989(4) 0.1198(4)
H50 H 0.9680 0.1187 0.1322
C57 C 1.0328(9) 0.0909(4) 0.2671(6)
C58 C 1.1015(10) 0.0434(5) 0.2082(5)
H51 H 1.1411 0.0371 0.2331
H52 H 1.1285 0.0625 0.1846
H53 H 1.0832 0.0139 0.1946
C59 C 0.9191(11) 0.0804(6) 0.3204(5)
C60 C 0.8518(11) 0.0132(5) 0.3400(6)
H54 H 0.8933 -0.0027 0.3590
H55 H 0.8189 -0.0100 0.3232
H56 H 0.8149 0.0318 0.3596
C61 C 1.1026(6) 0.2779(3) 0.3747(3)
C62 C 1.1624(6) 0.2757(4) 0.4098(3)
H57 H 1.2005 0.2504 0.4104
C63 C 1.1673(7) 0.3101(4) 0.4442(3)
H58 H 1.2084 0.3081 0.4676
C64 C 1.1113(7) 0.3470(4) 0.4434(3)
C65 C 1.0524(7) 0.3494(4) 0.4094(4)
H59 H 1.0135 0.3744 0.4097
C66 C 1.0477(7) 0.3165(3) 0.3745(3)
H60 H 1.0078 0.3199 0.3506

#END
