
#######################################################################
#
#                 Cambridge Crystallographic Data Centre
#                                CCDC 
#
#######################################################################
#
# If this CIF has been generated from an entry in the Cambridge 
# Structural Database, then it will include bibliographic, chemical, 
# crystal, experimental, refinement or atomic coordinate data resulting 
# from the CCDC's data processing and validation procedures.
#
#######################################################################

data_KACVES
_symmetry_cell_setting           monoclinic
_symmetry_space_group_name_H-M   'P 21/c'
_symmetry_Int_Tables_number      14
_space_group_name_Hall           '-P 2ybc'
loop_
_symmetry_equiv_pos_site_id
_symmetry_equiv_pos_as_xyz
1 x,y,z
2 -x,1/2+y,1/2-z
3 -x,-y,-z
4 x,1/2-y,1/2+z
_cell_length_a                   6.326(2)
_cell_length_b                   15.9917(5)
_cell_length_c                   11.7653(5)
_cell_angle_alpha                90
_cell_angle_beta                 117.576(2)
_cell_angle_gamma                90
_cell_volume                     1055.01
loop_
_atom_site_label
_atom_site_type_symbol
_atom_site_fract_x
_atom_site_fract_y
_atom_site_fract_z
C1 C 0.07841(19) 0.75370(7) 0.80388(10)
C2 C 0.01434(19) 0.71630(7) 0.67145(10)
H1 H -0.1597 0.7161 0.6206
C3 C 0.10327(19) 0.62664(7) 0.68166(10)
H2 H 0.0649 0.6065 0.5965
H3 H 0.0198 0.5916 0.7152
C4 C 0.37293(18) 0.61799(7) 0.76822(10)
C5 C 0.43835(18) 0.65677(7) 0.89989(10)
H4 H 0.3714 0.6227 0.9435
H5 H 0.6104 0.6565 0.9513
C6 C 0.34716(19) 0.74645(7) 0.88973(10)
H6 H 0.3853 0.7666 0.9748
H7 H 0.4290 0.7819 0.8558
C7 C -0.0085(2) 0.84341(8) 0.79261(12)
H8 H 0.0752 0.8779 0.7599
H9 H -0.1765 0.8456 0.7352
H10 H 0.0208 0.8634 0.8756
C8 C 0.4493(2) 0.52496(7) 0.77948(12)
H11 H 0.3474 0.4933 0.8064
C9 C 0.4097(3) 0.48912(8) 0.65061(14)
H12 H 0.2475 0.4986 0.5875
H13 H 0.5152 0.5162 0.6242
H14 H 0.4416 0.4301 0.6592
C10 C 0.7074(2) 0.50987(8) 0.87965(13)
H15 H 0.7325 0.5323 0.9606
H16 H 0.7391 0.4509 0.8882
H17 H 0.8128 0.5369 0.8531
O1 O -0.04714(13) 0.70163(5) 0.85303(7)
H18 H -0.008(3) 0.7149(9) 0.9274(16)
O2 O 0.11179(16) 0.76834(5) 0.60717(8)
H19 H 0.249(3) 0.7511(10) 0.6308(15)
O3 O 0.48338(14) 0.66572(5) 0.70521(7)
H20 H 0.623(3) 0.6740(9) 0.7540(15)
C1 C 0.92159(19) 0.25370(7) 0.69612(10)
C2 C 0.98566(19) 0.21630(7) 0.82855(10)
H1 H 1.1597 0.2161 0.8794
C3 C 0.89673(19) 0.12664(7) 0.81834(10)
H2 H 0.9351 0.1065 0.9035
H3 H 0.9802 0.0916 0.7848
C4 C 0.62707(18) 0.11799(7) 0.73178(10)
C5 C 0.56165(18) 0.15677(7) 0.60011(10)
H4 H 0.6286 0.1227 0.5565
H5 H 0.3896 0.1565 0.5487
C6 C 0.65284(19) 0.24645(7) 0.61027(10)
H6 H 0.6147 0.2666 0.5252
H7 H 0.5710 0.2819 0.6442
C7 C 1.0085(2) 0.34341(8) 0.70739(12)
H8 H 0.9248 0.3779 0.7401
H9 H 1.1765 0.3456 0.7648
H10 H 0.9792 0.3634 0.6244
C8 C 0.5507(2) 0.02496(7) 0.72052(12)
H11 H 0.6526 -0.0067 0.6936
C9 C 0.5903(3) -0.01088(8) 0.84939(14)
H12 H 0.7525 -0.0014 0.9125
H13 H 0.4848 0.0162 0.8758
H14 H 0.5584 -0.0699 0.8408
C10 C 0.2926(2) 0.00987(8) 0.62035(13)
H15 H 0.2675 0.0323 0.5394
H16 H 0.2609 -0.0491 0.6118
H17 H 0.1872 0.0369 0.6469
O1 O 1.04714(13) 0.20163(5) 0.64697(7)
H18 H 1.008(3) 0.2149(9) 0.5726(16)
O2 O 0.88821(16) 0.26834(5) 0.89283(8)
H19 H 0.751(3) 0.2511(10) 0.8692(15)
O3 O 0.51662(14) 0.16572(5) 0.79479(7)
H20 H 0.377(3) 0.1740(9) 0.7460(15)
C1 C 0.92159(19) 0.24630(7) 0.19612(10)
C2 C 0.98566(19) 0.28370(7) 0.32855(10)
H1 H 1.1597 0.2839 0.3794
C3 C 0.89673(19) 0.37336(7) 0.31834(10)
H2 H 0.9351 0.3935 0.4035
H3 H 0.9802 0.4084 0.2848
C4 C 0.62707(18) 0.38201(7) 0.23178(10)
C5 C 0.56165(18) 0.34323(7) 0.10011(10)
H4 H 0.6286 0.3773 0.0565
H5 H 0.3896 0.3435 0.0487
C6 C 0.65284(19) 0.25355(7) 0.11027(10)
H6 H 0.6147 0.2334 0.0252
H7 H 0.5710 0.2181 0.1442
C7 C 1.0085(2) 0.15659(8) 0.20739(12)
H8 H 0.9248 0.1221 0.2401
H9 H 1.1765 0.1544 0.2648
H10 H 0.9792 0.1366 0.1244
C8 C 0.5507(2) 0.47504(7) 0.22052(12)
H11 H 0.6526 0.5067 0.1936
C9 C 0.5903(3) 0.51088(8) 0.34939(14)
H12 H 0.7525 0.5014 0.4125
H13 H 0.4848 0.4838 0.3758
H14 H 0.5584 0.5699 0.3408
C10 C 0.2926(2) 0.49013(8) 0.12035(13)
H15 H 0.2675 0.4677 0.0394
H16 H 0.2609 0.5491 0.1118
H17 H 0.1872 0.4631 0.1469
O1 O 1.04714(13) 0.29837(5) 0.14697(7)
H18 H 1.008(3) 0.2851(9) 0.0726(16)
O2 O 0.88821(16) 0.23166(5) 0.39283(8)
H19 H 0.751(3) 0.2489(10) 0.3692(15)
O3 O 0.51662(14) 0.33428(5) 0.29479(7)
H20 H 0.377(3) 0.3260(9) 0.2460(15)
C1 C 0.07841(19) 0.74630(7) 0.30388(10)
C2 C 0.01434(19) 0.78370(7) 0.17145(10)
H1 H -0.1597 0.7839 0.1206
C3 C 0.10327(19) 0.87336(7) 0.18166(10)
H2 H 0.0649 0.8935 0.0965
H3 H 0.0198 0.9084 0.2152
C4 C 0.37293(18) 0.88201(7) 0.26822(10)
C5 C 0.43835(18) 0.84323(7) 0.39989(10)
H4 H 0.3714 0.8773 0.4435
H5 H 0.6104 0.8435 0.4513
C6 C 0.34716(19) 0.75355(7) 0.38973(10)
H6 H 0.3853 0.7334 0.4748
H7 H 0.4290 0.7181 0.3558
C7 C -0.0085(2) 0.65659(8) 0.29261(12)
H8 H 0.0752 0.6221 0.2599
H9 H -0.1765 0.6544 0.2352
H10 H 0.0208 0.6366 0.3756
C8 C 0.4493(2) 0.97504(7) 0.27948(12)
H11 H 0.3474 1.0067 0.3064
C9 C 0.4097(3) 1.01088(8) 0.15061(14)
H12 H 0.2475 1.0014 0.0875
H13 H 0.5152 0.9838 0.1242
H14 H 0.4416 1.0699 0.1592
C10 C 0.7074(2) 0.99013(8) 0.37965(13)
H15 H 0.7325 0.9677 0.4606
H16 H 0.7391 1.0491 0.3882
H17 H 0.8128 0.9631 0.3531
O1 O -0.04714(13) 0.79837(5) 0.35303(7)
H18 H -0.008(3) 0.7851(9) 0.4274(16)
O2 O 0.11179(16) 0.73166(5) 0.10717(8)
H19 H 0.249(3) 0.7489(10) 0.1308(15)
O3 O 0.48338(14) 0.83428(5) 0.20521(7)
H20 H 0.623(3) 0.8260(9) 0.2540(15)

#END
