./KACWAP_from_xyz.cif_generated_by_CrystalShift
_symmetry_cell_setting triclinic
_symmetry_space_group_name_H-M 'P 1'
loop_
_symmetry_equiv_pos_site_id
_symmetry_equiv_pos_as_xyz
1 x,y,z
_cell_length_a 6.018000
_cell_length_b 8.237000
_cell_length_c 21.600000
_cell_angle_alpha 87.080000
_cell_angle_beta 87.460000
_cell_angle_gamma 82.300000
_cell_volume 1058.925108
loop_
_atom_site_label
_atom_site_type_symbol
_atom_site_fract_x
_atom_site_fract_y
_atom_site_fract_z
S1 S 0.358000 1.293700 0.558600
O2 O 0.867200 1.093200 0.397400
N3 N 0.614100 1.219800 0.463200
C4 C 0.633200 1.196000 0.575400
H5 H 0.718500 1.272700 0.593300
H6 H 0.624700 1.103800 0.604800
S7 S 0.202500 1.391600 0.435810
N8 N 0.523800 1.039700 0.282900
O9 O 0.731700 1.256400 0.293900
C10 C 0.748800 1.136000 0.512800
H11 H 0.900900 1.163100 0.508900
H12 H 0.754100 1.018100 0.510900
Cl13 Cl 0.951700 1.190000 0.159660
N14 N 0.512600 0.933000 0.237700
O15 O 0.725100 0.635800 -0.035100
C16 C 0.401100 1.303200 0.479000
C17 C 0.703100 1.192300 0.402300
C18 C 0.601900 1.292200 0.348900
H19 H 0.450100 1.268400 0.344200
H20 H 0.594800 1.407800 0.356500
C21 C 0.670900 1.135300 0.263200
C22 C 0.754400 1.092800 0.202800
C23 C 0.647100 0.965500 0.187300
C24 C 0.664000 0.879300 0.128500
C25 C 0.486400 0.885600 0.092100
H26 H 0.351700 0.945100 0.105100
C27 C 0.492800 0.809000 0.036700
H28 H 0.366300 0.818400 0.012900
C29 C 0.688500 0.719000 0.017400
C30 C 0.874500 0.708900 0.053800
H31 H 1.008000 0.648200 0.040400
C32 C 0.867600 0.787400 0.110200
H33 H 0.993000 0.778800 0.134400
C34 C 0.542000 0.643500 -0.075800
H35 H 0.588700 0.580300 -0.111300
H36 H 0.496100 0.755500 -0.089000
H37 H 0.418400 0.599900 -0.054200
C38 C 0.369800 0.808700 0.246000
C39 C 0.163200 0.848200 0.277900
H40 H 0.122100 0.953600 0.291600
C41 C 0.020200 0.730800 0.289100
H42 H -0.115300 0.757200 0.311000
C43 C 0.077100 0.575400 0.268000
H44 H -0.020800 0.497300 0.274200
C45 C 0.286700 0.537300 0.237000
H46 H 0.328700 0.432400 0.222900
C47 C 0.430500 0.653800 0.227200
H48 H 0.570200 0.626000 0.207700
S49 S 0.642000 -0.293700 0.441400
O50 O 0.132800 -0.093200 0.602600
N51 N 0.385900 -0.219800 0.536800
C52 C 0.366800 -0.196000 0.424600
H53 H 0.281500 -0.272700 0.406700
H54 H 0.375300 -0.103800 0.395200
S55 S 0.797500 -0.391600 0.564190
N56 N 0.476200 -0.039700 0.717100
O57 O 0.268300 -0.256400 0.706100
C58 C 0.251200 -0.136000 0.487200
H59 H 0.099100 -0.163100 0.491100
H60 H 0.245900 -0.018100 0.489100
Cl61 Cl 0.048300 -0.190000 0.840340
N62 N 0.487400 0.067000 0.762300
O63 O 0.274900 0.364200 1.035100
C64 C 0.598900 -0.303200 0.521000
C65 C 0.296900 -0.192300 0.597700
C66 C 0.398100 -0.292200 0.651100
H67 H 0.549900 -0.268400 0.655800
H68 H 0.405200 -0.407800 0.643500
C69 C 0.329100 -0.135300 0.736800
C70 C 0.245600 -0.092800 0.797200
C71 C 0.352900 0.034500 0.812700
C72 C 0.336000 0.120700 0.871500
C73 C 0.513600 0.114400 0.907900
H74 H 0.648300 0.054900 0.894900
C75 C 0.507200 0.191000 0.963300
H76 H 0.633700 0.181600 0.987100
C77 C 0.311500 0.281000 0.982600
C78 C 0.125500 0.291100 0.946200
H79 H -0.008000 0.351800 0.959600
C80 C 0.132400 0.212600 0.889800
H81 H 0.007000 0.221200 0.865600
C82 C 0.458000 0.356500 1.075800
H83 H 0.411300 0.419700 1.111300
H84 H 0.503900 0.244500 1.089000
H85 H 0.581600 0.400100 1.054200
C86 C 0.630200 0.191300 0.754000
C87 C 0.836800 0.151800 0.722100
H88 H 0.877900 0.046400 0.708400
C89 C 0.979800 0.269200 0.710900
H90 H 1.115300 0.242800 0.689000
C91 C 0.922900 0.424600 0.732000
H92 H 1.020800 0.502700 0.725800
C93 C 0.713300 0.462700 0.763000
H94 H 0.671300 0.567600 0.777100
C95 C 0.569500 0.346200 0.772800
H96 H 0.429800 0.374000 0.792300

#END
