./KACXOC_from_xyz.cif_generated_by_CrystalShift
_symmetry_cell_setting triclinic
_symmetry_space_group_name_H-M 'P 1'
loop_
_symmetry_equiv_pos_site_id
_symmetry_equiv_pos_as_xyz
1 x,y,z
_cell_length_a 11.987500
_cell_length_b 17.540800
_cell_length_c 20.957000
_cell_angle_alpha 90.000000
_cell_angle_beta 113.179000
_cell_angle_gamma 90.000000
_cell_volume 4050.930433
loop_
_atom_site_label
_atom_site_type_symbol
_atom_site_fract_x
_atom_site_fract_y
_atom_site_fract_z
P1 P 0.194320 0.294090 0.300680
P2 P 0.123850 0.188410 0.250380
P3 P 0.129330 0.238480 0.159480
C4 C 0.265900 0.296200 0.188900
H5 H 0.336000 0.264100 0.203000
H6 H 0.266000 0.328500 0.152000
C7 C 0.268300 0.344400 0.250000
H8 H 0.226500 0.392400 0.232900
H9 H 0.352000 0.355900 0.280100
C10 C 0.304600 0.276700 0.387500
C11 C 0.309300 0.318900 0.443900
H12 H 0.248000 0.363000 0.437200
C13 C 0.395500 0.303400 0.509300
H14 H 0.398500 0.334000 0.549000
C15 C 0.477300 0.244900 0.518700
H16 H 0.541000 0.233200 0.568000
C17 C 0.474300 0.202300 0.463000
H18 H 0.531000 0.161000 0.469600
C19 C 0.389000 0.219300 0.396900
H20 H 0.388600 0.193400 0.361000
C21 C 0.082300 0.359100 0.306600
C22 C -0.033500 0.332900 0.295400
H23 H -0.051600 0.280000 0.287500
C24 C -0.122300 0.382600 0.295500
H25 H -0.195000 0.365000 0.289200
C26 C -0.098000 0.459200 0.305400
H27 H -0.156000 0.491000 0.304100
C28 C 0.017700 0.486800 0.317600
H29 H 0.035500 0.542000 0.325900
C30 C 0.107800 0.437000 0.318200
H31 H 0.187000 0.455800 0.326400
C32 C 0.136800 0.165600 0.101300
C33 C 0.234000 0.114500 0.123200
H34 H 0.303000 0.120500 0.173000
C35 C 0.240200 0.056500 0.080700
H36 H 0.306000 0.022000 0.096500
C37 C 0.150600 0.049000 0.014900
H38 H 0.155000 0.007000 -0.016000
C39 C 0.055200 0.099600 -0.007900
H40 H -0.004000 0.094500 -0.052000
C41 C 0.047500 0.157700 0.034300
H42 H -0.020000 0.193000 0.017500
C43 C 0.003300 0.299800 0.110900
C44 C -0.103000 0.296100 0.122900
H45 H -0.108600 0.264000 0.156000
C46 C -0.199700 0.341900 0.084500
H47 H -0.274000 0.338700 0.091700
C48 C -0.191900 0.392000 0.035900
H49 H -0.263000 0.426000 0.008600
C50 C -0.085900 0.396100 0.024600
H51 H -0.080100 0.433000 -0.012000
C52 C 0.011000 0.351400 0.061800
H53 H 0.088000 0.355400 0.053900
P54 P 0.194320 0.205910 0.800680
P55 P 0.123850 0.311590 0.750380
P56 P 0.129330 0.261520 0.659480
C57 C 0.265900 0.203800 0.688900
H58 H 0.336000 0.235900 0.703000
H59 H 0.266000 0.171500 0.652000
C60 C 0.268300 0.155600 0.750000
H61 H 0.226500 0.107600 0.732900
H62 H 0.352000 0.144100 0.780100
C63 C 0.304600 0.223300 0.887500
C64 C 0.309300 0.181100 0.943900
H65 H 0.248000 0.137000 0.937200
C66 C 0.395500 0.196600 1.009300
H67 H 0.398500 0.166000 1.049000
C68 C 0.477300 0.255100 1.018700
H69 H 0.541000 0.266800 1.068000
C70 C 0.474300 0.297700 0.963000
H71 H 0.531000 0.339000 0.969600
C72 C 0.389000 0.280700 0.896900
H73 H 0.388600 0.306600 0.861000
C74 C 0.082300 0.140900 0.806600
C75 C -0.033500 0.167100 0.795400
H76 H -0.051600 0.220000 0.787500
C77 C -0.122300 0.117400 0.795500
H78 H -0.195000 0.135000 0.789200
C79 C -0.098000 0.040800 0.805400
H80 H -0.156000 0.009000 0.804100
C81 C 0.017700 0.013200 0.817600
H82 H 0.035500 -0.042000 0.825900
C83 C 0.107800 0.063000 0.818200
H84 H 0.187000 0.044200 0.826400
C85 C 0.136800 0.334400 0.601300
C86 C 0.234000 0.385500 0.623200
H87 H 0.303000 0.379500 0.673000
C88 C 0.240200 0.443500 0.580700
H89 H 0.306000 0.478000 0.596500
C90 C 0.150600 0.451000 0.514900
H91 H 0.155000 0.493000 0.484000
C92 C 0.055200 0.400400 0.492100
H93 H -0.004000 0.405500 0.448000
C94 C 0.047500 0.342300 0.534300
H95 H -0.020000 0.307000 0.517500
C96 C 0.003300 0.200200 0.610900
C97 C -0.103000 0.203900 0.622900
H98 H -0.108600 0.236000 0.656000
C99 C -0.199700 0.158100 0.584500
H100 H -0.274000 0.161300 0.591700
C101 C -0.191900 0.108000 0.535900
H102 H -0.263000 0.074000 0.508600
C103 C -0.085900 0.103900 0.524600
H104 H -0.080100 0.067000 0.488000
C105 C 0.011000 0.148600 0.561800
H106 H 0.088000 0.144600 0.553900
P107 P 0.805680 0.705910 0.699320
P108 P 0.876150 0.811590 0.749620
P109 P 0.870670 0.761520 0.840520
C110 C 0.734100 0.703800 0.811100
H111 H 0.664000 0.735900 0.797000
H112 H 0.734000 0.671500 0.848000
C113 C 0.731700 0.655600 0.750000
H114 H 0.773500 0.607600 0.767100
H115 H 0.648000 0.644100 0.719900
C116 C 0.695400 0.723300 0.612500
C117 C 0.690700 0.681100 0.556100
H118 H 0.752000 0.637000 0.562800
C119 C 0.604500 0.696600 0.490700
H120 H 0.601500 0.666000 0.451000
C121 C 0.522700 0.755100 0.481300
H122 H 0.459000 0.766800 0.432000
C123 C 0.525700 0.797700 0.537000
H124 H 0.469000 0.839000 0.530400
C125 C 0.611000 0.780700 0.603100
H126 H 0.611400 0.806600 0.639000
C127 C 0.917700 0.640900 0.693400
C128 C 1.033500 0.667100 0.704600
H129 H 1.051600 0.720000 0.712500
C130 C 1.122300 0.617400 0.704500
H131 H 1.195000 0.635000 0.710800
C132 C 1.098000 0.540800 0.694600
H133 H 1.156000 0.509000 0.695900
C134 C 0.982300 0.513200 0.682400
H135 H 0.964500 0.458000 0.674100
C136 C 0.892200 0.563000 0.681800
H137 H 0.813000 0.544200 0.673600
C138 C 0.863200 0.834400 0.898700
C139 C 0.766000 0.885500 0.876800
H140 H 0.697000 0.879500 0.827000
C141 C 0.759800 0.943500 0.919300
H142 H 0.694000 0.978000 0.903500
C143 C 0.849400 0.951000 0.985100
H144 H 0.845000 0.993000 1.016000
C145 C 0.944800 0.900400 1.007900
H146 H 1.004000 0.905500 1.052000
C147 C 0.952500 0.842300 0.965700
H148 H 1.020000 0.807000 0.982500
C149 C 0.996700 0.700200 0.889100
C150 C 1.103000 0.703900 0.877100
H151 H 1.108600 0.736000 0.844000
C152 C 1.199700 0.658100 0.915500
H153 H 1.274000 0.661300 0.908300
C154 C 1.191900 0.608000 0.964100
H155 H 1.263000 0.574000 0.991400
C156 C 1.085900 0.603900 0.975400
H157 H 1.080100 0.567000 1.012000
C158 C 0.989000 0.648600 0.938200
H159 H 0.912000 0.644600 0.946100
P160 P 0.805680 0.794090 0.199320
P161 P 0.876150 0.688410 0.249620
P162 P 0.870670 0.738480 0.340520
C163 C 0.734100 0.796200 0.311100
H164 H 0.664000 0.764100 0.297000
H165 H 0.734000 0.828500 0.348000
C166 C 0.731700 0.844400 0.250000
H167 H 0.773500 0.892400 0.267100
H168 H 0.648000 0.855900 0.219900
C169 C 0.695400 0.776700 0.112500
C170 C 0.690700 0.818900 0.056100
H171 H 0.752000 0.863000 0.062800
C172 C 0.604500 0.803400 -0.009300
H173 H 0.601500 0.834000 -0.049000
C174 C 0.522700 0.744900 -0.018700
H175 H 0.459000 0.733200 -0.068000
C176 C 0.525700 0.702300 0.037000
H177 H 0.469000 0.661000 0.030400
C178 C 0.611000 0.719300 0.103100
H179 H 0.611400 0.693400 0.139000
C180 C 0.917700 0.859100 0.193400
C181 C 1.033500 0.832900 0.204600
H182 H 1.051600 0.780000 0.212500
C183 C 1.122300 0.882600 0.204500
H184 H 1.195000 0.865000 0.210800
C185 C 1.098000 0.959200 0.194600
H186 H 1.156000 0.991000 0.195900
C187 C 0.982300 0.986800 0.182400
H188 H 0.964500 1.042000 0.174100
C189 C 0.892200 0.937000 0.181800
H190 H 0.813000 0.955800 0.173600
C191 C 0.863200 0.665600 0.398700
C192 C 0.766000 0.614500 0.376800
H193 H 0.697000 0.620500 0.327000
C194 C 0.759800 0.556500 0.419300
H195 H 0.694000 0.522000 0.403500
C196 C 0.849400 0.549000 0.485100
H197 H 0.845000 0.507000 0.516000
C198 C 0.944800 0.599600 0.507900
H199 H 1.004000 0.594500 0.552000
C200 C 0.952500 0.657700 0.465700
H201 H 1.020000 0.693000 0.482500
C202 C 0.996700 0.799800 0.389100
C203 C 1.103000 0.796100 0.377100
H204 H 1.108600 0.764000 0.344000
C205 C 1.199700 0.841900 0.415500
H206 H 1.274000 0.838700 0.408300
C207 C 1.191900 0.892000 0.464100
H208 H 1.263000 0.926000 0.491400
C209 C 1.085900 0.896100 0.475400
H210 H 1.080100 0.933000 0.512000
C211 C 0.989000 0.851400 0.438200
H212 H 0.912000 0.855400 0.446100
C213 C 0.863200 0.116000 0.337300
C214 C 0.937100 0.172600 0.379900
H215 H 0.896000 0.223000 0.389900
C216 C 1.064300 0.166300 0.410300
H217 H 1.119000 0.213000 0.443100
C218 C 1.122200 0.102500 0.399900
H219 H 1.210000 0.097900 0.420900
C220 C 1.051300 0.045800 0.358800
H221 H 1.089000 0.001000 0.351200
C222 C 0.926400 0.053000 0.328300
H223 H 0.880000 0.011000 0.298600
C224 C 0.679900 0.092200 0.217000
C225 C 0.737500 0.127800 0.178100
H226 H 0.799000 0.170000 0.200500
C227 C 0.712700 0.107500 0.109500
H228 H 0.749000 0.131300 0.086000
C229 C 0.630400 0.049600 0.078300
H230 H 0.612100 0.034500 0.029000
C231 C 0.574300 0.013000 0.115300
H232 H 0.516000 -0.030000 0.093200
C233 C 0.597600 0.035100 0.183600
H234 H 0.555000 0.009400 0.208600
C235 C 0.649700 0.060700 0.335300
C236 C 0.526200 0.071300 0.323200
H237 H 0.477000 0.115000 0.289000
C238 C 0.467200 0.025400 0.354500
H239 H 0.387000 0.034200 0.345500
C240 C 0.527700 -0.033000 0.399000
H241 H 0.480000 -0.070000 0.424800
C242 C 0.647600 -0.045300 0.411000
H243 H 0.692000 -0.087000 0.442000
C244 C 0.707500 0.000700 0.379100
H245 H 0.799000 -0.010800 0.388700
C246 C 0.664700 0.205400 0.302100
C247 C 0.679000 0.236500 0.367000
H248 H 0.720000 0.199000 0.416000
C249 C 0.645400 0.310100 0.374800
H250 H 0.660000 0.330800 0.424000
C251 C 0.593000 0.355700 0.317900
H252 H 0.572000 0.404000 0.323100
C253 C 0.571900 0.328000 0.252900
H254 H 0.532000 0.360000 0.212000
C255 C 0.608300 0.253000 0.244900
H256 H 0.592900 0.233300 0.197000
B257 B 0.714700 0.118900 0.297800
C258 C 0.863200 0.384000 0.837300
C259 C 0.937100 0.327400 0.879900
H260 H 0.896000 0.277000 0.889900
C261 C 1.064300 0.333700 0.910300
H262 H 1.119000 0.287000 0.943100
C263 C 1.122200 0.397500 0.899900
H264 H 1.210000 0.402100 0.920900
C265 C 1.051300 0.454200 0.858800
H266 H 1.089000 0.499000 0.851200
C267 C 0.926400 0.447000 0.828300
H268 H 0.880000 0.489000 0.798600
C269 C 0.679900 0.407800 0.717000
C270 C 0.737500 0.372200 0.678100
H271 H 0.799000 0.330000 0.700500
C272 C 0.712700 0.392500 0.609500
H273 H 0.749000 0.368700 0.586000
C274 C 0.630400 0.450400 0.578300
H275 H 0.612100 0.465500 0.529000
C276 C 0.574300 0.487000 0.615300
H277 H 0.516000 0.530000 0.593200
C278 C 0.597600 0.464900 0.683600
H279 H 0.555000 0.490600 0.708600
C280 C 0.649700 0.439300 0.835300
C281 C 0.526200 0.428700 0.823200
H282 H 0.477000 0.385000 0.789000
C283 C 0.467200 0.474600 0.854500
H284 H 0.387000 0.465800 0.845500
C285 C 0.527700 0.533000 0.899000
H286 H 0.480000 0.570000 0.924800
C287 C 0.647600 0.545300 0.911000
H288 H 0.692000 0.587000 0.942000
C289 C 0.707500 0.499300 0.879100
H290 H 0.799000 0.510800 0.888700
C291 C 0.664700 0.294600 0.802100
C292 C 0.679000 0.263500 0.867000
H293 H 0.720000 0.301000 0.916000
C294 C 0.645400 0.189900 0.874800
H295 H 0.660000 0.169200 0.924000
C296 C 0.593000 0.144300 0.817900
H297 H 0.572000 0.096000 0.823100
C298 C 0.571900 0.172000 0.752900
H299 H 0.532000 0.140000 0.712000
C300 C 0.608300 0.247000 0.744900
H301 H 0.592900 0.266700 0.697000
B302 B 0.714700 0.381100 0.797800
C303 C 0.136800 0.884000 0.662700
C304 C 0.062900 0.827400 0.620100
H305 H 0.104000 0.777000 0.610100
C306 C -0.064300 0.833700 0.589700
H307 H -0.119000 0.787000 0.556900
C308 C -0.122200 0.897500 0.600100
H309 H -0.210000 0.902100 0.579100
C310 C -0.051300 0.954200 0.641200
H311 H -0.089000 0.999000 0.648800
C312 C 0.073600 0.947000 0.671700
H313 H 0.120000 0.989000 0.701400
C314 C 0.320100 0.907800 0.783000
C315 C 0.262500 0.872200 0.821900
H316 H 0.201000 0.830000 0.799500
C317 C 0.287300 0.892500 0.890500
H318 H 0.251000 0.868700 0.914000
C319 C 0.369600 0.950400 0.921700
H320 H 0.387900 0.965500 0.971000
C321 C 0.425700 0.987000 0.884700
H322 H 0.484000 1.030000 0.906800
C323 C 0.402400 0.964900 0.816400
H324 H 0.445000 0.990600 0.791400
C325 C 0.350300 0.939300 0.664700
C326 C 0.473800 0.928700 0.676800
H327 H 0.523000 0.885000 0.711000
C328 C 0.532800 0.974600 0.645500
H329 H 0.613000 0.965800 0.654500
C330 C 0.472300 1.033000 0.601000
H331 H 0.520000 1.070000 0.575200
C332 C 0.352400 1.045300 0.589000
H333 H 0.308000 1.087000 0.558000
C334 C 0.292500 0.999300 0.620900
H335 H 0.201000 1.010800 0.611300
C336 C 0.335300 0.794600 0.697900
C337 C 0.321000 0.763500 0.633000
H338 H 0.280000 0.801000 0.584000
C339 C 0.354600 0.689900 0.625200
H340 H 0.340000 0.669200 0.576000
C341 C 0.407000 0.644300 0.682100
H342 H 0.428000 0.596000 0.676900
C343 C 0.428100 0.672000 0.747100
H344 H 0.468000 0.640000 0.788000
C345 C 0.391700 0.747000 0.755100
H346 H 0.407100 0.766700 0.803000
B347 B 0.285300 0.881100 0.702200
C348 C 0.136800 0.616000 0.162700
C349 C 0.062900 0.672600 0.120100
H350 H 0.104000 0.723000 0.110100
C351 C -0.064300 0.666300 0.089700
H352 H -0.119000 0.713000 0.056900
C353 C -0.122200 0.602500 0.100100
H354 H -0.210000 0.597900 0.079100
C355 C -0.051300 0.545800 0.141200
H356 H -0.089000 0.501000 0.148800
C357 C 0.073600 0.553000 0.171700
H358 H 0.120000 0.511000 0.201400
C359 C 0.320100 0.592200 0.283000
C360 C 0.262500 0.627800 0.321900
H361 H 0.201000 0.670000 0.299500
C362 C 0.287300 0.607500 0.390500
H363 H 0.251000 0.631300 0.414000
C364 C 0.369600 0.549600 0.421700
H365 H 0.387900 0.534500 0.471000
C366 C 0.425700 0.513000 0.384700
H367 H 0.484000 0.470000 0.406800
C368 C 0.402400 0.535100 0.316400
H369 H 0.445000 0.509400 0.291400
C370 C 0.350300 0.560700 0.164700
C371 C 0.473800 0.571300 0.176800
H372 H 0.523000 0.615000 0.211000
C373 C 0.532800 0.525400 0.145500
H374 H 0.613000 0.534200 0.154500
C375 C 0.472300 0.467000 0.101000
H376 H 0.520000 0.430000 0.075200
C377 C 0.352400 0.454700 0.089000
H378 H 0.308000 0.413000 0.058000
C379 C 0.292500 0.500700 0.120900
H380 H 0.201000 0.489200 0.111300
C381 C 0.335300 0.705400 0.197900
C382 C 0.321000 0.736500 0.133000
H383 H 0.280000 0.699000 0.084000
C384 C 0.354600 0.810100 0.125200
H385 H 0.340000 0.830800 0.076000
C386 C 0.407000 0.855700 0.182100
H387 H 0.428000 0.904000 0.176900
C388 C 0.428100 0.828000 0.247100
H389 H 0.468000 0.860000 0.288000
C390 C 0.391700 0.753000 0.255100
H391 H 0.407100 0.733300 0.303000
B392 B 0.285300 0.618900 0.202200

#END
