./KACXAP_from_xyz.cif_generated_by_CrystalShift
_symmetry_cell_setting triclinic
_symmetry_space_group_name_H-M 'P 1'
loop_
_symmetry_equiv_pos_site_id
_symmetry_equiv_pos_as_xyz
1 x,y,z
_cell_length_a 7.205200
_cell_length_b 8.204000
_cell_length_c 11.308800
_cell_angle_alpha 91.461000
_cell_angle_beta 92.761000
_cell_angle_gamma 90.699000
_cell_volume 667.426205
loop_
_atom_site_label
_atom_site_type_symbol
_atom_site_fract_x
_atom_site_fract_y
_atom_site_fract_z
S1 S 0.489260 0.619810 0.325220
O2 O 0.082900 -0.138000 -0.234630
N3 N 0.304100 0.658800 0.397460
C4 C 0.158300 -0.153800 -0.128500
O5 O 0.181900 -0.287500 -0.081590
C6 C 0.211600 0.001900 -0.068500
H7 H 0.190200 0.100200 -0.109300
O8 O -0.066000 0.566100 0.183740
C9 C 0.288700 0.010300 0.040600
H10 H 0.311200 -0.089900 0.078800
O11 O 0.033200 0.418900 0.337280
C12 C 0.342000 0.160700 0.107540
O13 O 0.514700 0.750800 0.246060
C14 C 0.323300 0.314100 0.057700
H15 H 0.275900 0.322100 -0.021700
O16 O 0.632300 0.586500 0.413490
C17 C 0.372900 0.454200 0.122700
H18 H 0.359700 0.558300 0.088500
C19 C 0.442400 0.440500 0.238970
C20 C 0.462800 0.289300 0.290400
H21 H 0.509700 0.281600 0.370000
C22 C 0.413700 0.150300 0.224100
H23 H 0.428800 0.046300 0.258100
C24 C 0.027000 0.547200 0.283800
C25 C 0.134100 0.701300 0.328800
H26 H 0.169400 0.765300 0.259000
C27 C 0.013200 0.805700 0.404700
H28 H -0.025300 0.743200 0.472200
H29 H -0.097000 0.838700 0.357500
H30 H 0.083500 0.902900 0.433500
H31 H 0.046000 -0.235000 -0.271000
H32 H -0.115000 0.461000 0.149000
H33 H 0.287000 0.596000 0.447000
S34 S 0.510740 0.380190 0.674780
O35 O 0.917100 1.138000 1.234630
N36 N 0.695900 0.341200 0.602540
C37 C 0.841700 1.153800 1.128500
O38 O 0.818100 1.287500 1.081590
C39 C 0.788400 0.998100 1.068500
H40 H 0.809800 0.899800 1.109300
O41 O 1.066000 0.433900 0.816260
C42 C 0.711300 0.989700 0.959400
H43 H 0.688800 1.089900 0.921200
O44 O 0.966800 0.581100 0.662720
C45 C 0.658000 0.839300 0.892460
O46 O 0.485300 0.249200 0.753940
C47 C 0.676700 0.685900 0.942300
H48 H 0.724100 0.677900 1.021700
O49 O 0.367700 0.413500 0.586510
C50 C 0.627100 0.545800 0.877300
H51 H 0.640300 0.441700 0.911500
C52 C 0.557600 0.559500 0.761030
C53 C 0.537200 0.710700 0.709600
H54 H 0.490300 0.718400 0.630000
C55 C 0.586300 0.849700 0.775900
H56 H 0.571200 0.953700 0.741900
C57 C 0.973000 0.452800 0.716200
C58 C 0.865900 0.298700 0.671200
H59 H 0.830600 0.234700 0.741000
C60 C 0.986800 0.194300 0.595300
H61 H 1.025300 0.256800 0.527800
H62 H 1.097000 0.161300 0.642500
H63 H 0.916500 0.097100 0.566500
H64 H 0.954000 1.235000 1.271000
H65 H 1.115000 0.539000 0.851000
H66 H 0.713000 0.404000 0.553000

#END
