./KADPOU_from_xyz.cif_generated_by_CrystalShift
_symmetry_cell_setting triclinic
_symmetry_space_group_name_H-M 'P 1'
loop_
_symmetry_equiv_pos_site_id
_symmetry_equiv_pos_as_xyz
1 x,y,z
_cell_length_a 10.055000
_cell_length_b 10.055000
_cell_length_c 24.311000
_cell_angle_alpha 90.000000
_cell_angle_beta 90.000000
_cell_angle_gamma 90.000000
_cell_volume 2457.915641
loop_
_atom_site_label
_atom_site_type_symbol
_atom_site_fract_x
_atom_site_fract_y
_atom_site_fract_z
O1 O 0.680100 0.193400 -0.001300
C2 C 0.698300 0.087200 0.033100
C3 C 0.668400 0.122900 0.085300
C4 C 0.629200 0.260200 0.084400
C5 C 0.638400 0.295700 0.031100
C6 C 0.615800 0.427300 0.001700
C7 C 0.506900 0.408000 -0.042800
C8 C 0.565300 0.530200 0.044200
O9 O 0.849800 0.486500 0.007500
C10 C 0.738300 0.478500 -0.025500
C11 C 0.770100 0.517600 -0.076000
C12 C 0.905700 0.555300 -0.074700
C13 C 0.952500 0.534800 -0.023800
C14 C 1.083200 0.557200 0.004300
C15 C 1.068100 0.657300 0.051500
C16 C 1.181100 0.612300 -0.037900
O17 O 1.141100 0.320700 -0.008500
C18 C 1.132900 0.426100 0.027100
C19 C 1.180100 0.389800 0.076700
C20 C 1.218300 0.253500 0.072700
C21 C 1.192100 0.215100 0.021300
C22 C 1.208300 0.084300 -0.009000
C23 C 1.308400 0.100500 -0.056000
C24 C 1.262000 -0.020900 0.032200
O25 O 0.976000 0.023600 0.004800
C26 C 1.080100 0.038500 -0.032200
C27 C 1.037700 0.004300 -0.082200
C28 C 0.901100 -0.033100 -0.076700
C29 C 0.863700 -0.021300 -0.024300
C30 C 0.740600 -0.042400 0.008100
C31 C 0.760000 -0.145100 0.053300
C32 C 0.633700 -0.091500 -0.031700
H33 H 0.672000 0.058000 0.110000
H34 H 0.609000 0.320000 0.119000
H35 H 0.504000 0.494000 -0.062000
H36 H 0.428000 0.376000 -0.028000
H37 H 0.548000 0.335000 -0.075000
H38 H 0.540000 0.612000 0.024000
H39 H 0.637000 0.556000 0.074000
H40 H 0.481000 0.493000 0.068000
H41 H 0.723000 0.526000 -0.106000
H42 H 0.959000 0.595000 -0.103000
H43 H 1.166000 0.669000 0.075000
H44 H 1.017000 0.620000 0.079000
H45 H 1.054000 0.761000 0.035000
H46 H 1.198000 0.562000 -0.066000
H47 H 1.157000 0.707000 -0.049000
H48 H 1.268000 0.607000 -0.023000
H49 H 1.183000 0.445000 0.107000
H50 H 1.239000 0.204000 0.096000
H51 H 1.319000 0.013000 -0.075000
H52 H 1.394000 0.134000 -0.047000
H53 H 1.280000 0.166000 -0.084000
H54 H 1.312000 -0.083000 0.009000
H55 H 1.198000 -0.034000 0.067000
H56 H 1.341000 0.017000 0.043000
H57 H 1.092000 0.009000 -0.119000
H58 H 0.851000 -0.065000 -0.104000
H59 H 0.834000 -0.117000 0.077000
H60 H 0.783000 -0.238000 0.035000
H61 H 0.680000 -0.152000 0.075000
H62 H 0.534000 -0.099000 -0.015000
H63 H 0.626000 -0.027000 -0.063000
H64 H 0.656000 -0.179000 -0.050000
O65 O 0.806600 0.680100 0.248700
C66 C 0.912800 0.698300 0.283100
C67 C 0.877100 0.668400 0.335300
C68 C 0.739800 0.629200 0.334400
C69 C 0.704300 0.638400 0.281100
C70 C 0.572700 0.615800 0.251700
C71 C 0.592000 0.506900 0.207200
C72 C 0.469800 0.565300 0.294200
O73 O 0.513500 0.849800 0.257500
C74 C 0.521500 0.738300 0.224500
C75 C 0.482400 0.770100 0.174000
C76 C 0.444700 0.905700 0.175300
C77 C 0.465200 0.952500 0.226200
C78 C 0.442800 1.083200 0.254300
C79 C 0.342700 1.068100 0.301500
C80 C 0.387700 1.181100 0.212100
O81 O 0.679300 1.141100 0.241500
C82 C 0.573900 1.132900 0.277100
C83 C 0.610200 1.180100 0.326700
C84 C 0.746500 1.218300 0.322700
C85 C 0.784900 1.192100 0.271300
C86 C 0.915700 1.208300 0.241000
C87 C 0.899500 1.308400 0.194000
C88 C 1.020900 1.262000 0.282200
O89 O 0.976400 0.976000 0.254800
C90 C 0.961500 1.080100 0.217800
C91 C 0.995700 1.037700 0.167800
C92 C 1.033100 0.901100 0.173300
C93 C 1.021300 0.863700 0.225700
C94 C 1.042400 0.740600 0.258100
C95 C 1.145100 0.760000 0.303300
C96 C 1.091500 0.633700 0.218300
H97 H 0.942000 0.672000 0.360000
H98 H 0.680000 0.609000 0.369000
H99 H 0.506000 0.504000 0.188000
H100 H 0.624000 0.428000 0.222000
H101 H 0.665000 0.548000 0.175000
H102 H 0.388000 0.540000 0.274000
H103 H 0.444000 0.637000 0.324000
H104 H 0.507000 0.481000 0.318000
H105 H 0.474000 0.723000 0.144000
H106 H 0.405000 0.959000 0.147000
H107 H 0.331000 1.166000 0.325000
H108 H 0.380000 1.017000 0.329000
H109 H 0.239000 1.054000 0.285000
H110 H 0.438000 1.198000 0.184000
H111 H 0.293000 1.157000 0.201000
H112 H 0.393000 1.268000 0.227000
H113 H 0.555000 1.183000 0.357000
H114 H 0.796000 1.239000 0.346000
H115 H 0.987000 1.319000 0.175000
H116 H 0.866000 1.394000 0.203000
H117 H 0.834000 1.280000 0.166000
H118 H 1.083000 1.312000 0.259000
H119 H 1.034000 1.198000 0.317000
H120 H 0.983000 1.341000 0.293000
H121 H 0.991000 1.092000 0.131000
H122 H 1.065000 0.851000 0.146000
H123 H 1.117000 0.834000 0.327000
H124 H 1.238000 0.783000 0.285000
H125 H 1.152000 0.680000 0.325000
H126 H 1.099000 0.534000 0.235000
H127 H 1.027000 0.626000 0.187000
H128 H 1.179000 0.656000 0.200000
O129 O 0.319900 0.806600 0.498700
C130 C 0.301700 0.912800 0.533100
C131 C 0.331600 0.877100 0.585300
C132 C 0.370800 0.739800 0.584400
C133 C 0.361600 0.704300 0.531100
C134 C 0.384200 0.572700 0.501700
C135 C 0.493100 0.592000 0.457200
C136 C 0.434700 0.469800 0.544200
O137 O 0.150200 0.513500 0.507500
C138 C 0.261700 0.521500 0.474500
C139 C 0.229900 0.482400 0.424000
C140 C 0.094300 0.444700 0.425300
C141 C 0.047500 0.465200 0.476200
C142 C -0.083200 0.442800 0.504300
C143 C -0.068100 0.342700 0.551500
C144 C -0.181100 0.387700 0.462100
O145 O -0.141100 0.679300 0.491500
C146 C -0.132900 0.573900 0.527100
C147 C -0.180100 0.610200 0.576700
C148 C -0.218300 0.746500 0.572700
C149 C -0.192100 0.784900 0.521300
C150 C -0.208300 0.915700 0.491000
C151 C -0.308400 0.899500 0.444000
C152 C -0.262000 1.020900 0.532200
O153 O 0.024000 0.976400 0.504800
C154 C -0.080100 0.961500 0.467800
C155 C -0.037700 0.995700 0.417800
C156 C 0.098900 1.033100 0.423300
C157 C 0.136300 1.021300 0.475700
C158 C 0.259400 1.042400 0.508100
C159 C 0.240000 1.145100 0.553300
C160 C 0.366300 1.091500 0.468300
H161 H 0.328000 0.942000 0.610000
H162 H 0.391000 0.680000 0.619000
H163 H 0.496000 0.506000 0.438000
H164 H 0.572000 0.624000 0.472000
H165 H 0.452000 0.665000 0.425000
H166 H 0.460000 0.388000 0.524000
H167 H 0.363000 0.444000 0.574000
H168 H 0.519000 0.507000 0.568000
H169 H 0.277000 0.474000 0.394000
H170 H 0.041000 0.405000 0.397000
H171 H -0.166000 0.331000 0.575000
H172 H -0.017000 0.380000 0.579000
H173 H -0.054000 0.239000 0.535000
H174 H -0.198000 0.438000 0.434000
H175 H -0.157000 0.293000 0.451000
H176 H -0.268000 0.393000 0.477000
H177 H -0.183000 0.555000 0.607000
H178 H -0.239000 0.796000 0.596000
H179 H -0.319000 0.987000 0.425000
H180 H -0.394000 0.866000 0.453000
H181 H -0.280000 0.834000 0.416000
H182 H -0.312000 1.083000 0.509000
H183 H -0.198000 1.034000 0.567000
H184 H -0.341000 0.983000 0.543000
H185 H -0.092000 0.991000 0.381000
H186 H 0.149000 1.065000 0.396000
H187 H 0.166000 1.117000 0.577000
H188 H 0.217000 1.238000 0.535000
H189 H 0.320000 1.152000 0.575000
H190 H 0.466000 1.099000 0.485000
H191 H 0.374000 1.027000 0.437000
H192 H 0.344000 1.179000 0.450000
O193 O 0.193400 0.319900 0.748700
C194 C 0.087200 0.301700 0.783100
C195 C 0.122900 0.331600 0.835300
C196 C 0.260200 0.370800 0.834400
C197 C 0.295700 0.361600 0.781100
C198 C 0.427300 0.384200 0.751700
C199 C 0.408000 0.493100 0.707200
C200 C 0.530200 0.434700 0.794200
O201 O 0.486500 0.150200 0.757500
C202 C 0.478500 0.261700 0.724500
C203 C 0.517600 0.229900 0.674000
C204 C 0.555300 0.094300 0.675300
C205 C 0.534800 0.047500 0.726200
C206 C 0.557200 -0.083200 0.754300
C207 C 0.657300 -0.068100 0.801500
C208 C 0.612300 -0.181100 0.712100
O209 O 0.320700 -0.141100 0.741500
C210 C 0.426100 -0.132900 0.777100
C211 C 0.389800 -0.180100 0.826700
C212 C 0.253500 -0.218300 0.822700
C213 C 0.215100 -0.192100 0.771300
C214 C 0.084300 -0.208300 0.741000
C215 C 0.100500 -0.308400 0.694000
C216 C -0.020900 -0.262000 0.782200
O217 O 0.023600 0.024000 0.754800
C218 C 0.038500 -0.080100 0.717800
C219 C 0.004300 -0.037700 0.667800
C220 C -0.033100 0.098900 0.673300
C221 C -0.021300 0.136300 0.725700
C222 C -0.042400 0.259400 0.758100
C223 C -0.145100 0.240000 0.803300
C224 C -0.091500 0.366300 0.718300
H225 H 0.058000 0.328000 0.860000
H226 H 0.320000 0.391000 0.869000
H227 H 0.494000 0.496000 0.688000
H228 H 0.376000 0.572000 0.722000
H229 H 0.335000 0.452000 0.675000
H230 H 0.612000 0.460000 0.774000
H231 H 0.556000 0.363000 0.824000
H232 H 0.493000 0.519000 0.818000
H233 H 0.526000 0.277000 0.644000
H234 H 0.595000 0.041000 0.647000
H235 H 0.669000 -0.166000 0.825000
H236 H 0.620000 -0.017000 0.829000
H237 H 0.761000 -0.054000 0.785000
H238 H 0.562000 -0.198000 0.684000
H239 H 0.707000 -0.157000 0.701000
H240 H 0.607000 -0.268000 0.727000
H241 H 0.445000 -0.183000 0.857000
H242 H 0.204000 -0.239000 0.846000
H243 H 0.013000 -0.319000 0.675000
H244 H 0.134000 -0.394000 0.703000
H245 H 0.166000 -0.280000 0.666000
H246 H -0.083000 -0.312000 0.759000
H247 H -0.034000 -0.198000 0.817000
H248 H 0.017000 -0.341000 0.793000
H249 H 0.009000 -0.092000 0.631000
H250 H -0.065000 0.149000 0.646000
H251 H -0.117000 0.166000 0.827000
H252 H -0.238000 0.217000 0.785000
H253 H -0.152000 0.320000 0.825000
H254 H -0.099000 0.466000 0.735000
H255 H -0.027000 0.374000 0.687000
H256 H -0.179000 0.344000 0.700000

#END
