./KADTOY_from_xyz.cif_generated_by_CrystalShift
_symmetry_cell_setting triclinic
_symmetry_space_group_name_H-M 'P 1'
loop_
_symmetry_equiv_pos_site_id
_symmetry_equiv_pos_as_xyz
1 x,y,z
_cell_length_a 11.847000
_cell_length_b 14.654000
_cell_length_c 15.841000
_cell_angle_alpha 90.000000
_cell_angle_beta 90.000000
_cell_angle_gamma 90.000000
_cell_volume 2750.091664
loop_
_atom_site_label
_atom_site_type_symbol
_atom_site_fract_x
_atom_site_fract_y
_atom_site_fract_z
O1 O 0.321300 0.571500 -0.208000
O2 O 0.510700 0.553000 -0.303400
O3 O 0.705100 0.416700 -0.224200
O4 O 0.607400 0.316700 -0.297400
O5 O 0.296200 0.264500 0.328700
O6 O 0.391200 0.141300 0.293500
C7 C 0.426900 0.550600 -0.073700
C8 C 0.428200 0.578400 -0.166300
C9 C 0.515000 0.527100 -0.217100
C10 C 0.502900 0.419800 -0.207900
C11 C 0.507600 0.397900 -0.111300
C12 C 0.513400 0.294700 -0.091000
C13 C 0.552000 0.282100 -0.000600
C14 C 0.480500 0.331100 0.066300
C15 C 0.457100 0.431100 0.037800
C16 C 0.419100 0.446600 -0.056400
C17 C 0.383400 0.479900 0.102100
C18 C 0.408200 0.456200 0.191500
C19 C 0.476200 0.390400 0.217500
C20 C 0.546100 0.335300 0.153200
C21 C 0.571600 0.237400 0.185600
C22 C 0.594600 0.230200 0.281200
C23 C 0.498500 0.272700 0.333000
C24 C 0.489800 0.374600 0.312200
C25 C 0.586900 0.429900 0.350000
C26 C 0.596900 0.421100 0.446200
C27 C 0.613000 0.318900 0.464800
C28 C 0.520800 0.259400 0.430200
C29 C 0.612900 0.383900 -0.245400
C30 C 0.404000 0.378900 -0.257200
C31 C 0.295700 0.414000 -0.072600
C32 C 0.368000 0.278900 0.078600
C33 C 0.663100 0.384400 0.145300
C34 C 0.389600 0.224200 0.317700
C35 C 0.497500 0.460900 0.492600
C36 C 0.702800 0.470900 0.475700
H37 H 0.503800 0.575400 -0.045200
H38 H 0.355300 0.583100 -0.044100
H39 H 0.450300 0.649800 -0.163600
H40 H 0.596500 0.545800 -0.192000
H41 H 0.587700 0.427200 -0.093200
H42 H 0.572400 0.261900 -0.133200
H43 H 0.430800 0.264700 -0.099000
H44 H 0.550400 0.209900 0.013300
H45 H 0.637600 0.307000 0.004300
H46 H 0.539300 0.462800 0.036900
H47 H 0.296400 0.462800 0.089300
H48 H 0.395500 0.552400 0.094400
H49 H 0.366600 0.496400 0.239600
H50 H 0.645100 0.212300 0.152500
H51 H 0.499900 0.194700 0.170900
H52 H 0.672100 0.265700 0.295600
H53 H 0.602900 0.159200 0.298200
H54 H 0.414200 0.399900 0.342200
H55 H 0.664900 0.406700 0.322000
H56 H 0.574000 0.500900 0.334800
H57 H 0.616300 0.309900 0.532500
H58 H 0.692000 0.297300 0.437300
H59 H 0.543300 0.188900 0.441100
H60 H 0.443800 0.275000 0.463700
H61 H 0.324700 0.408500 -0.237600
H62 H 0.401500 0.306000 -0.247800
H63 H 0.418100 0.393500 -0.323200
H64 H 0.294200 0.341900 -0.086700
H65 H 0.270400 0.452100 -0.127800
H66 H 0.238000 0.428100 -0.021500
H67 H 0.306500 0.314000 0.117100
H68 H 0.379400 0.210400 0.102000
H69 H 0.338600 0.276300 0.014100
H70 H 0.708400 0.359400 0.090800
H71 H 0.712000 0.371300 0.201600
H72 H 0.649400 0.456900 0.138900
H73 H 0.423500 0.419300 0.482600
H74 H 0.484200 0.527600 0.465400
H75 H 0.512900 0.467700 0.559500
H76 H 0.774800 0.439300 0.445800
H77 H 0.706800 0.459900 0.543000
H78 H 0.703300 0.543300 0.462800
O79 O -0.178700 -0.071500 1.208000
O80 O 0.010700 -0.053000 1.303400
O81 O 0.205100 0.083300 1.224200
O82 O 0.107400 0.183300 1.297400
O83 O -0.203800 0.235500 0.671300
O84 O -0.108800 0.358700 0.706500
C85 C -0.073100 -0.050600 1.073700
C86 C -0.071800 -0.078400 1.166300
C87 C 0.015000 -0.027100 1.217100
C88 C 0.002900 0.080200 1.207900
C89 C 0.007600 0.102100 1.111300
C90 C 0.013400 0.205300 1.091000
C91 C 0.052000 0.217900 1.000600
C92 C -0.019500 0.168900 0.933700
C93 C -0.042900 0.068900 0.962200
C94 C -0.080900 0.053400 1.056400
C95 C -0.116600 0.020100 0.897900
C96 C -0.091800 0.043800 0.808500
C97 C -0.023800 0.109600 0.782500
C98 C 0.046100 0.164700 0.846800
C99 C 0.071600 0.262600 0.814400
C100 C 0.094600 0.269800 0.718800
C101 C -0.001500 0.227300 0.667000
C102 C -0.010200 0.125400 0.687800
C103 C 0.086900 0.070100 0.650000
C104 C 0.096900 0.078900 0.553800
C105 C 0.113000 0.181100 0.535200
C106 C 0.020800 0.240600 0.569800
C107 C 0.112900 0.116100 1.245400
C108 C -0.096000 0.121100 1.257200
C109 C -0.204300 0.086000 1.072600
C110 C -0.132000 0.221100 0.921400
C111 C 0.163100 0.115600 0.854700
C112 C -0.110400 0.275800 0.682300
C113 C -0.002500 0.039100 0.507400
C114 C 0.202800 0.029100 0.524300
H115 H 0.003800 -0.075400 1.045200
H116 H -0.144700 -0.083100 1.044100
H117 H -0.049700 -0.149800 1.163600
H118 H 0.096500 -0.045800 1.192000
H119 H 0.087700 0.072800 1.093200
H120 H 0.072400 0.238100 1.133200
H121 H -0.069200 0.235300 1.099000
H122 H 0.050400 0.290100 0.986700
H123 H 0.137600 0.193000 0.995700
H124 H 0.039300 0.037200 0.963100
H125 H -0.203600 0.037200 0.910700
H126 H -0.104500 -0.052400 0.905600
H127 H -0.133400 0.003600 0.760400
H128 H 0.145100 0.287700 0.847500
H129 H -0.000100 0.305300 0.829100
H130 H 0.172100 0.234300 0.704400
H131 H 0.102900 0.340800 0.701800
H132 H -0.085800 0.100100 0.657800
H133 H 0.164900 0.093300 0.678000
H134 H 0.074000 -0.000900 0.665200
H135 H 0.116300 0.190100 0.467500
H136 H 0.192000 0.202700 0.562700
H137 H 0.043300 0.311100 0.558900
H138 H -0.056200 0.225000 0.536300
H139 H -0.175300 0.091500 1.237600
H140 H -0.098500 0.194000 1.247800
H141 H -0.081900 0.106500 1.323200
H142 H -0.205800 0.158100 1.086700
H143 H -0.229600 0.047900 1.127800
H144 H -0.262000 0.071900 1.021500
H145 H -0.193500 0.186000 0.882900
H146 H -0.120600 0.289600 0.898000
H147 H -0.161400 0.223700 0.985900
H148 H 0.208400 0.140600 0.909200
H149 H 0.212000 0.128700 0.798400
H150 H 0.149400 0.043100 0.861100
H151 H -0.076500 0.080700 0.517400
H152 H -0.015800 -0.027600 0.534600
H153 H 0.012900 0.032300 0.440500
H154 H 0.274800 0.060700 0.554200
H155 H 0.206800 0.040100 0.457000
H156 H 0.203300 -0.043300 0.537200
O157 O 0.678700 1.071500 0.708000
O158 O 0.489300 1.053000 0.803400
O159 O 0.294900 0.916700 0.724200
O160 O 0.392600 0.816700 0.797400
O161 O 0.703800 0.764500 0.171300
O162 O 0.608800 0.641300 0.206500
C163 C 0.573100 1.050600 0.573700
C164 C 0.571800 1.078400 0.666300
C165 C 0.485000 1.027100 0.717100
C166 C 0.497100 0.919800 0.707900
C167 C 0.492400 0.897900 0.611300
C168 C 0.486600 0.794700 0.591000
C169 C 0.448000 0.782100 0.500600
C170 C 0.519500 0.831100 0.433700
C171 C 0.542900 0.931100 0.462200
C172 C 0.580900 0.946600 0.556400
C173 C 0.616600 0.979900 0.397900
C174 C 0.591800 0.956200 0.308500
C175 C 0.523800 0.890400 0.282500
C176 C 0.453900 0.835300 0.346800
C177 C 0.428400 0.737400 0.314400
C178 C 0.405400 0.730200 0.218800
C179 C 0.501500 0.772700 0.167000
C180 C 0.510200 0.874600 0.187800
C181 C 0.413100 0.929900 0.150000
C182 C 0.403100 0.921100 0.053800
C183 C 0.387000 0.818900 0.035200
C184 C 0.479200 0.759400 0.069800
C185 C 0.387100 0.883900 0.745400
C186 C 0.596000 0.878900 0.757200
C187 C 0.704300 0.914000 0.572600
C188 C 0.632000 0.778900 0.421400
C189 C 0.336900 0.884400 0.354700
C190 C 0.610400 0.724200 0.182300
C191 C 0.502500 0.960900 0.007400
C192 C 0.297200 0.970900 0.024300
H193 H 0.496200 1.075400 0.545200
H194 H 0.644700 1.083100 0.544100
H195 H 0.549700 1.149800 0.663600
H196 H 0.403500 1.045800 0.692000
H197 H 0.412300 0.927200 0.593200
H198 H 0.427600 0.761900 0.633200
H199 H 0.569200 0.764700 0.599000
H200 H 0.449600 0.709900 0.486700
H201 H 0.362400 0.807000 0.495700
H202 H 0.460700 0.962800 0.463100
H203 H 0.703600 0.962800 0.410700
H204 H 0.604500 1.052400 0.405600
H205 H 0.633400 0.996400 0.260400
H206 H 0.354900 0.712300 0.347500
H207 H 0.500100 0.694700 0.329100
H208 H 0.327900 0.765700 0.204400
H209 H 0.397100 0.659200 0.201800
H210 H 0.585800 0.899900 0.157800
H211 H 0.335100 0.906700 0.178000
H212 H 0.426000 1.000900 0.165200
H213 H 0.383700 0.809900 -0.032500
H214 H 0.308000 0.797300 0.062700
H215 H 0.456700 0.688900 0.058900
H216 H 0.556200 0.775000 0.036300
H217 H 0.675300 0.908500 0.737600
H218 H 0.598500 0.806000 0.747800
H219 H 0.581900 0.893500 0.823200
H220 H 0.705800 0.841900 0.586700
H221 H 0.729600 0.952100 0.627800
H222 H 0.762000 0.928100 0.521500
H223 H 0.693500 0.814000 0.382900
H224 H 0.620600 0.710400 0.398000
H225 H 0.661400 0.776300 0.485900
H226 H 0.291600 0.859400 0.409200
H227 H 0.288000 0.871300 0.298400
H228 H 0.350600 0.956900 0.361100
H229 H 0.576500 0.919300 0.017400
H230 H 0.515800 1.027600 0.034600
H231 H 0.487100 0.967700 -0.059500
H232 H 0.225200 0.939300 0.054200
H233 H 0.293200 0.959900 -0.043000
H234 H 0.296700 1.043300 0.037200
O235 O 1.178700 0.428500 0.292000
O236 O 0.989300 0.447000 0.196600
O237 O 0.794900 0.583300 0.275800
O238 O 0.892600 0.683300 0.202600
O239 O 1.203800 0.735500 0.828700
O240 O 1.108800 0.858700 0.793500
C241 C 1.073100 0.449400 0.426300
C242 C 1.071800 0.421600 0.333700
C243 C 0.985000 0.472900 0.282900
C244 C 0.997100 0.580200 0.292100
C245 C 0.992400 0.602100 0.388700
C246 C 0.986600 0.705300 0.409000
C247 C 0.948000 0.717900 0.499400
C248 C 1.019500 0.668900 0.566300
C249 C 1.042900 0.568900 0.537800
C250 C 1.080900 0.553400 0.443600
C251 C 1.116600 0.520100 0.602100
C252 C 1.091800 0.543800 0.691500
C253 C 1.023800 0.609600 0.717500
C254 C 0.953900 0.664700 0.653200
C255 C 0.928400 0.762600 0.685600
C256 C 0.905400 0.769800 0.781200
C257 C 1.001500 0.727300 0.833000
C258 C 1.010200 0.625400 0.812200
C259 C 0.913100 0.570100 0.850000
C260 C 0.903100 0.578900 0.946200
C261 C 0.887000 0.681100 0.964800
C262 C 0.979200 0.740600 0.930200
C263 C 0.887100 0.616100 0.254600
C264 C 1.096000 0.621100 0.242800
C265 C 1.204300 0.586000 0.427400
C266 C 1.132000 0.721100 0.578600
C267 C 0.836900 0.615600 0.645300
C268 C 1.110400 0.775800 0.817700
C269 C 1.002500 0.539100 0.992600
C270 C 0.797200 0.529100 0.975700
H271 H 0.996200 0.424600 0.454800
H272 H 1.144700 0.416900 0.455900
H273 H 1.049700 0.350200 0.336400
H274 H 0.903500 0.454200 0.308000
H275 H 0.912300 0.572800 0.406800
H276 H 0.927600 0.738100 0.366800
H277 H 1.069200 0.735300 0.401000
H278 H 0.949600 0.790100 0.513300
H279 H 0.862400 0.693000 0.504300
H280 H 0.960700 0.537200 0.536900
H281 H 1.203600 0.537200 0.589300
H282 H 1.104500 0.447600 0.594400
H283 H 1.133400 0.503600 0.739600
H284 H 0.854900 0.787700 0.652500
H285 H 1.000100 0.805300 0.670900
H286 H 0.827900 0.734300 0.795600
H287 H 0.897100 0.840800 0.798200
H288 H 1.085800 0.600100 0.842200
H289 H 0.835100 0.593300 0.822000
H290 H 0.926000 0.499100 0.834800
H291 H 0.883700 0.690100 1.032500
H292 H 0.808000 0.702700 0.937300
H293 H 0.956700 0.811100 0.941100
H294 H 1.056200 0.725000 0.963700
H295 H 1.175300 0.591500 0.262400
H296 H 1.098500 0.694000 0.252200
H297 H 1.081900 0.606500 0.176800
H298 H 1.205800 0.658100 0.413300
H299 H 1.229600 0.547900 0.372200
H300 H 1.262000 0.571900 0.478500
H301 H 1.193500 0.686000 0.617100
H302 H 1.120600 0.789600 0.602000
H303 H 1.161400 0.723700 0.514100
H304 H 0.791600 0.640600 0.590800
H305 H 0.788000 0.628700 0.701600
H306 H 0.850600 0.543100 0.638900
H307 H 1.076500 0.580700 0.982600
H308 H 1.015800 0.472400 0.965400
H309 H 0.987100 0.532300 1.059500
H310 H 0.725200 0.560700 0.945800
H311 H 0.793200 0.540100 1.043000
H312 H 0.796700 0.456700 0.962800

#END
