./KAFBOJ01_from_xyz.cif_generated_by_CrystalShift
_symmetry_cell_setting triclinic
_symmetry_space_group_name_H-M 'P 1'
loop_
_symmetry_equiv_pos_site_id
_symmetry_equiv_pos_as_xyz
1 x,y,z
_cell_length_a 5.514300
_cell_length_b 23.997500
_cell_length_c 7.284200
_cell_angle_alpha 90.000000
_cell_angle_beta 110.849800
_cell_angle_gamma 90.000000
_cell_volume 900.793583
loop_
_atom_site_label
_atom_site_type_symbol
_atom_site_fract_x
_atom_site_fract_y
_atom_site_fract_z
I1 I 0.441720 0.384700 0.509790
C2 C 0.793000 0.405200 0.724800
C3 C 0.913000 0.451100 0.702600
C4 C 1.167000 0.472400 0.839800
O5 O 1.272700 0.509700 0.769800
O6 O 1.263200 0.453900 1.014800
C7 C 0.882000 0.362700 0.891100
C8 C 1.085000 0.326300 0.895000
C9 C 1.166000 0.285300 1.038400
C10 C 1.053000 0.281200 1.185000
C11 C 0.855000 0.318400 1.179000
C12 C 0.779000 0.358500 1.037400
H13 H 0.830200 0.472200 0.588800
H14 H 1.165400 0.329600 0.803100
H15 H 1.294400 0.260700 1.037800
H16 H 1.109000 0.254100 1.283000
H17 H 0.777400 0.316500 1.273300
H18 H 0.651700 0.383500 1.038800
H19 H 1.277200 0.463400 1.126600
I20 I 1.058280 0.884700 0.990210
C21 C 0.707000 0.905200 0.775200
C22 C 0.587000 0.951100 0.797400
C23 C 0.333000 0.972400 0.660200
O24 O 0.227300 1.009700 0.730200
O25 O 0.236800 0.953900 0.485200
C26 C 0.618000 0.862700 0.608900
C27 C 0.415000 0.826300 0.605000
C28 C 0.334000 0.785300 0.461600
C29 C 0.447000 0.781200 0.315000
C30 C 0.645000 0.818400 0.321000
C31 C 0.721000 0.858500 0.462600
H32 H 0.669800 0.972200 0.911200
H33 H 0.334600 0.829600 0.696900
H34 H 0.205600 0.760700 0.462200
H35 H 0.391000 0.754100 0.217000
H36 H 0.722600 0.816500 0.226700
H37 H 0.848300 0.883500 0.461200
H38 H 0.222800 0.963400 0.373400
I39 I 0.558280 0.615300 0.490210
C40 C 0.207000 0.594800 0.275200
C41 C 0.087000 0.548900 0.297400
C42 C -0.167000 0.527600 0.160200
O43 O -0.272700 0.490300 0.230200
O44 O -0.263200 0.546100 -0.014800
C45 C 0.118000 0.637300 0.108900
C46 C -0.085000 0.673700 0.105000
C47 C -0.166000 0.714700 -0.038400
C48 C -0.053000 0.718800 -0.185000
C49 C 0.145000 0.681600 -0.179000
C50 C 0.221000 0.641500 -0.037400
H51 H 0.169800 0.527800 0.411200
H52 H -0.165400 0.670400 0.196900
H53 H -0.294400 0.739300 -0.037800
H54 H -0.109000 0.745900 -0.283000
H55 H 0.222600 0.683500 -0.273300
H56 H 0.348300 0.616500 -0.038800
H57 H -0.277200 0.536600 -0.126600
I58 I -0.058280 0.115300 0.009790
C59 C 0.293000 0.094800 0.224800
C60 C 0.413000 0.048900 0.202600
C61 C 0.667000 0.027600 0.339800
O62 O 0.772700 -0.009700 0.269800
O63 O 0.763200 0.046100 0.514800
C64 C 0.382000 0.137300 0.391100
C65 C 0.585000 0.173700 0.395000
C66 C 0.666000 0.214700 0.538400
C67 C 0.553000 0.218800 0.685000
C68 C 0.355000 0.181600 0.679000
C69 C 0.279000 0.141500 0.537400
H70 H 0.330200 0.027800 0.088800
H71 H 0.665400 0.170400 0.303100
H72 H 0.794400 0.239300 0.537800
H73 H 0.609000 0.245900 0.783000
H74 H 0.277400 0.183500 0.773300
H75 H 0.151700 0.116500 0.538800
H76 H 0.777200 0.036600 0.626600

#END
