./KAFBOJ_from_xyz.cif_generated_by_CrystalShift
_symmetry_cell_setting triclinic
_symmetry_space_group_name_H-M 'P 1'
loop_
_symmetry_equiv_pos_site_id
_symmetry_equiv_pos_as_xyz
1 x,y,z
_cell_length_a 5.562900
_cell_length_b 23.988000
_cell_length_c 7.332500
_cell_angle_alpha 90.000000
_cell_angle_beta 110.761000
_cell_angle_gamma 90.000000
_cell_volume 914.934855
loop_
_atom_site_label
_atom_site_type_symbol
_atom_site_fract_x
_atom_site_fract_y
_atom_site_fract_z
I1 I 0.451770 0.114196 0.000550
O2 O 1.275000 -0.009710 0.272700
O3 O 1.264700 0.046410 0.509400
C4 C 0.781100 0.142300 0.518700
C5 C 0.862400 0.182500 0.662200
C6 C 1.051100 0.218800 0.665300
C7 C 1.164300 0.214780 0.527500
C8 C 1.087600 0.173810 0.386100
C9 C 0.892400 0.137120 0.380800
C10 C 0.802600 0.094620 0.223800
C11 C 0.918300 0.047610 0.202300
C12 C 1.168900 0.027920 0.340100
H13 H 0.644000 0.118600 0.499000
H14 H 0.797000 0.180000 0.761000
H15 H 1.094000 0.247000 0.765000
H16 H 1.299000 0.238600 0.541000
H17 H 1.168000 0.172000 0.295000
H18 H 0.849000 0.022000 0.095000
H19 H 1.404000 0.029000 0.566000
I20 I -0.048230 0.385804 0.500550
O21 O 0.775000 0.509710 0.772700
O22 O 0.764700 0.453590 1.009400
C23 C 0.281100 0.357700 1.018700
C24 C 0.362400 0.317500 1.162200
C25 C 0.551100 0.281200 1.165300
C26 C 0.664300 0.285220 1.027500
C27 C 0.587600 0.326190 0.886100
C28 C 0.392400 0.362880 0.880800
C29 C 0.302600 0.405380 0.723800
C30 C 0.418300 0.452390 0.702300
C31 C 0.668900 0.472080 0.840100
H32 H 0.144000 0.381400 0.999000
H33 H 0.297000 0.320000 1.261000
H34 H 0.594000 0.253000 1.265000
H35 H 0.799000 0.261400 1.041000
H36 H 0.668000 0.328000 0.795000
H37 H 0.349000 0.478000 0.595000
H38 H 0.904000 0.471000 1.066000
I39 I 0.548230 0.885804 0.999450
O40 O -0.275000 1.009710 0.727300
O41 O -0.264700 0.953590 0.490600
C42 C 0.218900 0.857700 0.481300
C43 C 0.137600 0.817500 0.337800
C44 C -0.051100 0.781200 0.334700
C45 C -0.164300 0.785220 0.472500
C46 C -0.087600 0.826190 0.613900
C47 C 0.107600 0.862880 0.619200
C48 C 0.197400 0.905380 0.776200
C49 C 0.081700 0.952390 0.797700
C50 C -0.168900 0.972080 0.659900
H51 H 0.356000 0.881400 0.501000
H52 H 0.203000 0.820000 0.239000
H53 H -0.094000 0.753000 0.235000
H54 H -0.299000 0.761400 0.459000
H55 H -0.168000 0.828000 0.705000
H56 H 0.151000 0.978000 0.905000
H57 H -0.404000 0.971000 0.434000
I58 I 1.048230 0.614196 0.499450
O59 O 0.225000 0.490290 0.227300
O60 O 0.235300 0.546410 -0.009400
C61 C 0.718900 0.642300 -0.018700
C62 C 0.637600 0.682500 -0.162200
C63 C 0.448900 0.718800 -0.165300
C64 C 0.335700 0.714780 -0.027500
C65 C 0.412400 0.673810 0.113900
C66 C 0.607600 0.637120 0.119200
C67 C 0.697400 0.594620 0.276200
C68 C 0.581700 0.547610 0.297700
C69 C 0.331100 0.527920 0.159900
H70 H 0.856000 0.618600 0.001000
H71 H 0.703000 0.680000 -0.261000
H72 H 0.406000 0.747000 -0.265000
H73 H 0.201000 0.738600 -0.041000
H74 H 0.332000 0.672000 0.205000
H75 H 0.651000 0.522000 0.405000
H76 H 0.096000 0.529000 -0.066000

#END
