
#######################################################################
#
#                 Cambridge Crystallographic Data Centre
#                                CCDC 
#
#######################################################################
#
# If this CIF has been generated from an entry in the Cambridge 
# Structural Database, then it will include bibliographic, chemical, 
# crystal, experimental, refinement or atomic coordinate data resulting 
# from the CCDC's data processing and validation procedures.
#
#######################################################################

data_KAFDIE02
_symmetry_cell_setting           monoclinic
_symmetry_space_group_name_H-M   'P 21/n'
_symmetry_Int_Tables_number      14
_space_group_name_Hall           '-P 2yn'
loop_
_symmetry_equiv_pos_site_id
_symmetry_equiv_pos_as_xyz
1 x,y,z
2 1/2-x,1/2+y,1/2-z
3 -x,-y,-z
4 1/2+x,1/2-y,1/2+z
_cell_length_a                   5.6984(13)
_cell_length_b                   8.9493(14)
_cell_length_c                   22.813(2)
_cell_angle_alpha                90.00
_cell_angle_beta                 93.860(2)
_cell_angle_gamma                90.00
_cell_volume                     1160.75
loop_
_atom_site_label
_atom_site_type_symbol
_atom_site_fract_x
_atom_site_fract_y
_atom_site_fract_z
N1 N 0.9364(3) 0.1808(2) 0.14592(8)
H1 H 1.0442 0.2390 0.1611
N2 N 0.7454(3) 0.1467(2) 0.17756(8)
N3 N 0.7772(3) 0.0474(2) 0.06910(8)
H2 H 0.6548 0.0349 0.0887
H3 H 0.7820 0.0093 0.0346
N4 N 0.0633(3) 0.1090(2) 0.39241(9)
S1 S 1.20240(11) 0.15551(9) 0.05735(3)
C1 C 0.9570(4) 0.1249(2) 0.09195(9)
C2 C 0.7371(4) 0.2136(3) 0.22678(9)
H4 H 0.8539 0.2829 0.2374
C3 C 0.5554(4) 0.1872(2) 0.26677(9)
C4 C 0.5549(4) 0.2699(3) 0.31838(10)
H5 H 0.6676 0.3441 0.3253
C5 C 0.3937(4) 0.2457(3) 0.35945(10)
H6 H 0.3985 0.3044 0.3932
C6 C 0.2228(4) 0.1346(2) 0.35143(9)
C7 C 0.2210(4) 0.0514(3) 0.29886(9)
H7 H 0.1082 -0.0226 0.2916
C8 C 0.3831(4) 0.0782(3) 0.25809(9)
H8 H 0.3771 0.0217 0.2238
C9 C -0.1011(4) -0.0139(3) 0.38610(12)
H9 H -0.1877 -0.0074 0.3486
H10 H -0.2082 -0.0092 0.4168
H11 H -0.0166 -0.1067 0.3887
C10 C 0.0832(6) 0.1853(3) 0.44832(12)
H12 H 0.2193 0.1495 0.4711
H13 H -0.0549 0.1664 0.4690
H14 H 0.0984 0.2908 0.4419
N1 N -0.4364(3) 0.6808(2) 0.35408(8)
H1 H -0.5442 0.7390 0.3389
N2 N -0.2454(3) 0.6467(2) 0.32244(8)
N3 N -0.2772(3) 0.5474(2) 0.43090(8)
H2 H -0.1548 0.5349 0.4113
H3 H -0.2820 0.5093 0.4654
N4 N 0.4367(3) 0.6090(2) 0.10759(9)
S1 S -0.70240(11) 0.65551(9) 0.44265(3)
C1 C -0.4570(4) 0.6249(2) 0.40805(9)
C2 C -0.2371(4) 0.7136(3) 0.27322(9)
H4 H -0.3539 0.7829 0.2626
C3 C -0.0554(4) 0.6872(2) 0.23323(9)
C4 C -0.0549(4) 0.7699(3) 0.18162(10)
H5 H -0.1676 0.8441 0.1747
C5 C 0.1063(4) 0.7457(3) 0.14055(10)
H6 H 0.1015 0.8044 0.1068
C6 C 0.2772(4) 0.6346(2) 0.14857(9)
C7 C 0.2790(4) 0.5514(3) 0.20114(9)
H7 H 0.3918 0.4774 0.2084
C8 C 0.1169(4) 0.5782(3) 0.24191(9)
H8 H 0.1229 0.5217 0.2762
C9 C 0.6011(4) 0.4861(3) 0.11390(12)
H9 H 0.6877 0.4926 0.1514
H10 H 0.7082 0.4908 0.0832
H11 H 0.5166 0.3933 0.1113
C10 C 0.4168(6) 0.6853(3) 0.05168(12)
H12 H 0.2807 0.6495 0.0289
H13 H 0.5549 0.6664 0.0310
H14 H 0.4016 0.7908 0.0581
N1 N 0.0636(3) 0.8192(2) 0.85408(8)
H1 H -0.0442 0.7610 0.8389
N2 N 0.2546(3) 0.8533(2) 0.82244(8)
N3 N 0.2228(3) 0.9526(2) 0.93090(8)
H2 H 0.3452 0.9651 0.9113
H3 H 0.2180 0.9907 0.9654
N4 N 0.9367(3) 0.8910(2) 0.60759(9)
S1 S -0.20240(11) 0.84449(9) 0.94265(3)
C1 C 0.0430(4) 0.8751(2) 0.90805(9)
C2 C 0.2629(4) 0.7864(3) 0.77322(9)
H4 H 0.1461 0.7171 0.7626
C3 C 0.4446(4) 0.8128(2) 0.73323(9)
C4 C 0.4451(4) 0.7301(3) 0.68162(10)
H5 H 0.3324 0.6559 0.6747
C5 C 0.6063(4) 0.7543(3) 0.64055(10)
H6 H 0.6015 0.6956 0.6068
C6 C 0.7772(4) 0.8654(2) 0.64857(9)
C7 C 0.7790(4) 0.9486(3) 0.70114(9)
H7 H 0.8918 1.0226 0.7084
C8 C 0.6169(4) 0.9218(3) 0.74191(9)
H8 H 0.6229 0.9783 0.7762
C9 C 1.1011(4) 1.0139(3) 0.61390(12)
H9 H 1.1877 1.0074 0.6514
H10 H 1.2082 1.0092 0.5832
H11 H 1.0166 1.1067 0.6113
C10 C 0.9168(6) 0.8147(3) 0.55168(12)
H12 H 0.7807 0.8505 0.5289
H13 H 1.0549 0.8336 0.5310
H14 H 0.9016 0.7092 0.5581
N1 N 1.4364(3) 0.3192(2) 0.64592(8)
H1 H 1.5442 0.2610 0.6611
N2 N 1.2454(3) 0.3533(2) 0.67756(8)
N3 N 1.2772(3) 0.4526(2) 0.56910(8)
H2 H 1.1548 0.4651 0.5887
H3 H 1.2820 0.4907 0.5346
N4 N 0.5633(3) 0.3910(2) 0.89241(9)
S1 S 1.70240(11) 0.34449(9) 0.55735(3)
C1 C 1.4570(4) 0.3751(2) 0.59195(9)
C2 C 1.2371(4) 0.2864(3) 0.72678(9)
H4 H 1.3539 0.2171 0.7374
C3 C 1.0554(4) 0.3128(2) 0.76677(9)
C4 C 1.0549(4) 0.2301(3) 0.81838(10)
H5 H 1.1676 0.1559 0.8253
C5 C 0.8937(4) 0.2543(3) 0.85945(10)
H6 H 0.8985 0.1956 0.8932
C6 C 0.7228(4) 0.3654(2) 0.85143(9)
C7 C 0.7210(4) 0.4486(3) 0.79886(9)
H7 H 0.6082 0.5226 0.7916
C8 C 0.8831(4) 0.4218(3) 0.75809(9)
H8 H 0.8771 0.4783 0.7238
C9 C 0.3989(4) 0.5139(3) 0.88610(12)
H9 H 0.3123 0.5074 0.8486
H10 H 0.2918 0.5092 0.9168
H11 H 0.4834 0.6067 0.8887
C10 C 0.5832(6) 0.3147(3) 0.94832(12)
H12 H 0.7193 0.3505 0.9711
H13 H 0.4451 0.3336 0.9690
H14 H 0.5984 0.2092 0.9419

#END
