
#######################################################################
#
#                 Cambridge Crystallographic Data Centre
#                                CCDC 
#
#######################################################################
#
# If this CIF has been generated from an entry in the Cambridge 
# Structural Database, then it will include bibliographic, chemical, 
# crystal, experimental, refinement or atomic coordinate data resulting 
# from the CCDC's data processing and validation procedures.
#
#######################################################################

data_KAFQOX
_symmetry_cell_setting           monoclinic
_symmetry_space_group_name_H-M   'P 2/n'
_symmetry_Int_Tables_number      13
_space_group_name_Hall           '-P 2yac'
loop_
_symmetry_equiv_pos_site_id
_symmetry_equiv_pos_as_xyz
1 x,y,z
2 1/2-x,y,1/2-z
3 -x,-y,-z
4 1/2+x,-y,1/2+z
_cell_length_a                   17.922(4)
_cell_length_b                   3.933(1)
_cell_length_c                   34.624(7)
_cell_angle_alpha                90
_cell_angle_beta                 92.58(3)
_cell_angle_gamma                90
_cell_volume                     2438.08
loop_
_atom_site_label
_atom_site_type_symbol
_atom_site_fract_x
_atom_site_fract_y
_atom_site_fract_z
N1 N 0.4541(2) 0.0790(7) 0.6995(1)
N2 N 0.3869(3) 0.1281(12) 0.5830(1)
O1 O 0.4751(2) 0.0649(8) 0.7353(1)
O2 O 0.3310(3) 0.2864(13) 0.5739(1)
O3 O 0.4247(2) -0.0176(12) 0.5592(1)
C1 C 0.4985(2) -0.0605(10) 0.6724(1)
C2 C 0.4768(2) -0.0456(10) 0.6345(1)
C3 C 0.4094(2) 0.1115(10) 0.6237(1)
C4 C 0.3650(2) 0.2520(10) 0.6505(1)
C5 C 0.3871(2) 0.2351(9) 0.6894(1)
C6 C 0.3447(2) 0.3811(11) 0.7213(1)
C7 C 0.5689(2) -0.2207(11) 0.6871(1)
N1 N 0.0459(2) 0.0790(7) 0.8005(1)
N2 N 0.1131(3) 0.1281(12) 0.9170(1)
O1 O 0.0249(2) 0.0649(8) 0.7647(1)
O2 O 0.1690(3) 0.2864(13) 0.9261(1)
O3 O 0.0753(2) -0.0176(12) 0.9408(1)
C1 C 0.0015(2) -0.0605(10) 0.8276(1)
C2 C 0.0232(2) -0.0456(10) 0.8655(1)
C3 C 0.0906(2) 0.1115(10) 0.8763(1)
C4 C 0.1350(2) 0.2520(10) 0.8495(1)
C5 C 0.1129(2) 0.2351(9) 0.8106(1)
C6 C 0.1553(2) 0.3811(11) 0.7787(1)
C7 C -0.0689(2) -0.2207(11) 0.8129(1)
N1 N 0.5459(2) 0.9210(7) 0.3005(1)
N2 N 0.6131(3) 0.8719(12) 0.4170(1)
O1 O 0.5249(2) 0.9351(8) 0.2647(1)
O2 O 0.6690(3) 0.7136(13) 0.4261(1)
O3 O 0.5753(2) 1.0176(12) 0.4408(1)
C1 C 0.5015(2) 1.0605(10) 0.3276(1)
C2 C 0.5232(2) 1.0456(10) 0.3655(1)
C3 C 0.5906(2) 0.8885(10) 0.3763(1)
C4 C 0.6350(2) 0.7480(10) 0.3495(1)
C5 C 0.6129(2) 0.7649(9) 0.3106(1)
C6 C 0.6553(2) 0.6189(11) 0.2787(1)
C7 C 0.4311(2) 1.2207(11) 0.3129(1)
N1 N 0.9541(2) 0.9210(7) 0.1995(1)
N2 N 0.8869(3) 0.8719(12) 0.0830(1)
O1 O 0.9751(2) 0.9351(8) 0.2353(1)
O2 O 0.8310(3) 0.7136(13) 0.0739(1)
O3 O 0.9247(2) 1.0176(12) 0.0592(1)
C1 C 0.9985(2) 1.0605(10) 0.1724(1)
C2 C 0.9768(2) 1.0456(10) 0.1345(1)
C3 C 0.9094(2) 0.8885(10) 0.1237(1)
C4 C 0.8650(2) 0.7480(10) 0.1505(1)
C5 C 0.8871(2) 0.7649(9) 0.1894(1)
C6 C 0.8447(2) 0.6189(11) 0.2213(1)
C7 C 1.0689(2) 1.2207(11) 0.1871(1)
N3 N 0.5232(2) 0.4817(7) 0.8748(1)
N4 N 0.3292(2) -0.0594(8) 0.8424(1)
O4 O 0.5829(2) 0.6506(7) 0.8845(1)
O5 O 0.3167(2) -0.1190(10) 0.8085(1)
O6 O 0.2893(2) -0.1569(9) 0.8678(1)
C8 C 0.5091(2) 0.4017(9) 0.8364(1)
C9 C 0.4452(2) 0.2245(10) 0.8262(1)
C10 C 0.3969(2) 0.1362(9) 0.8539(1)
C11 C 0.4107(2) 0.2161(9) 0.8919(1)
C12 C 0.4750(2) 0.3927(9) 0.9028(1)
C13 C 0.4972(2) 0.4892(11) 0.9427(1)
C14 C 0.5656(2) 0.5039(11) 0.8090(1)
N3 N -0.0232(2) 0.4817(7) 0.6252(1)
N4 N 0.1708(2) -0.0594(8) 0.6576(1)
O4 O -0.0829(2) 0.6506(7) 0.6155(1)
O5 O 0.1833(2) -0.1190(10) 0.6915(1)
O6 O 0.2107(2) -0.1569(9) 0.6322(1)
C8 C -0.0091(2) 0.4017(9) 0.6636(1)
C9 C 0.0548(2) 0.2245(10) 0.6738(1)
C10 C 0.1031(2) 0.1362(9) 0.6461(1)
C11 C 0.0893(2) 0.2161(9) 0.6081(1)
C12 C 0.0250(2) 0.3927(9) 0.5972(1)
C13 C 0.0028(2) 0.4892(11) 0.5573(1)
C14 C -0.0656(2) 0.5039(11) 0.6910(1)
N3 N 0.4768(2) 0.5183(7) 0.1252(1)
N4 N 0.6708(2) 1.0594(8) 0.1576(1)
O4 O 0.4171(2) 0.3494(7) 0.1155(1)
O5 O 0.6833(2) 1.1190(10) 0.1915(1)
O6 O 0.7107(2) 1.1569(9) 0.1322(1)
C8 C 0.4909(2) 0.5983(9) 0.1636(1)
C9 C 0.5548(2) 0.7755(10) 0.1738(1)
C10 C 0.6031(2) 0.8638(9) 0.1461(1)
C11 C 0.5893(2) 0.7839(9) 0.1081(1)
C12 C 0.5250(2) 0.6073(9) 0.0972(1)
C13 C 0.5028(2) 0.5108(11) 0.0573(1)
C14 C 0.4344(2) 0.4961(11) 0.1910(1)
N3 N 1.0232(2) 0.5183(7) 0.3748(1)
N4 N 0.8292(2) 1.0594(8) 0.3424(1)
O4 O 1.0829(2) 0.3494(7) 0.3845(1)
O5 O 0.8167(2) 1.1190(10) 0.3085(1)
O6 O 0.7893(2) 1.1569(9) 0.3678(1)
C8 C 1.0091(2) 0.5983(9) 0.3364(1)
C9 C 0.9452(2) 0.7755(10) 0.3262(1)
C10 C 0.8969(2) 0.8638(9) 0.3539(1)
C11 C 0.9107(2) 0.7839(9) 0.3919(1)
C12 C 0.9750(2) 0.6073(9) 0.4028(1)
C13 C 0.9972(2) 0.5108(11) 0.4427(1)
C14 C 1.0656(2) 0.4961(11) 0.3090(1)
N5 N 0.1734(2) 0.6860(8) 0.0794(1)
N6 N 0.3233(2) 0.8873(10) -0.0063(10)
O7 O 0.1264(2) 0.6314(8) 0.1056(1)
O8 O 0.3112(2) 0.7721(12) -0.0378(1)
O9 O 0.3788(2) 1.0599(10) 0.0027(1)
C15 C 0.2397(2) 0.8464(9) 0.0895(1)
C16 C 0.2901(2) 0.9110(10) 0.0617(1)
C17 C 0.2727(2) 0.8149(9) 0.0239(1)
C18 C 0.2054(2) 0.6522(10) 0.0142(1)
C19 C 0.1560(2) 0.5902(10) 0.0422(1)
C20 C 0.0826(2) 0.4265(12) 0.0345(1)
C21 C 0.2524(3) 0.9397(12) 0.1307(1)
N5 N 0.3266(2) 0.6860(8) 0.4206(1)
N6 N 0.1767(2) 0.8873(10) 0.5063(10)
O7 O 0.3736(2) 0.6314(8) 0.3944(1)
O8 O 0.1888(2) 0.7721(12) 0.5378(1)
O9 O 0.1212(2) 1.0599(10) 0.4973(1)
C15 C 0.2603(2) 0.8464(9) 0.4105(1)
C16 C 0.2099(2) 0.9110(10) 0.4383(1)
C17 C 0.2273(2) 0.8149(9) 0.4761(1)
C18 C 0.2946(2) 0.6522(10) 0.4858(1)
C19 C 0.3440(2) 0.5902(10) 0.4578(1)
C20 C 0.4174(2) 0.4265(12) 0.4655(1)
C21 C 0.2476(3) 0.9397(12) 0.3693(1)
N5 N 0.8266(2) 0.3140(8) 0.9206(1)
N6 N 0.6767(2) 0.1127(10) 1.0063(10)
O7 O 0.8736(2) 0.3686(8) 0.8944(1)
O8 O 0.6888(2) 0.2279(12) 1.0378(1)
O9 O 0.6212(2) -0.0599(10) 0.9973(1)
C15 C 0.7603(2) 0.1536(9) 0.9105(1)
C16 C 0.7099(2) 0.0890(10) 0.9383(1)
C17 C 0.7273(2) 0.1851(9) 0.9761(1)
C18 C 0.7946(2) 0.3478(10) 0.9858(1)
C19 C 0.8440(2) 0.4098(10) 0.9578(1)
C20 C 0.9174(2) 0.5735(12) 0.9655(1)
C21 C 0.7476(3) 0.0603(12) 0.8693(1)
N5 N 0.6734(2) 0.3140(8) 0.5794(1)
N6 N 0.8233(2) 0.1127(10) 0.4937(10)
O7 O 0.6264(2) 0.3686(8) 0.6056(1)
O8 O 0.8112(2) 0.2279(12) 0.4622(1)
O9 O 0.8788(2) -0.0599(10) 0.5027(1)
C15 C 0.7397(2) 0.1536(9) 0.5895(1)
C16 C 0.7901(2) 0.0890(10) 0.5617(1)
C17 C 0.7727(2) 0.1851(9) 0.5239(1)
C18 C 0.7054(2) 0.3478(10) 0.5142(1)
C19 C 0.6560(2) 0.4098(10) 0.5422(1)
C20 C 0.5826(2) 0.5735(12) 0.5345(1)
C21 C 0.7524(3) 0.0603(12) 0.6307(1)

#END
