
#######################################################################
#
#                 Cambridge Crystallographic Data Centre
#                                CCDC 
#
#######################################################################
#
# If this CIF has been generated from an entry in the Cambridge 
# Structural Database, then it will include bibliographic, chemical, 
# crystal, experimental, refinement or atomic coordinate data resulting 
# from the CCDC's data processing and validation procedures.
#
#######################################################################

data_KAFVUI
_symmetry_cell_setting           orthorhombic
_symmetry_space_group_name_H-M   'P 21 21 21'
_symmetry_Int_Tables_number      19
_space_group_name_Hall           'P 2ac 2ab'
loop_
_symmetry_equiv_pos_site_id
_symmetry_equiv_pos_as_xyz
1 x,y,z
2 1/2-x,-y,1/2+z
3 1/2+x,1/2-y,-z
4 -x,1/2+y,1/2-z
_cell_length_a                   4.667(1)
_cell_length_b                   16.663(1)
_cell_length_c                   18.498(3)
_cell_angle_alpha                90
_cell_angle_beta                 90
_cell_angle_gamma                90
_cell_volume                     1438.52
loop_
_atom_site_label
_atom_site_type_symbol
_atom_site_fract_x
_atom_site_fract_y
_atom_site_fract_z
C1 C 0.1494(6) 0.2441(2) 0.6027(2)
C2 C 0.2412(6) 0.3109(2) 0.5663(2)
C3 C 0.4666(6) 0.3558(2) 0.5944(2)
C4 C 0.5818(6) 0.3350(2) 0.6600(2)
C5 C 0.8056(6) 0.2979(2) 0.8040(2)
C6 C 0.8817(6) 0.2866(2) 0.8763(2)
C7 C 0.7414(6) 0.2286(2) 0.9177(2)
C8 C 0.3953(6) 0.1185(2) 0.9279(2)
C9 C 0.2027(6) 0.0689(2) 0.8985(2)
C10 C -0.0748(5) 0.0243(2) 0.7921(2)
C11 C -0.3225(6) -0.0305(2) 0.6864(2)
C12 C -0.3637(6) -0.0351(2) 0.6136(2)
C13 C -0.1982(6) 0.0149(2) 0.5689(2)
C14 C -0.0175(6) 0.0720(2) 0.5974(2)
C15 C 0.2787(6) 0.2171(2) 0.6678(2)
C16 C 0.4916(6) 0.2669(2) 0.6988(2)
C17 C 0.5939(6) 0.2509(2) 0.7721(2)
C18 C 0.4606(6) 0.1900(2) 0.8119(2)
C19 C 0.5346(7) 0.1792(2) 0.8870(2)
C20 C 0.2554(6) 0.1365(2) 0.7795(2)
C21 C 0.1267(6) 0.0754(2) 0.8231(2)
C22 C -0.1327(6) 0.0258(2) 0.7179(2)
C23 C 0.0113(6) 0.0833(2) 0.6731(2)
C24 C 0.1809(6) 0.1446(2) 0.7054(2)
H1 H -0.020(5) 0.215(1) 0.580(1)
H2 H 0.134(6) 0.329(2) 0.519(2)
H3 H 0.544(5) 0.404(2) 0.566(1)
H4 H 0.735(6) 0.367(2) 0.681(2)
H5 H 0.922(6) 0.346(2) 0.775(2)
H6 H 1.044(6) 0.322(2) 0.902(2)
H7 H 0.806(6) 0.219(2) 0.972(2)
H8 H 0.435(5) 0.111(2) 0.982(2)
H9 H 0.093(4) 0.027(1) 0.929(1)
H10 H -0.164(6) -0.021(2) 0.830(2)
H11 H -0.446(6) -0.069(2) 0.720(2)
H12 H -0.508(7) -0.082(2) 0.589(2)
H13 H -0.185(7) 0.006(2) 0.510(2)
H14 H 0.112(6) 0.101(2) 0.564(2)
C1 C 0.3506(6) 0.7559(2) 0.1027(2)
C2 C 0.2588(6) 0.6891(2) 0.0663(2)
C3 C 0.0334(6) 0.6442(2) 0.0944(2)
C4 C -0.0818(6) 0.6650(2) 0.1600(2)
C5 C -0.3056(6) 0.7021(2) 0.3040(2)
C6 C -0.3817(6) 0.7134(2) 0.3763(2)
C7 C -0.2414(6) 0.7714(2) 0.4177(2)
C8 C 0.1047(6) 0.8815(2) 0.4279(2)
C9 C 0.2973(6) 0.9311(2) 0.3985(2)
C10 C 0.5748(5) 0.9757(2) 0.2921(2)
C11 C 0.8225(6) 1.0305(2) 0.1864(2)
C12 C 0.8637(6) 1.0351(2) 0.1136(2)
C13 C 0.6982(6) 0.9851(2) 0.0689(2)
C14 C 0.5175(6) 0.9280(2) 0.0974(2)
C15 C 0.2213(6) 0.7829(2) 0.1678(2)
C16 C 0.0084(6) 0.7331(2) 0.1988(2)
C17 C -0.0939(6) 0.7491(2) 0.2721(2)
C18 C 0.0394(6) 0.8100(2) 0.3119(2)
C19 C -0.0346(7) 0.8208(2) 0.3870(2)
C20 C 0.2446(6) 0.8635(2) 0.2795(2)
C21 C 0.3733(6) 0.9246(2) 0.3231(2)
C22 C 0.6327(6) 0.9742(2) 0.2179(2)
C23 C 0.4887(6) 0.9167(2) 0.1731(2)
C24 C 0.3191(6) 0.8554(2) 0.2054(2)
H1 H 0.520(5) 0.785(1) 0.080(1)
H2 H 0.366(6) 0.671(2) 0.019(2)
H3 H -0.044(5) 0.596(2) 0.066(1)
H4 H -0.235(6) 0.633(2) 0.181(2)
H5 H -0.422(6) 0.654(2) 0.275(2)
H6 H -0.544(6) 0.678(2) 0.402(2)
H7 H -0.306(6) 0.781(2) 0.472(2)
H8 H 0.065(5) 0.889(2) 0.482(2)
H9 H 0.407(4) 0.973(1) 0.429(1)
H10 H 0.664(6) 1.021(2) 0.330(2)
H11 H 0.946(6) 1.069(2) 0.220(2)
H12 H 1.008(7) 1.082(2) 0.089(2)
H13 H 0.685(7) 0.994(2) 0.010(2)
H14 H 0.388(6) 0.899(2) 0.064(2)
C1 C 0.6494(6) 0.2559(2) 0.3973(2)
C2 C 0.7412(6) 0.1891(2) 0.4337(2)
C3 C 0.9666(6) 0.1442(2) 0.4056(2)
C4 C 1.0818(6) 0.1650(2) 0.3400(2)
C5 C 1.3056(6) 0.2021(2) 0.1960(2)
C6 C 1.3817(6) 0.2134(2) 0.1237(2)
C7 C 1.2414(6) 0.2714(2) 0.0823(2)
C8 C 0.8953(6) 0.3815(2) 0.0721(2)
C9 C 0.7027(6) 0.4311(2) 0.1015(2)
C10 C 0.4252(5) 0.4757(2) 0.2079(2)
C11 C 0.1775(6) 0.5305(2) 0.3136(2)
C12 C 0.1363(6) 0.5351(2) 0.3864(2)
C13 C 0.3018(6) 0.4851(2) 0.4311(2)
C14 C 0.4825(6) 0.4280(2) 0.4026(2)
C15 C 0.7787(6) 0.2829(2) 0.3322(2)
C16 C 0.9916(6) 0.2331(2) 0.3012(2)
C17 C 1.0939(6) 0.2491(2) 0.2279(2)
C18 C 0.9606(6) 0.3100(2) 0.1881(2)
C19 C 1.0346(7) 0.3208(2) 0.1130(2)
C20 C 0.7554(6) 0.3635(2) 0.2205(2)
C21 C 0.6267(6) 0.4246(2) 0.1769(2)
C22 C 0.3673(6) 0.4742(2) 0.2821(2)
C23 C 0.5113(6) 0.4167(2) 0.3269(2)
C24 C 0.6809(6) 0.3554(2) 0.2946(2)
H1 H 0.480(5) 0.285(1) 0.420(1)
H2 H 0.634(6) 0.171(2) 0.481(2)
H3 H 1.044(5) 0.096(2) 0.434(1)
H4 H 1.235(6) 0.133(2) 0.319(2)
H5 H 1.422(6) 0.154(2) 0.225(2)
H6 H 1.544(6) 0.178(2) 0.098(2)
H7 H 1.306(6) 0.281(2) 0.028(2)
H8 H 0.935(5) 0.389(2) 0.018(2)
H9 H 0.593(4) 0.473(1) 0.071(1)
H10 H 0.336(6) 0.521(2) 0.170(2)
H11 H 0.054(6) 0.569(2) 0.280(2)
H12 H -0.008(7) 0.582(2) 0.411(2)
H13 H 0.315(7) 0.494(2) 0.490(2)
H14 H 0.612(6) 0.399(2) 0.436(2)
C1 C 0.8506(6) 0.7441(2) 0.8973(2)
C2 C 0.7588(6) 0.8109(2) 0.9337(2)
C3 C 0.5334(6) 0.8558(2) 0.9056(2)
C4 C 0.4182(6) 0.8350(2) 0.8400(2)
C5 C 0.1944(6) 0.7979(2) 0.6960(2)
C6 C 0.1183(6) 0.7866(2) 0.6237(2)
C7 C 0.2586(6) 0.7286(2) 0.5823(2)
C8 C 0.6047(6) 0.6185(2) 0.5721(2)
C9 C 0.7973(6) 0.5689(2) 0.6015(2)
C10 C 1.0748(5) 0.5243(2) 0.7079(2)
C11 C 1.3225(6) 0.4695(2) 0.8136(2)
C12 C 1.3637(6) 0.4649(2) 0.8864(2)
C13 C 1.1982(6) 0.5149(2) 0.9311(2)
C14 C 1.0175(6) 0.5720(2) 0.9026(2)
C15 C 0.7213(6) 0.7171(2) 0.8322(2)
C16 C 0.5084(6) 0.7669(2) 0.8012(2)
C17 C 0.4061(6) 0.7509(2) 0.7279(2)
C18 C 0.5394(6) 0.6900(2) 0.6881(2)
C19 C 0.4654(7) 0.6792(2) 0.6130(2)
C20 C 0.7446(6) 0.6365(2) 0.7205(2)
C21 C 0.8733(6) 0.5754(2) 0.6769(2)
C22 C 1.1327(6) 0.5258(2) 0.7821(2)
C23 C 0.9887(6) 0.5833(2) 0.8269(2)
C24 C 0.8191(6) 0.6446(2) 0.7946(2)
H1 H 1.020(5) 0.715(1) 0.920(1)
H2 H 0.866(6) 0.829(2) 0.981(2)
H3 H 0.456(5) 0.904(2) 0.934(1)
H4 H 0.265(6) 0.867(2) 0.819(2)
H5 H 0.078(6) 0.846(2) 0.725(2)
H6 H -0.044(6) 0.822(2) 0.598(2)
H7 H 0.194(6) 0.719(2) 0.528(2)
H8 H 0.565(5) 0.611(2) 0.518(2)
H9 H 0.907(4) 0.527(1) 0.571(1)
H10 H 1.164(6) 0.479(2) 0.670(2)
H11 H 1.446(6) 0.431(2) 0.780(2)
H12 H 1.508(7) 0.418(2) 0.911(2)
H13 H 1.185(7) 0.506(2) 0.990(2)
H14 H 0.888(6) 0.601(2) 0.936(2)

#END
