./KAFZID_from_xyz.cif_generated_by_CrystalShift
_symmetry_cell_setting triclinic
_symmetry_space_group_name_H-M 'P 1'
loop_
_symmetry_equiv_pos_site_id
_symmetry_equiv_pos_as_xyz
1 x,y,z
_cell_length_a 12.934000
_cell_length_b 9.380100
_cell_length_c 26.147000
_cell_angle_alpha 90.000000
_cell_angle_beta 97.186700
_cell_angle_gamma 90.000000
_cell_volume 3147.290269
loop_
_atom_site_label
_atom_site_type_symbol
_atom_site_fract_x
_atom_site_fract_y
_atom_site_fract_z
S1 S -0.047170 0.362570 0.100150
N2 N 0.116330 0.092170 -0.039420
N3 N 0.149960 0.094550 0.046120
C4 C 0.201010 0.003210 -0.023250
C5 C 0.034900 0.249520 0.073690
O6 O 0.194820 0.101270 0.251740
C7 C 0.121670 0.148340 0.096110
C8 C 0.317630 -0.193000 -0.047860
H9 H 0.335100 -0.216700 -0.012500
C10 C -0.066980 0.336050 0.000840
H11 H -0.090100 0.346500 -0.034900
C12 C 0.244900 0.201700 0.175330
C13 C 0.015360 0.245040 0.021050
C14 C -0.109400 0.407270 0.038930
C15 C 0.227890 -0.045110 -0.114000
H16 H 0.183400 0.033100 -0.124200
C17 C 0.183950 0.100530 0.204490
C18 C 0.269410 -0.124560 -0.150980
H19 H 0.253100 -0.100500 -0.186400
C20 C 0.309140 -0.057590 0.065890
C21 C 0.108970 0.000580 0.174700
C22 C 0.223550 0.003990 0.029810
C23 C 0.334660 -0.239120 -0.136990
H24 H 0.362300 -0.294200 -0.162600
C25 C 0.079480 0.027900 0.124970
H26 H 0.028700 -0.032600 0.106700
C27 C 0.250580 -0.078510 -0.061570
C28 C 0.089470 0.144800 0.003440
C29 C 0.213080 0.223110 0.125290
H30 H 0.250500 0.289400 0.107200
C31 C 0.340670 0.276510 0.203930
C32 C 0.359010 -0.272350 -0.085170
H33 H 0.404300 -0.349900 -0.075200
C34 C 0.410610 -0.008270 0.065180
H35 H 0.423900 0.064000 0.041400
C36 C 0.492310 -0.063350 0.098730
H37 H 0.561100 -0.028900 0.097800
C38 C 0.067360 -0.127780 0.202260
C39 C 0.473530 -0.168560 0.133560
H40 H 0.529500 -0.206600 0.156500
C41 C -0.198720 0.505610 0.034360
C42 C 0.398930 0.361190 0.166420
H43 H 0.459800 0.407600 0.185500
H44 H 0.352500 0.433700 0.149100
H45 H 0.421800 0.296400 0.140700
C46 C 0.291060 -0.163510 0.101200
H47 H 0.222400 -0.198400 0.102200
C48 C 0.010690 -0.232830 0.163560
H49 H -0.047600 -0.184300 0.143100
H50 H -0.015900 -0.312900 0.182200
H51 H 0.059300 -0.268500 0.140600
C52 C 0.307390 0.381480 0.244160
H53 H 0.274100 0.328800 0.270000
H54 H 0.258100 0.450900 0.227000
H55 H 0.368900 0.431500 0.261000
C56 C 0.416290 0.164270 0.230330
H57 H 0.382800 0.113800 0.256700
H58 H 0.479600 0.211600 0.246600
H59 H 0.434600 0.096000 0.204600
C60 C 0.373070 -0.218200 0.134910
H61 H 0.360200 -0.289900 0.159000
C62 C -0.309400 0.673710 0.071930
H63 H -0.323000 0.730400 0.100400
C64 C -0.220550 0.589690 0.075560
H65 H -0.173900 0.589500 0.106600
C66 C -0.009530 -0.078220 0.238810
H67 H -0.067400 -0.027000 0.219100
H68 H 0.026300 -0.014700 0.265000
H69 H -0.036600 -0.161300 0.255600
C70 C 0.158060 -0.208740 0.232930
H71 H 0.131700 -0.296000 0.247300
H72 H 0.190600 -0.148300 0.261000
H73 H 0.209700 -0.233600 0.210000
C74 C -0.267740 0.510310 -0.011160
H75 H -0.253700 0.455500 -0.040100
C76 C -0.378120 0.675280 0.027010
H77 H -0.439600 0.731500 0.024700
C78 C -0.356530 0.594300 -0.014560
H79 H -0.403000 0.596200 -0.045700
S80 S 1.047170 0.862570 0.399850
N81 N 0.883670 0.592170 0.539420
N82 N 0.850040 0.594550 0.453880
C83 C 0.798990 0.503210 0.523250
C84 C 0.965100 0.749520 0.426310
O85 O 0.805180 0.601270 0.248260
C86 C 0.878330 0.648340 0.403890
C87 C 0.682370 0.307000 0.547860
H88 H 0.664900 0.283300 0.512500
C89 C 1.066980 0.836050 0.499160
H90 H 1.090100 0.846500 0.534900
C91 C 0.755100 0.701700 0.324670
C92 C 0.984640 0.745040 0.478950
C93 C 1.109400 0.907270 0.461070
C94 C 0.772110 0.454890 0.614000
H95 H 0.816600 0.533100 0.624200
C96 C 0.816050 0.600530 0.295510
C97 C 0.730590 0.375440 0.650980
H98 H 0.746900 0.399500 0.686400
C99 C 0.690860 0.442410 0.434110
C100 C 0.891030 0.500580 0.325300
C101 C 0.776450 0.503990 0.470190
C102 C 0.665340 0.260880 0.636990
H103 H 0.637700 0.205800 0.662600
C104 C 0.920520 0.527900 0.375030
H105 H 0.971300 0.467400 0.393300
C106 C 0.749420 0.421490 0.561570
C107 C 0.910530 0.644800 0.496560
C108 C 0.786920 0.723110 0.374710
H109 H 0.749500 0.789400 0.392800
C110 C 0.659330 0.776510 0.296070
C111 C 0.640990 0.227650 0.585170
H112 H 0.595700 0.150100 0.575200
C113 C 0.589390 0.491730 0.434820
H114 H 0.576100 0.564000 0.458600
C115 C 0.507690 0.436650 0.401270
H116 H 0.438900 0.471100 0.402200
C117 C 0.932640 0.372220 0.297740
C118 C 0.526470 0.331440 0.366440
H119 H 0.470500 0.293400 0.343500
C120 C 1.198720 1.005610 0.465640
C121 C 0.601070 0.861190 0.333580
H122 H 0.540200 0.907600 0.314500
H123 H 0.647500 0.933700 0.350900
H124 H 0.578200 0.796400 0.359300
C125 C 0.708940 0.336490 0.398800
H126 H 0.777600 0.301600 0.397800
C127 C 0.989310 0.267170 0.336440
H128 H 1.047600 0.315700 0.356900
H129 H 1.015900 0.187100 0.317800
H130 H 0.940700 0.231500 0.359400
C131 C 0.692610 0.881480 0.255840
H132 H 0.725900 0.828800 0.230000
H133 H 0.741900 0.950900 0.273000
H134 H 0.631100 0.931500 0.239000
C135 C 0.583710 0.664270 0.269670
H136 H 0.617200 0.613800 0.243300
H137 H 0.520400 0.711600 0.253400
H138 H 0.565400 0.596000 0.295400
C139 C 0.626930 0.281800 0.365090
H140 H 0.639800 0.210100 0.341000
C141 C 1.309400 1.173710 0.428070
H142 H 1.323000 1.230400 0.399600
C143 C 1.220550 1.089690 0.424440
H144 H 1.173900 1.089500 0.393400
C145 C 1.009530 0.421780 0.261190
H146 H 1.067400 0.473000 0.280900
H147 H 0.973700 0.485300 0.235000
H148 H 1.036600 0.338700 0.244400
C149 C 0.841940 0.291260 0.267070
H150 H 0.868300 0.204000 0.252700
H151 H 0.809400 0.351700 0.239000
H152 H 0.790300 0.266400 0.290000
C153 C 1.267740 1.010310 0.511160
H154 H 1.253700 0.955500 0.540100
C155 C 1.378120 1.175280 0.472990
H156 H 1.439600 1.231500 0.475300
C157 C 1.356530 1.094300 0.514560
H158 H 1.403000 1.096200 0.545700
S159 S 1.047170 0.637430 0.899850
N160 N 0.883670 0.907830 1.039420
N161 N 0.850040 0.905450 0.953880
C162 C 0.798990 0.996790 1.023250
C163 C 0.965100 0.750480 0.926310
O164 O 0.805180 0.898730 0.748260
C165 C 0.878330 0.851660 0.903890
C166 C 0.682370 1.193000 1.047860
H167 H 0.664900 1.216700 1.012500
C168 C 1.066980 0.663950 0.999160
H169 H 1.090100 0.653500 1.034900
C170 C 0.755100 0.798300 0.824670
C171 C 0.984640 0.754960 0.978950
C172 C 1.109400 0.592730 0.961070
C173 C 0.772110 1.045110 1.114000
H174 H 0.816600 0.966900 1.124200
C175 C 0.816050 0.899470 0.795510
C176 C 0.730590 1.124560 1.150980
H177 H 0.746900 1.100500 1.186400
C178 C 0.690860 1.057590 0.934110
C179 C 0.891030 0.999420 0.825300
C180 C 0.776450 0.996010 0.970190
C181 C 0.665340 1.239120 1.136990
H182 H 0.637700 1.294200 1.162600
C183 C 0.920520 0.972100 0.875030
H184 H 0.971300 1.032600 0.893300
C185 C 0.749420 1.078510 1.061570
C186 C 0.910530 0.855200 0.996560
C187 C 0.786920 0.776890 0.874710
H188 H 0.749500 0.710600 0.892800
C189 C 0.659330 0.723490 0.796070
C190 C 0.640990 1.272350 1.085170
H191 H 0.595700 1.349900 1.075200
C192 C 0.589390 1.008270 0.934820
H193 H 0.576100 0.936000 0.958600
C194 C 0.507690 1.063350 0.901270
H195 H 0.438900 1.028900 0.902200
C196 C 0.932640 1.127780 0.797740
C197 C 0.526470 1.168560 0.866440
H198 H 0.470500 1.206600 0.843500
C199 C 1.198720 0.494390 0.965640
C200 C 0.601070 0.638810 0.833580
H201 H 0.540200 0.592400 0.814500
H202 H 0.647500 0.566300 0.850900
H203 H 0.578200 0.703600 0.859300
C204 C 0.708940 1.163510 0.898800
H205 H 0.777600 1.198400 0.897800
C206 C 0.989310 1.232830 0.836440
H207 H 1.047600 1.184300 0.856900
H208 H 1.015900 1.312900 0.817800
H209 H 0.940700 1.268500 0.859400
C210 C 0.692610 0.618520 0.755840
H211 H 0.725900 0.671200 0.730000
H212 H 0.741900 0.549100 0.773000
H213 H 0.631100 0.568500 0.739000
C214 C 0.583710 0.835730 0.769670
H215 H 0.617200 0.886200 0.743300
H216 H 0.520400 0.788400 0.753400
H217 H 0.565400 0.904000 0.795400
C218 C 0.626930 1.218200 0.865090
H219 H 0.639800 1.289900 0.841000
C220 C 1.309400 0.326290 0.928070
H221 H 1.323000 0.269600 0.899600
C222 C 1.220550 0.410310 0.924440
H223 H 1.173900 0.410500 0.893400
C224 C 1.009530 1.078220 0.761190
H225 H 1.067400 1.027000 0.780900
H226 H 0.973700 1.014700 0.735000
H227 H 1.036600 1.161300 0.744400
C228 C 0.841940 1.208740 0.767070
H229 H 0.868300 1.296000 0.752700
H230 H 0.809400 1.148300 0.739000
H231 H 0.790300 1.233600 0.790000
C232 C 1.267740 0.489690 1.011160
H233 H 1.253700 0.544500 1.040100
C234 C 1.378120 0.324720 0.972990
H235 H 1.439600 0.268500 0.975300
C236 C 1.356530 0.405700 1.014560
H237 H 1.403000 0.403800 1.045700
S238 S -0.047170 0.137430 0.600150
N239 N 0.116330 0.407830 0.460580
N240 N 0.149960 0.405450 0.546120
C241 C 0.201010 0.496790 0.476750
C242 C 0.034900 0.250480 0.573690
O243 O 0.194820 0.398730 0.751740
C244 C 0.121670 0.351660 0.596110
C245 C 0.317630 0.693000 0.452140
H246 H 0.335100 0.716700 0.487500
C247 C -0.066980 0.163950 0.500840
H248 H -0.090100 0.153500 0.465100
C249 C 0.244900 0.298300 0.675330
C250 C 0.015360 0.254960 0.521050
C251 C -0.109400 0.092730 0.538930
C252 C 0.227890 0.545110 0.386000
H253 H 0.183400 0.466900 0.375800
C254 C 0.183950 0.399470 0.704490
C255 C 0.269410 0.624560 0.349020
H256 H 0.253100 0.600500 0.313600
C257 C 0.309140 0.557590 0.565890
C258 C 0.108970 0.499420 0.674700
C259 C 0.223550 0.496010 0.529810
C260 C 0.334660 0.739120 0.363010
H261 H 0.362300 0.794200 0.337400
C262 C 0.079480 0.472100 0.624970
H263 H 0.028700 0.532600 0.606700
C264 C 0.250580 0.578510 0.438430
C265 C 0.089470 0.355200 0.503440
C266 C 0.213080 0.276890 0.625290
H267 H 0.250500 0.210600 0.607200
C268 C 0.340670 0.223490 0.703930
C269 C 0.359010 0.772350 0.414830
H270 H 0.404300 0.849900 0.424800
C271 C 0.410610 0.508270 0.565180
H272 H 0.423900 0.436000 0.541400
C273 C 0.492310 0.563350 0.598730
H274 H 0.561100 0.528900 0.597800
C275 C 0.067360 0.627780 0.702260
C276 C 0.473530 0.668560 0.633560
H277 H 0.529500 0.706600 0.656500
C278 C -0.198720 -0.005610 0.534360
C279 C 0.398930 0.138810 0.666420
H280 H 0.459800 0.092400 0.685500
H281 H 0.352500 0.066300 0.649100
H282 H 0.421800 0.203600 0.640700
C283 C 0.291060 0.663510 0.601200
H284 H 0.222400 0.698400 0.602200
C285 C 0.010690 0.732830 0.663560
H286 H -0.047600 0.684300 0.643100
H287 H -0.015900 0.812900 0.682200
H288 H 0.059300 0.768500 0.640600
C289 C 0.307390 0.118520 0.744160
H290 H 0.274100 0.171200 0.770000
H291 H 0.258100 0.049100 0.727000
H292 H 0.368900 0.068500 0.761000
C293 C 0.416290 0.335730 0.730330
H294 H 0.382800 0.386200 0.756700
H295 H 0.479600 0.288400 0.746600
H296 H 0.434600 0.404000 0.704600
C297 C 0.373070 0.718200 0.634910
H298 H 0.360200 0.789900 0.659000
C299 C -0.309400 -0.173710 0.571930
H300 H -0.323000 -0.230400 0.600400
C301 C -0.220550 -0.089690 0.575560
H302 H -0.173900 -0.089500 0.606600
C303 C -0.009530 0.578220 0.738810
H304 H -0.067400 0.527000 0.719100
H305 H 0.026300 0.514700 0.765000
H306 H -0.036600 0.661300 0.755600
C307 C 0.158060 0.708740 0.732930
H308 H 0.131700 0.796000 0.747300
H309 H 0.190600 0.648300 0.761000
H310 H 0.209700 0.733600 0.710000
C311 C -0.267740 -0.010310 0.488840
H312 H -0.253700 0.044500 0.459900
C313 C -0.378120 -0.175280 0.527010
H314 H -0.439600 -0.231500 0.524700
C315 C -0.356530 -0.094300 0.485440
H316 H -0.403000 -0.096200 0.454300

#END
