./KAGBUP_from_xyz.cif_generated_by_CrystalShift
_symmetry_cell_setting triclinic
_symmetry_space_group_name_H-M 'P 1'
loop_
_symmetry_equiv_pos_site_id
_symmetry_equiv_pos_as_xyz
1 x,y,z
_cell_length_a 6.241100
_cell_length_b 3.973000
_cell_length_c 21.467000
_cell_angle_alpha 90.000000
_cell_angle_beta 92.770000
_cell_angle_gamma 90.000000
_cell_volume 531.671422
loop_
_atom_site_label
_atom_site_type_symbol
_atom_site_fract_x
_atom_site_fract_y
_atom_site_fract_z
N1 N 0.287500 0.938400 0.657100
C2 C 0.435100 1.083700 0.695500
C3 C 0.645200 1.132600 0.681400
C4 C 0.710900 1.030400 0.624800
C5 C 0.564000 0.879800 0.583800
C6 C 0.355400 0.841500 0.601500
C7 C 0.198500 0.689900 0.558700
C8 C 0.073000 0.569900 0.521400
H9 H 0.377000 1.157900 0.735500
H10 H 0.751000 1.254600 0.711500
H11 H 0.861500 1.068000 0.613400
H12 H 0.601800 0.801600 0.543000
C13 C -0.073000 0.430100 0.478600
C14 C -0.198500 0.310100 0.441300
C15 C -0.355400 0.158500 0.398500
N16 N -0.287500 0.061600 0.342900
C17 C -0.564000 0.120200 0.416200
C18 C -0.435100 -0.083700 0.304500
C19 C -0.710900 -0.030400 0.375200
H20 H -0.601800 0.198400 0.457000
C21 C -0.645200 -0.132600 0.318600
H22 H -0.377000 -0.157900 0.264500
H23 H -0.861500 -0.068000 0.386600
H24 H -0.751000 -0.254600 0.288500
N25 N 1.287500 0.938400 0.657100
C26 C 1.435100 1.083700 0.695500
C27 C 1.645200 1.132600 0.681400
C28 C 1.710900 1.030400 0.624800
C29 C 1.564000 0.879800 0.583800
C30 C 1.355400 0.841500 0.601500
C31 C 1.198500 0.689900 0.558700
C32 C 1.073000 0.569900 0.521400
H33 H 1.377000 1.157900 0.735500
H34 H 1.751000 1.254600 0.711500
H35 H 1.861500 1.068000 0.613400
H36 H 1.601800 0.801600 0.543000
C37 C 0.927000 0.430100 0.478600
C38 C 0.801500 0.310100 0.441300
C39 C 0.644600 0.158500 0.398500
N40 N 0.712500 0.061600 0.342900
C41 C 0.436000 0.120200 0.416200
C42 C 0.564900 -0.083700 0.304500
C43 C 0.289100 -0.030400 0.375200
H44 H 0.398200 0.198400 0.457000
C45 C 0.354800 -0.132600 0.318600
H46 H 0.623000 -0.157900 0.264500
H47 H 0.138500 -0.068000 0.386600
H48 H 0.249000 -0.254600 0.288500
N49 N 0.212500 0.438400 -0.157100
C50 C 0.064900 0.583700 -0.195500
C51 C -0.145200 0.632600 -0.181400
C52 C -0.210900 0.530400 -0.124800
C53 C -0.064000 0.379800 -0.083800
C54 C 0.144600 0.341500 -0.101500
C55 C 0.301500 0.189900 -0.058700
C56 C 0.427000 0.069900 -0.021400
H57 H 0.123000 0.657900 -0.235500
H58 H -0.251000 0.754600 -0.211500
H59 H -0.361500 0.568000 -0.113400
H60 H -0.101800 0.301600 -0.043000
C61 C 0.573000 -0.069900 0.021400
C62 C 0.698500 -0.189900 0.058700
C63 C 0.855400 -0.341500 0.101500
N64 N 0.787500 -0.438400 0.157100
C65 C 1.064000 -0.379800 0.083800
C66 C 0.935100 -0.583700 0.195500
C67 C 1.210900 -0.530400 0.124800
H68 H 1.101800 -0.301600 0.043000
C69 C 1.145200 -0.632600 0.181400
H70 H 0.877000 -0.657900 0.235500
H71 H 1.361500 -0.568000 0.113400
H72 H 1.251000 -0.754600 0.211500
N73 N 0.212500 0.438400 0.842900
C74 C 0.064900 0.583700 0.804500
C75 C -0.145200 0.632600 0.818600
C76 C -0.210900 0.530400 0.875200
C77 C -0.064000 0.379800 0.916200
C78 C 0.144600 0.341500 0.898500
C79 C 0.301500 0.189900 0.941300
C80 C 0.427000 0.069900 0.978600
H81 H 0.123000 0.657900 0.764500
H82 H -0.251000 0.754600 0.788500
H83 H -0.361500 0.568000 0.886600
H84 H -0.101800 0.301600 0.957000
C85 C 0.573000 -0.069900 1.021400
C86 C 0.698500 -0.189900 1.058700
C87 C 0.855400 -0.341500 1.101500
N88 N 0.787500 -0.438400 1.157100
C89 C 1.064000 -0.379800 1.083800
C90 C 0.935100 -0.583700 1.195500
C91 C 1.210900 -0.530400 1.124800
H92 H 1.101800 -0.301600 1.043000
C93 C 1.145200 -0.632600 1.181400
H94 H 0.877000 -0.657900 1.235500
H95 H 1.361500 -0.568000 1.113400
H96 H 1.251000 -0.754600 1.211500
N97 N 0.212500 1.438400 -0.157100
C98 C 0.064900 1.583700 -0.195500
C99 C -0.145200 1.632600 -0.181400
C100 C -0.210900 1.530400 -0.124800
C101 C -0.064000 1.379800 -0.083800
C102 C 0.144600 1.341500 -0.101500
C103 C 0.301500 1.189900 -0.058700
C104 C 0.427000 1.069900 -0.021400
H105 H 0.123000 1.657900 -0.235500
H106 H -0.251000 1.754600 -0.211500
H107 H -0.361500 1.568000 -0.113400
H108 H -0.101800 1.301600 -0.043000
C109 C 0.573000 0.930100 0.021400
C110 C 0.698500 0.810100 0.058700
C111 C 0.855400 0.658500 0.101500
N112 N 0.787500 0.561600 0.157100
C113 C 1.064000 0.620200 0.083800
C114 C 0.935100 0.416300 0.195500
C115 C 1.210900 0.469600 0.124800
H116 H 1.101800 0.698400 0.043000
C117 C 1.145200 0.367400 0.181400
H118 H 0.877000 0.342100 0.235500
H119 H 1.361500 0.432000 0.113400
H120 H 1.251000 0.245400 0.211500
N121 N 0.212500 1.438400 0.842900
C122 C 0.064900 1.583700 0.804500
C123 C -0.145200 1.632600 0.818600
C124 C -0.210900 1.530400 0.875200
C125 C -0.064000 1.379800 0.916200
C126 C 0.144600 1.341500 0.898500
C127 C 0.301500 1.189900 0.941300
C128 C 0.427000 1.069900 0.978600
H129 H 0.123000 1.657900 0.764500
H130 H -0.251000 1.754600 0.788500
H131 H -0.361500 1.568000 0.886600
H132 H -0.101800 1.301600 0.957000
C133 C 0.573000 0.930100 1.021400
C134 C 0.698500 0.810100 1.058700
C135 C 0.855400 0.658500 1.101500
N136 N 0.787500 0.561600 1.157100
C137 C 1.064000 0.620200 1.083800
C138 C 0.935100 0.416300 1.195500
C139 C 1.210900 0.469600 1.124800
H140 H 1.101800 0.698400 1.043000
C141 C 1.145200 0.367400 1.181400
H142 H 0.877000 0.342100 1.235500
H143 H 1.361500 0.432000 1.113400
H144 H 1.251000 0.245400 1.211500

#END
