
#######################################################################
#
#                 Cambridge Crystallographic Data Centre
#                                CCDC 
#
#######################################################################
#
# If this CIF has been generated from an entry in the Cambridge 
# Structural Database, then it will include bibliographic, chemical, 
# crystal, experimental, refinement or atomic coordinate data resulting 
# from the CCDC's data processing and validation procedures.
#
#######################################################################

data_KAGFOP
_symmetry_cell_setting           monoclinic
_symmetry_space_group_name_H-M   'P 21/n'
_symmetry_Int_Tables_number      14
_space_group_name_Hall           '-P 2yn'
loop_
_symmetry_equiv_pos_site_id
_symmetry_equiv_pos_as_xyz
1 x,y,z
2 1/2-x,1/2+y,1/2-z
3 -x,-y,-z
4 1/2+x,1/2-y,1/2+z
_cell_length_a                   12.3370(4)
_cell_length_b                   17.1641(6)
_cell_length_c                   12.3897(4)
_cell_angle_alpha                90
_cell_angle_beta                 114.989(2)
_cell_angle_gamma                90
_cell_volume                     2377.97
loop_
_atom_site_label
_atom_site_type_symbol
_atom_site_fract_x
_atom_site_fract_y
_atom_site_fract_z
C1 C 0.0653(3) 0.11319(17) 0.1269(3)
C2 C 0.1859(3) 0.08574(17) 0.1572(3)
C3 C 0.2443(3) 0.0954(2) 0.0837(3)
H1 H 0.2082 0.1247 0.0145
C4 C 0.3568(4) 0.0617(2) 0.1121(3)
H2 H 0.3957 0.0713 0.0635
C5 C 0.4093(3) 0.0160(2) 0.2083(3)
H3 H 0.4828 -0.0069 0.2240
C6 C 0.3536(3) 0.0021(2) 0.2867(3)
C7 C 0.4030(3) -0.0475(2) 0.3852(3)
H4 H 0.4734 -0.0742 0.3998
C8 C 0.3488(3) -0.0570(2) 0.4599(3)
H5 H 0.3805 -0.0924 0.5224
C9 C 0.2481(3) -0.01534(19) 0.4444(3)
H6 H 0.2148 -0.0215 0.4987
C10 C 0.1945(3) 0.03607(17) 0.3491(3)
C11 C 0.0890(3) 0.08311(17) 0.3290(3)
C12 C 0.0617(3) 0.11119(18) 0.4186(3)
C13 C -0.0536(3) 0.14895(18) 0.3911(3)
C14 C -0.0825(3) 0.1805(2) 0.4779(3)
H7 H -0.0246 0.1838 0.5559
C15 C -0.1980(4) 0.2074(2) 0.4496(4)
H8 H -0.2151 0.2303 0.5088
C16 C -0.2859(4) 0.2011(2) 0.3379(5)
H9 H -0.3630 0.2174 0.3223
C17 C -0.2615(3) 0.1700(2) 0.2445(4)
C18 C -0.3493(4) 0.1621(2) 0.1267(4)
H10 H -0.4279 0.1763 0.1083
C19 C -0.3211(3) 0.1343(2) 0.0415(4)
H11 H -0.3813 0.1279 -0.0348
C20 C -0.2047(3) 0.1147(2) 0.0630(3)
H12 H -0.1880 0.0959 0.0013
C21 C -0.1128(3) 0.12319(18) 0.1767(3)
C22 C 0.0134(3) 0.10516(17) 0.2054(3)
C23 C 0.2448(3) 0.04149(17) 0.2644(3)
C24 C -0.1427(3) 0.14727(18) 0.2707(3)
C25 C 0.0032(3) 0.15526(18) 0.0101(3)
C26 C -0.0172(3) 0.2343(2) 0.0097(3)
H13 H 0.0086 0.2607 0.0819
C27 C -0.0746(3) 0.2751(2) -0.0942(3)
H14 H -0.0869 0.3285 -0.0926
C28 C -0.1144(4) 0.2355(3) -0.2026(3)
H15 H -0.1567 0.2618 -0.2737
C29 C -0.0906(4) 0.1571(2) -0.2034(3)
H16 H -0.1137 0.1310 -0.2755
C30 C -0.0332(3) 0.1173(2) -0.0986(3)
H17 H -0.0184 0.0643 -0.1002
C31 C 0.1500(3) 0.10868(18) 0.5465(3)
C32 C 0.2545(3) 0.15222(19) 0.5829(3)
H18 H 0.2688 0.1823 0.5278
C33 C 0.3369(4) 0.1510(2) 0.6999(3)
H19 H 0.4063 0.1805 0.7226
C34 C 0.3198(4) 0.1085(2) 0.7822(3)
H20 H 0.3778 0.1070 0.8603
C35 C 0.2147(4) 0.0667(2) 0.7492(3)
H21 H 0.2005 0.0386 0.8061
C36 C 0.1310(4) 0.0666(2) 0.6327(3)
H22 H 0.0609 0.0380 0.6113
C1 C 0.4347(3) 0.61319(17) 0.3731(3)
C2 C 0.3141(3) 0.58574(17) 0.3428(3)
C3 C 0.2557(3) 0.5954(2) 0.4163(3)
H1 H 0.2918 0.6247 0.4855
C4 C 0.1432(4) 0.5617(2) 0.3879(3)
H2 H 0.1043 0.5713 0.4365
C5 C 0.0907(3) 0.5160(2) 0.2917(3)
H3 H 0.0172 0.4931 0.2760
C6 C 0.1464(3) 0.5021(2) 0.2133(3)
C7 C 0.0970(3) 0.4525(2) 0.1148(3)
H4 H 0.0266 0.4258 0.1002
C8 C 0.1512(3) 0.4430(2) 0.0401(3)
H5 H 0.1195 0.4076 -0.0224
C9 C 0.2519(3) 0.48466(19) 0.0556(3)
H6 H 0.2852 0.4785 0.0013
C10 C 0.3055(3) 0.53607(17) 0.1509(3)
C11 C 0.4110(3) 0.58311(17) 0.1710(3)
C12 C 0.4383(3) 0.61119(18) 0.0814(3)
C13 C 0.5536(3) 0.64895(18) 0.1089(3)
C14 C 0.5825(3) 0.6805(2) 0.0221(3)
H7 H 0.5246 0.6838 -0.0559
C15 C 0.6980(4) 0.7074(2) 0.0504(4)
H8 H 0.7151 0.7303 -0.0088
C16 C 0.7859(4) 0.7011(2) 0.1621(5)
H9 H 0.8630 0.7174 0.1777
C17 C 0.7615(3) 0.6700(2) 0.2555(4)
C18 C 0.8493(4) 0.6621(2) 0.3733(4)
H10 H 0.9279 0.6763 0.3917
C19 C 0.8211(3) 0.6343(2) 0.4585(4)
H11 H 0.8813 0.6279 0.5348
C20 C 0.7047(3) 0.6147(2) 0.4370(3)
H12 H 0.6880 0.5959 0.4987
C21 C 0.6128(3) 0.62319(18) 0.3233(3)
C22 C 0.4866(3) 0.60516(17) 0.2946(3)
C23 C 0.2552(3) 0.54149(17) 0.2356(3)
C24 C 0.6427(3) 0.64727(18) 0.2293(3)
C25 C 0.4968(3) 0.65526(18) 0.4899(3)
C26 C 0.5172(3) 0.7343(2) 0.4903(3)
H13 H 0.4914 0.7607 0.4181
C27 C 0.5746(3) 0.7751(2) 0.5942(3)
H14 H 0.5869 0.8285 0.5926
C28 C 0.6144(4) 0.7355(3) 0.7026(3)
H15 H 0.6567 0.7618 0.7737
C29 C 0.5906(4) 0.6571(2) 0.7034(3)
H16 H 0.6137 0.6310 0.7755
C30 C 0.5332(3) 0.6173(2) 0.5986(3)
H17 H 0.5184 0.5643 0.6002
C31 C 0.3500(3) 0.60868(18) -0.0465(3)
C32 C 0.2455(3) 0.65222(19) -0.0829(3)
H18 H 0.2312 0.6823 -0.0278
C33 C 0.1631(4) 0.6510(2) -0.1999(3)
H19 H 0.0937 0.6805 -0.2226
C34 C 0.1802(4) 0.6085(2) -0.2822(3)
H20 H 0.1222 0.6070 -0.3603
C35 C 0.2853(4) 0.5667(2) -0.2492(3)
H21 H 0.2995 0.5386 -0.3061
C36 C 0.3690(4) 0.5666(2) -0.1327(3)
H22 H 0.4391 0.5380 -0.1113
C1 C 0.9347(3) 0.88681(17) 0.8731(3)
C2 C 0.8141(3) 0.91426(17) 0.8428(3)
C3 C 0.7557(3) 0.9046(2) 0.9163(3)
H1 H 0.7918 0.8753 0.9855
C4 C 0.6432(4) 0.9383(2) 0.8879(3)
H2 H 0.6043 0.9287 0.9365
C5 C 0.5907(3) 0.9840(2) 0.7917(3)
H3 H 0.5172 1.0069 0.7760
C6 C 0.6464(3) 0.9979(2) 0.7133(3)
C7 C 0.5970(3) 1.0475(2) 0.6148(3)
H4 H 0.5266 1.0742 0.6002
C8 C 0.6512(3) 1.0570(2) 0.5401(3)
H5 H 0.6195 1.0924 0.4776
C9 C 0.7519(3) 1.01534(19) 0.5556(3)
H6 H 0.7852 1.0215 0.5013
C10 C 0.8055(3) 0.96393(17) 0.6509(3)
C11 C 0.9110(3) 0.91689(17) 0.6710(3)
C12 C 0.9383(3) 0.88881(18) 0.5814(3)
C13 C 1.0536(3) 0.85105(18) 0.6089(3)
C14 C 1.0825(3) 0.8195(2) 0.5221(3)
H7 H 1.0246 0.8162 0.4441
C15 C 1.1980(4) 0.7926(2) 0.5504(4)
H8 H 1.2151 0.7697 0.4912
C16 C 1.2859(4) 0.7989(2) 0.6621(5)
H9 H 1.3630 0.7826 0.6777
C17 C 1.2615(3) 0.8300(2) 0.7555(4)
C18 C 1.3493(4) 0.8379(2) 0.8733(4)
H10 H 1.4279 0.8237 0.8917
C19 C 1.3211(3) 0.8657(2) 0.9585(4)
H11 H 1.3813 0.8721 1.0348
C20 C 1.2047(3) 0.8853(2) 0.9370(3)
H12 H 1.1880 0.9041 0.9987
C21 C 1.1128(3) 0.87681(18) 0.8233(3)
C22 C 0.9866(3) 0.89484(17) 0.7946(3)
C23 C 0.7552(3) 0.95851(17) 0.7356(3)
C24 C 1.1427(3) 0.85273(18) 0.7293(3)
C25 C 0.9968(3) 0.84474(18) 0.9899(3)
C26 C 1.0172(3) 0.7657(2) 0.9903(3)
H13 H 0.9914 0.7393 0.9181
C27 C 1.0746(3) 0.7249(2) 1.0942(3)
H14 H 1.0869 0.6715 1.0926
C28 C 1.1144(4) 0.7645(3) 1.2026(3)
H15 H 1.1567 0.7382 1.2737
C29 C 1.0906(4) 0.8429(2) 1.2034(3)
H16 H 1.1137 0.8690 1.2755
C30 C 1.0332(3) 0.8827(2) 1.0986(3)
H17 H 1.0184 0.9357 1.1002
C31 C 0.8500(3) 0.89132(18) 0.4535(3)
C32 C 0.7455(3) 0.84778(19) 0.4171(3)
H18 H 0.7312 0.8177 0.4722
C33 C 0.6631(4) 0.8490(2) 0.3001(3)
H19 H 0.5937 0.8195 0.2774
C34 C 0.6802(4) 0.8915(2) 0.2178(3)
H20 H 0.6222 0.8930 0.1397
C35 C 0.7853(4) 0.9333(2) 0.2508(3)
H21 H 0.7995 0.9614 0.1939
C36 C 0.8690(4) 0.9334(2) 0.3673(3)
H22 H 0.9391 0.9620 0.3887
C1 C 0.5653(3) 0.38681(17) 0.6269(3)
C2 C 0.6859(3) 0.41426(17) 0.6572(3)
C3 C 0.7443(3) 0.4046(2) 0.5837(3)
H1 H 0.7082 0.3753 0.5145
C4 C 0.8568(4) 0.4383(2) 0.6121(3)
H2 H 0.8957 0.4287 0.5635
C5 C 0.9093(3) 0.4840(2) 0.7083(3)
H3 H 0.9828 0.5069 0.7240
C6 C 0.8536(3) 0.4979(2) 0.7867(3)
C7 C 0.9030(3) 0.5475(2) 0.8852(3)
H4 H 0.9734 0.5742 0.8998
C8 C 0.8488(3) 0.5570(2) 0.9599(3)
H5 H 0.8805 0.5924 1.0224
C9 C 0.7481(3) 0.51534(19) 0.9444(3)
H6 H 0.7148 0.5215 0.9987
C10 C 0.6945(3) 0.46393(17) 0.8491(3)
C11 C 0.5890(3) 0.41689(17) 0.8290(3)
C12 C 0.5617(3) 0.38881(18) 0.9186(3)
C13 C 0.4464(3) 0.35105(18) 0.8911(3)
C14 C 0.4175(3) 0.3195(2) 0.9779(3)
H7 H 0.4754 0.3162 1.0559
C15 C 0.3020(4) 0.2926(2) 0.9496(4)
H8 H 0.2849 0.2697 1.0088
C16 C 0.2141(4) 0.2989(2) 0.8379(5)
H9 H 0.1370 0.2826 0.8223
C17 C 0.2385(3) 0.3300(2) 0.7445(4)
C18 C 0.1507(4) 0.3379(2) 0.6267(4)
H10 H 0.0721 0.3237 0.6083
C19 C 0.1789(3) 0.3657(2) 0.5415(4)
H11 H 0.1187 0.3721 0.4652
C20 C 0.2953(3) 0.3853(2) 0.5630(3)
H12 H 0.3120 0.4041 0.5013
C21 C 0.3872(3) 0.37681(18) 0.6767(3)
C22 C 0.5134(3) 0.39484(17) 0.7054(3)
C23 C 0.7448(3) 0.45851(17) 0.7644(3)
C24 C 0.3573(3) 0.35273(18) 0.7707(3)
C25 C 0.5032(3) 0.34474(18) 0.5101(3)
C26 C 0.4828(3) 0.2657(2) 0.5097(3)
H13 H 0.5086 0.2393 0.5819
C27 C 0.4254(3) 0.2249(2) 0.4058(3)
H14 H 0.4131 0.1715 0.4074
C28 C 0.3856(4) 0.2645(3) 0.2974(3)
H15 H 0.3433 0.2382 0.2263
C29 C 0.4094(4) 0.3429(2) 0.2966(3)
H16 H 0.3863 0.3690 0.2245
C30 C 0.4668(3) 0.3827(2) 0.4014(3)
H17 H 0.4816 0.4357 0.3998
C31 C 0.6500(3) 0.39132(18) 1.0465(3)
C32 C 0.7545(3) 0.34778(19) 1.0829(3)
H18 H 0.7688 0.3177 1.0278
C33 C 0.8369(4) 0.3490(2) 1.1999(3)
H19 H 0.9063 0.3195 1.2226
C34 C 0.8198(4) 0.3915(2) 1.2822(3)
H20 H 0.8778 0.3930 1.3603
C35 C 0.7147(4) 0.4333(2) 1.2492(3)
H21 H 0.7005 0.4614 1.3061
C36 C 0.6310(4) 0.4334(2) 1.1327(3)
H22 H 0.5609 0.4620 1.1113

#END
