./KAGGEG_from_xyz.cif_generated_by_CrystalShift
_symmetry_cell_setting triclinic
_symmetry_space_group_name_H-M 'P 1'
loop_
_symmetry_equiv_pos_site_id
_symmetry_equiv_pos_as_xyz
1 x,y,z
_cell_length_a 11.614500
_cell_length_b 5.426000
_cell_length_c 11.352000
_cell_angle_alpha 90.000000
_cell_angle_beta 90.756000
_cell_angle_gamma 90.000000
_cell_volume 715.343920
loop_
_atom_site_label
_atom_site_type_symbol
_atom_site_fract_x
_atom_site_fract_y
_atom_site_fract_z
C1 C 0.310170 0.337500 -0.249000
H2 H 0.344100 0.442200 -0.305900
C3 C 0.193920 0.368500 -0.219920
H4 H 0.150300 0.496100 -0.256500
C5 C 0.141800 0.215500 -0.138510
C6 C 0.023430 0.249000 -0.106840
H7 H -0.018600 0.380200 -0.142400
C8 C 0.031390 -0.101300 0.028140
C9 C 0.374700 0.157300 -0.195830
H10 H 0.453700 0.140200 -0.215100
C11 C 0.325190 -0.005100 -0.112040
C12 C 0.206720 0.023000 -0.083560
C13 C 0.154100 -0.137600 -0.000810
C14 C 0.221640 -0.320600 0.050870
H15 H 0.188000 -0.430200 0.105900
C16 C 0.338300 -0.346600 0.023400
H17 H 0.382500 -0.472900 0.060200
C18 C 0.389470 -0.192100 -0.056020
H19 H 0.468800 -0.211400 -0.073200
C20 C -0.310170 -0.337500 0.249000
H21 H -0.344100 -0.442200 0.305900
C22 C -0.193920 -0.368500 0.219920
H23 H -0.150300 -0.496100 0.256500
C24 C -0.141800 -0.215500 0.138510
C25 C -0.023430 -0.249000 0.106840
H26 H 0.018600 -0.380200 0.142400
C27 C -0.031390 0.101300 -0.028140
C28 C -0.374700 -0.157300 0.195830
H29 H -0.453700 -0.140200 0.215100
C30 C -0.325190 0.005100 0.112040
C31 C -0.206720 -0.023000 0.083560
C32 C -0.154100 0.137600 0.000810
C33 C -0.221640 0.320600 -0.050870
H34 H -0.188000 0.430200 -0.105900
C35 C -0.338300 0.346600 -0.023400
H36 H -0.382500 0.472900 -0.060200
C37 C -0.389470 0.192100 0.056020
H38 H -0.468800 0.211400 0.073200
C39 C 0.310170 0.337500 0.751000
H40 H 0.344100 0.442200 0.694100
C41 C 0.193920 0.368500 0.780080
H42 H 0.150300 0.496100 0.743500
C43 C 0.141800 0.215500 0.861490
C44 C 0.023430 0.249000 0.893160
H45 H -0.018600 0.380200 0.857600
C46 C 0.031390 -0.101300 1.028140
C47 C 0.374700 0.157300 0.804170
H48 H 0.453700 0.140200 0.784900
C49 C 0.325190 -0.005100 0.887960
C50 C 0.206720 0.023000 0.916440
C51 C 0.154100 -0.137600 0.999190
C52 C 0.221640 -0.320600 1.050870
H53 H 0.188000 -0.430200 1.105900
C54 C 0.338300 -0.346600 1.023400
H55 H 0.382500 -0.472900 1.060200
C56 C 0.389470 -0.192100 0.943980
H57 H 0.468800 -0.211400 0.926800
C58 C -0.310170 -0.337500 1.249000
H59 H -0.344100 -0.442200 1.305900
C60 C -0.193920 -0.368500 1.219920
H61 H -0.150300 -0.496100 1.256500
C62 C -0.141800 -0.215500 1.138510
C63 C -0.023430 -0.249000 1.106840
H64 H 0.018600 -0.380200 1.142400
C65 C -0.031390 0.101300 0.971860
C66 C -0.374700 -0.157300 1.195830
H67 H -0.453700 -0.140200 1.215100
C68 C -0.325190 0.005100 1.112040
C69 C -0.206720 -0.023000 1.083560
C70 C -0.154100 0.137600 1.000810
C71 C -0.221640 0.320600 0.949130
H72 H -0.188000 0.430200 0.894100
C73 C -0.338300 0.346600 0.976600
H74 H -0.382500 0.472900 0.939800
C75 C -0.389470 0.192100 1.056020
H76 H -0.468800 0.211400 1.073200
C77 C 0.310170 1.337500 -0.249000
H78 H 0.344100 1.442200 -0.305900
C79 C 0.193920 1.368500 -0.219920
H80 H 0.150300 1.496100 -0.256500
C81 C 0.141800 1.215500 -0.138510
C82 C 0.023430 1.249000 -0.106840
H83 H -0.018600 1.380200 -0.142400
C84 C 0.031390 0.898700 0.028140
C85 C 0.374700 1.157300 -0.195830
H86 H 0.453700 1.140200 -0.215100
C87 C 0.325190 0.994900 -0.112040
C88 C 0.206720 1.023000 -0.083560
C89 C 0.154100 0.862400 -0.000810
C90 C 0.221640 0.679400 0.050870
H91 H 0.188000 0.569800 0.105900
C92 C 0.338300 0.653400 0.023400
H93 H 0.382500 0.527100 0.060200
C94 C 0.389470 0.807900 -0.056020
H95 H 0.468800 0.788600 -0.073200
C96 C -0.310170 0.662500 0.249000
H97 H -0.344100 0.557800 0.305900
C98 C -0.193920 0.631500 0.219920
H99 H -0.150300 0.503900 0.256500
C100 C -0.141800 0.784500 0.138510
C101 C -0.023430 0.751000 0.106840
H102 H 0.018600 0.619800 0.142400
C103 C -0.031390 1.101300 -0.028140
C104 C -0.374700 0.842700 0.195830
H105 H -0.453700 0.859800 0.215100
C106 C -0.325190 1.005100 0.112040
C107 C -0.206720 0.977000 0.083560
C108 C -0.154100 1.137600 0.000810
C109 C -0.221640 1.320600 -0.050870
H110 H -0.188000 1.430200 -0.105900
C111 C -0.338300 1.346600 -0.023400
H112 H -0.382500 1.472900 -0.060200
C113 C -0.389470 1.192100 0.056020
H114 H -0.468800 1.211400 0.073200
C115 C 0.310170 1.337500 0.751000
H116 H 0.344100 1.442200 0.694100
C117 C 0.193920 1.368500 0.780080
H118 H 0.150300 1.496100 0.743500
C119 C 0.141800 1.215500 0.861490
C120 C 0.023430 1.249000 0.893160
H121 H -0.018600 1.380200 0.857600
C122 C 0.031390 0.898700 1.028140
C123 C 0.374700 1.157300 0.804170
H124 H 0.453700 1.140200 0.784900
C125 C 0.325190 0.994900 0.887960
C126 C 0.206720 1.023000 0.916440
C127 C 0.154100 0.862400 0.999190
C128 C 0.221640 0.679400 1.050870
H129 H 0.188000 0.569800 1.105900
C130 C 0.338300 0.653400 1.023400
H131 H 0.382500 0.527100 1.060200
C132 C 0.389470 0.807900 0.943980
H133 H 0.468800 0.788600 0.926800
C134 C -0.310170 0.662500 1.249000
H135 H -0.344100 0.557800 1.305900
C136 C -0.193920 0.631500 1.219920
H137 H -0.150300 0.503900 1.256500
C138 C -0.141800 0.784500 1.138510
C139 C -0.023430 0.751000 1.106840
H140 H 0.018600 0.619800 1.142400
C141 C -0.031390 1.101300 0.971860
C142 C -0.374700 0.842700 1.195830
H143 H -0.453700 0.859800 1.215100
C144 C -0.325190 1.005100 1.112040
C145 C -0.206720 0.977000 1.083560
C146 C -0.154100 1.137600 1.000810
C147 C -0.221640 1.320600 0.949130
H148 H -0.188000 1.430200 0.894100
C149 C -0.338300 1.346600 0.976600
H150 H -0.382500 1.472900 0.939800
C151 C -0.389470 1.192100 1.056020
H152 H -0.468800 1.211400 1.073200
C153 C 1.310170 0.337500 -0.249000
H154 H 1.344100 0.442200 -0.305900
C155 C 1.193920 0.368500 -0.219920
H156 H 1.150300 0.496100 -0.256500
C157 C 1.141800 0.215500 -0.138510
C158 C 1.023430 0.249000 -0.106840
H159 H 0.981400 0.380200 -0.142400
C160 C 1.031390 -0.101300 0.028140
C161 C 1.374700 0.157300 -0.195830
H162 H 1.453700 0.140200 -0.215100
C163 C 1.325190 -0.005100 -0.112040
C164 C 1.206720 0.023000 -0.083560
C165 C 1.154100 -0.137600 -0.000810
C166 C 1.221640 -0.320600 0.050870
H167 H 1.188000 -0.430200 0.105900
C168 C 1.338300 -0.346600 0.023400
H169 H 1.382500 -0.472900 0.060200
C170 C 1.389470 -0.192100 -0.056020
H171 H 1.468800 -0.211400 -0.073200
C172 C 0.689830 -0.337500 0.249000
H173 H 0.655900 -0.442200 0.305900
C174 C 0.806080 -0.368500 0.219920
H175 H 0.849700 -0.496100 0.256500
C176 C 0.858200 -0.215500 0.138510
C177 C 0.976570 -0.249000 0.106840
H178 H 1.018600 -0.380200 0.142400
C179 C 0.968610 0.101300 -0.028140
C180 C 0.625300 -0.157300 0.195830
H181 H 0.546300 -0.140200 0.215100
C182 C 0.674810 0.005100 0.112040
C183 C 0.793280 -0.023000 0.083560
C184 C 0.845900 0.137600 0.000810
C185 C 0.778360 0.320600 -0.050870
H186 H 0.812000 0.430200 -0.105900
C187 C 0.661700 0.346600 -0.023400
H188 H 0.617500 0.472900 -0.060200
C189 C 0.610530 0.192100 0.056020
H190 H 0.531200 0.211400 0.073200
C191 C 1.310170 0.337500 0.751000
H192 H 1.344100 0.442200 0.694100
C193 C 1.193920 0.368500 0.780080
H194 H 1.150300 0.496100 0.743500
C195 C 1.141800 0.215500 0.861490
C196 C 1.023430 0.249000 0.893160
H197 H 0.981400 0.380200 0.857600
C198 C 1.031390 -0.101300 1.028140
C199 C 1.374700 0.157300 0.804170
H200 H 1.453700 0.140200 0.784900
C201 C 1.325190 -0.005100 0.887960
C202 C 1.206720 0.023000 0.916440
C203 C 1.154100 -0.137600 0.999190
C204 C 1.221640 -0.320600 1.050870
H205 H 1.188000 -0.430200 1.105900
C206 C 1.338300 -0.346600 1.023400
H207 H 1.382500 -0.472900 1.060200
C208 C 1.389470 -0.192100 0.943980
H209 H 1.468800 -0.211400 0.926800
C210 C 0.689830 -0.337500 1.249000
H211 H 0.655900 -0.442200 1.305900
C212 C 0.806080 -0.368500 1.219920
H213 H 0.849700 -0.496100 1.256500
C214 C 0.858200 -0.215500 1.138510
C215 C 0.976570 -0.249000 1.106840
H216 H 1.018600 -0.380200 1.142400
C217 C 0.968610 0.101300 0.971860
C218 C 0.625300 -0.157300 1.195830
H219 H 0.546300 -0.140200 1.215100
C220 C 0.674810 0.005100 1.112040
C221 C 0.793280 -0.023000 1.083560
C222 C 0.845900 0.137600 1.000810
C223 C 0.778360 0.320600 0.949130
H224 H 0.812000 0.430200 0.894100
C225 C 0.661700 0.346600 0.976600
H226 H 0.617500 0.472900 0.939800
C227 C 0.610530 0.192100 1.056020
H228 H 0.531200 0.211400 1.073200
C229 C 1.310170 1.337500 -0.249000
H230 H 1.344100 1.442200 -0.305900
C231 C 1.193920 1.368500 -0.219920
H232 H 1.150300 1.496100 -0.256500
C233 C 1.141800 1.215500 -0.138510
C234 C 1.023430 1.249000 -0.106840
H235 H 0.981400 1.380200 -0.142400
C236 C 1.031390 0.898700 0.028140
C237 C 1.374700 1.157300 -0.195830
H238 H 1.453700 1.140200 -0.215100
C239 C 1.325190 0.994900 -0.112040
C240 C 1.206720 1.023000 -0.083560
C241 C 1.154100 0.862400 -0.000810
C242 C 1.221640 0.679400 0.050870
H243 H 1.188000 0.569800 0.105900
C244 C 1.338300 0.653400 0.023400
H245 H 1.382500 0.527100 0.060200
C246 C 1.389470 0.807900 -0.056020
H247 H 1.468800 0.788600 -0.073200
C248 C 0.689830 0.662500 0.249000
H249 H 0.655900 0.557800 0.305900
C250 C 0.806080 0.631500 0.219920
H251 H 0.849700 0.503900 0.256500
C252 C 0.858200 0.784500 0.138510
C253 C 0.976570 0.751000 0.106840
H254 H 1.018600 0.619800 0.142400
C255 C 0.968610 1.101300 -0.028140
C256 C 0.625300 0.842700 0.195830
H257 H 0.546300 0.859800 0.215100
C258 C 0.674810 1.005100 0.112040
C259 C 0.793280 0.977000 0.083560
C260 C 0.845900 1.137600 0.000810
C261 C 0.778360 1.320600 -0.050870
H262 H 0.812000 1.430200 -0.105900
C263 C 0.661700 1.346600 -0.023400
H264 H 0.617500 1.472900 -0.060200
C265 C 0.610530 1.192100 0.056020
H266 H 0.531200 1.211400 0.073200
C267 C 1.310170 1.337500 0.751000
H268 H 1.344100 1.442200 0.694100
C269 C 1.193920 1.368500 0.780080
H270 H 1.150300 1.496100 0.743500
C271 C 1.141800 1.215500 0.861490
C272 C 1.023430 1.249000 0.893160
H273 H 0.981400 1.380200 0.857600
C274 C 1.031390 0.898700 1.028140
C275 C 1.374700 1.157300 0.804170
H276 H 1.453700 1.140200 0.784900
C277 C 1.325190 0.994900 0.887960
C278 C 1.206720 1.023000 0.916440
C279 C 1.154100 0.862400 0.999190
C280 C 1.221640 0.679400 1.050870
H281 H 1.188000 0.569800 1.105900
C282 C 1.338300 0.653400 1.023400
H283 H 1.382500 0.527100 1.060200
C284 C 1.389470 0.807900 0.943980
H285 H 1.468800 0.788600 0.926800
C286 C 0.689830 0.662500 1.249000
H287 H 0.655900 0.557800 1.305900
C288 C 0.806080 0.631500 1.219920
H289 H 0.849700 0.503900 1.256500
C290 C 0.858200 0.784500 1.138510
C291 C 0.976570 0.751000 1.106840
H292 H 1.018600 0.619800 1.142400
C293 C 0.968610 1.101300 0.971860
C294 C 0.625300 0.842700 1.195830
H295 H 0.546300 0.859800 1.215100
C296 C 0.674810 1.005100 1.112040
C297 C 0.793280 0.977000 1.083560
C298 C 0.845900 1.137600 1.000810
C299 C 0.778360 1.320600 0.949130
H300 H 0.812000 1.430200 0.894100
C301 C 0.661700 1.346600 0.976600
H302 H 0.617500 1.472900 0.939800
C303 C 0.610530 1.192100 1.056020
H304 H 0.531200 1.211400 1.073200
C305 C -0.310170 0.837500 0.749000
H306 H -0.344100 0.942200 0.805900
C307 C -0.193920 0.868500 0.719920
H308 H -0.150300 0.996100 0.756500
C309 C -0.141800 0.715500 0.638510
C310 C -0.023430 0.749000 0.606840
H311 H 0.018600 0.880200 0.642400
C312 C -0.031390 0.398700 0.471860
C313 C -0.374700 0.657300 0.695830
H314 H -0.453700 0.640200 0.715100
C315 C -0.325190 0.494900 0.612040
C316 C -0.206720 0.523000 0.583560
C317 C -0.154100 0.362400 0.500810
C318 C -0.221640 0.179400 0.449130
H319 H -0.188000 0.069800 0.394100
C320 C -0.338300 0.153400 0.476600
H321 H -0.382500 0.027100 0.439800
C322 C -0.389470 0.307900 0.556020
H323 H -0.468800 0.288600 0.573200
C324 C 0.310170 0.162500 0.251000
H325 H 0.344100 0.057800 0.194100
C326 C 0.193920 0.131500 0.280080
H327 H 0.150300 0.003900 0.243500
C328 C 0.141800 0.284500 0.361490
C329 C 0.023430 0.251000 0.393160
H330 H -0.018600 0.119800 0.357600
C331 C 0.031390 0.601300 0.528140
C332 C 0.374700 0.342700 0.304170
H333 H 0.453700 0.359800 0.284900
C334 C 0.325190 0.505100 0.387960
C335 C 0.206720 0.477000 0.416440
C336 C 0.154100 0.637600 0.499190
C337 C 0.221640 0.820600 0.550870
H338 H 0.188000 0.930200 0.605900
C339 C 0.338300 0.846600 0.523400
H340 H 0.382500 0.972900 0.560200
C341 C 0.389470 0.692100 0.443980
H342 H 0.468800 0.711400 0.426800
C343 C 0.689830 0.837500 0.749000
H344 H 0.655900 0.942200 0.805900
C345 C 0.806080 0.868500 0.719920
H346 H 0.849700 0.996100 0.756500
C347 C 0.858200 0.715500 0.638510
C348 C 0.976570 0.749000 0.606840
H349 H 1.018600 0.880200 0.642400
C350 C 0.968610 0.398700 0.471860
C351 C 0.625300 0.657300 0.695830
H352 H 0.546300 0.640200 0.715100
C353 C 0.674810 0.494900 0.612040
C354 C 0.793280 0.523000 0.583560
C355 C 0.845900 0.362400 0.500810
C356 C 0.778360 0.179400 0.449130
H357 H 0.812000 0.069800 0.394100
C358 C 0.661700 0.153400 0.476600
H359 H 0.617500 0.027100 0.439800
C360 C 0.610530 0.307900 0.556020
H361 H 0.531200 0.288600 0.573200
C362 C 1.310170 0.162500 0.251000
H363 H 1.344100 0.057800 0.194100
C364 C 1.193920 0.131500 0.280080
H365 H 1.150300 0.003900 0.243500
C366 C 1.141800 0.284500 0.361490
C367 C 1.023430 0.251000 0.393160
H368 H 0.981400 0.119800 0.357600
C369 C 1.031390 0.601300 0.528140
C370 C 1.374700 0.342700 0.304170
H371 H 1.453700 0.359800 0.284900
C372 C 1.325190 0.505100 0.387960
C373 C 1.206720 0.477000 0.416440
C374 C 1.154100 0.637600 0.499190
C375 C 1.221640 0.820600 0.550870
H376 H 1.188000 0.930200 0.605900
C377 C 1.338300 0.846600 0.523400
H378 H 1.382500 0.972900 0.560200
C379 C 1.389470 0.692100 0.443980
H380 H 1.468800 0.711400 0.426800

#END
