./KAGRUG_from_xyz.cif_generated_by_CrystalShift
_symmetry_cell_setting triclinic
_symmetry_space_group_name_H-M 'P 1'
loop_
_symmetry_equiv_pos_site_id
_symmetry_equiv_pos_as_xyz
1 x,y,z
_cell_length_a 9.737000
_cell_length_b 11.435000
_cell_length_c 14.962000
_cell_angle_alpha 91.454000
_cell_angle_beta 102.707000
_cell_angle_gamma 112.455000
_cell_volume 1490.792999
loop_
_atom_site_label
_atom_site_type_symbol
_atom_site_fract_x
_atom_site_fract_y
_atom_site_fract_z
N1 N 0.476440 -0.102820 0.384960
C2 C 0.350100 -0.109420 0.414410
C3 C 0.293000 -0.203800 0.471510
H4 H 0.342700 -0.259800 0.488900
C5 C 0.166300 -0.214700 0.501880
H6 H 0.128800 -0.278000 0.540400
C7 C 0.091100 -0.132400 0.476360
H8 H 0.003500 -0.140500 0.498000
C9 C 0.142900 -0.041400 0.420870
H10 H 0.090400 0.012700 0.403600
C11 C 0.274300 -0.026570 0.388720
C12 C 0.333500 0.065110 0.330700
H13 H 0.286100 0.122400 0.312100
C14 C 0.458400 0.071380 0.301390
H15 H 0.498900 0.132500 0.262100
C16 C 0.527500 -0.014930 0.330460
C17 C 0.660400 -0.011920 0.298320
H18 H 0.705100 -0.071100 0.316000
N19 N 0.715180 0.071190 0.246300
N20 N 0.835430 0.058190 0.215470
C21 C 0.902600 0.153250 0.174220
C22 C 0.857200 0.266320 0.166170
N23 N 0.920860 0.363630 0.228680
N24 N 1.033030 0.348290 0.299070
C25 C 1.072900 0.422650 0.373570
H26 H 1.027000 0.481700 0.378400
C27 C 1.189600 0.416510 0.451730
C28 C 1.256700 0.327110 0.444640
H29 H 1.226800 0.271400 0.389300
C30 C 1.364900 0.322310 0.518400
H31 H 1.408700 0.261400 0.515600
C32 C 1.410900 0.409110 0.598900
C33 C 1.528000 0.416000 0.676740
H34 H 1.576400 0.357900 0.677200
C35 C 1.571900 0.505300 0.750970
H36 H 1.653400 0.511300 0.801800
C37 C 1.496800 0.588900 0.752630
H38 H 1.527400 0.650000 0.805000
C39 C 1.380500 0.583100 0.679750
H40 H 1.329200 0.638500 0.682400
C41 C 1.336700 0.494610 0.600500
N42 N 1.224950 0.496210 0.526880
C43 C 1.023800 0.151360 0.130620
C44 C 1.093100 0.249480 0.081300
H45 H 1.064900 0.320400 0.077200
C46 C 1.203200 0.243800 0.038150
H47 H 1.249700 0.310600 0.004300
C48 C 1.245400 0.141000 0.044330
H49 H 1.321100 0.137500 0.014900
C50 C 1.177400 0.043500 0.093390
H51 H 1.207100 -0.026700 0.097800
C52 C 1.066600 0.047300 0.136130
H53 H 1.019600 -0.020500 0.169200
C54 C 0.744500 0.265850 0.082170
C55 C 0.712400 0.373100 0.063200
H56 H 0.758600 0.447200 0.107100
C57 C 0.613500 0.371600 -0.019380
H58 H 0.591900 0.444800 -0.031500
C59 C 0.545800 0.265000 -0.084480
H60 H 0.479900 0.265500 -0.141500
C61 C 0.574900 0.157700 -0.065880
H62 H 0.527600 0.083600 -0.109800
C63 C 0.673100 0.158100 0.016830
H64 H 0.692000 0.083800 0.029200
N65 N 0.523560 1.102820 0.615040
C66 C 0.649900 1.109420 0.585590
C67 C 0.707000 1.203800 0.528490
H68 H 0.657300 1.259800 0.511100
C69 C 0.833700 1.214700 0.498120
H70 H 0.871200 1.278000 0.459600
C71 C 0.908900 1.132400 0.523640
H72 H 0.996500 1.140500 0.502000
C73 C 0.857100 1.041400 0.579130
H74 H 0.909600 0.987300 0.596400
C75 C 0.725700 1.026570 0.611280
C76 C 0.666500 0.934890 0.669300
H77 H 0.713900 0.877600 0.687900
C78 C 0.541600 0.928620 0.698610
H79 H 0.501100 0.867500 0.737900
C80 C 0.472500 1.014930 0.669540
C81 C 0.339600 1.011920 0.701680
H82 H 0.294900 1.071100 0.684000
N83 N 0.284820 0.928810 0.753700
N84 N 0.164570 0.941810 0.784530
C85 C 0.097400 0.846750 0.825780
C86 C 0.142800 0.733680 0.833830
N87 N 0.079140 0.636370 0.771320
N88 N -0.033030 0.651710 0.700930
C89 C -0.072900 0.577350 0.626430
H90 H -0.027000 0.518300 0.621600
C91 C -0.189600 0.583490 0.548270
C92 C -0.256700 0.672890 0.555360
H93 H -0.226800 0.728600 0.610700
C94 C -0.364900 0.677690 0.481600
H95 H -0.408700 0.738600 0.484400
C96 C -0.410900 0.590890 0.401100
C97 C -0.528000 0.584000 0.323260
H98 H -0.576400 0.642100 0.322800
C99 C -0.571900 0.494700 0.249030
H100 H -0.653400 0.488700 0.198200
C101 C -0.496800 0.411100 0.247370
H102 H -0.527400 0.350000 0.195000
C103 C -0.380500 0.416900 0.320250
H104 H -0.329200 0.361500 0.317600
C105 C -0.336700 0.505390 0.399500
N106 N -0.224950 0.503790 0.473120
C107 C -0.023800 0.848640 0.869380
C108 C -0.093100 0.750520 0.918700
H109 H -0.064900 0.679600 0.922800
C110 C -0.203200 0.756200 0.961850
H111 H -0.249700 0.689400 0.995700
C112 C -0.245400 0.859000 0.955670
H113 H -0.321100 0.862500 0.985100
C114 C -0.177400 0.956500 0.906610
H115 H -0.207100 1.026700 0.902200
C116 C -0.066600 0.952700 0.863870
H117 H -0.019600 1.020500 0.830800
C118 C 0.255500 0.734150 0.917830
C119 C 0.287600 0.626900 0.936800
H120 H 0.241400 0.552800 0.892900
C121 C 0.386500 0.628400 1.019380
H122 H 0.408100 0.555200 1.031500
C123 C 0.454200 0.735000 1.084480
H124 H 0.520100 0.734500 1.141500
C125 C 0.425100 0.842300 1.065880
H126 H 0.472400 0.916400 1.109800
C127 C 0.326900 0.841900 0.983170
H128 H 0.308000 0.916200 0.970800
C129 C 0.979900 0.671700 0.250580
H130 H 0.934500 0.578500 0.252900
H131 H 1.038600 0.713300 0.313800
Cl132 Cl 0.831760 0.724770 0.213370
Cl133 Cl 1.106030 0.705240 0.177610
C134 C 0.020100 0.328300 0.749420
H135 H 0.065500 0.421500 0.747100
H136 H -0.038600 0.286700 0.686200
Cl137 Cl 0.168240 0.275230 0.786630
Cl138 Cl -0.106030 0.294760 0.822390

#END
