./KAGRAO_from_xyz.cif_generated_by_CrystalShift
_symmetry_cell_setting triclinic
_symmetry_space_group_name_H-M 'P 1'
loop_
_symmetry_equiv_pos_site_id
_symmetry_equiv_pos_as_xyz
1 x,y,z
_cell_length_a 11.422200
_cell_length_b 5.488800
_cell_length_c 19.733800
_cell_angle_alpha 90.000000
_cell_angle_beta 100.562000
_cell_angle_gamma 90.000000
_cell_volume 1216.232631
loop_
_atom_site_label
_atom_site_type_symbol
_atom_site_fract_x
_atom_site_fract_y
_atom_site_fract_z
C1 C 0.448780 -0.118200 0.709500
H2 H 0.440700 -0.256000 0.679900
C3 C 0.380980 -0.069300 0.757990
H4 H 0.317500 -0.166200 0.768200
C5 C 0.422630 0.152500 0.790280
H6 H 0.392300 0.231600 0.826200
C7 C 0.514140 0.232100 0.760460
H8 H 0.558700 0.377200 0.772000
N9 N 0.530970 0.066170 0.710710
C10 C 0.618300 0.080700 0.667930
C11 C 0.717660 0.228900 0.686290
H12 H 0.725600 0.325600 0.726800
C13 C 0.805520 0.237500 0.646050
H14 H 0.872200 0.342000 0.658800
C15 C 0.796340 0.093900 0.587290
O16 O 0.880160 0.083120 0.546350
C17 C 0.979730 0.243600 0.562980
H18 H 0.951500 0.412300 0.562400
H19 H 1.031700 0.224300 0.529000
H20 H 1.024300 0.204200 0.609000
C21 C 0.694710 -0.052200 0.568280
C22 C 0.605920 -0.056700 0.607560
H23 H 0.536700 -0.153100 0.593400
N24 N 0.682080 -0.201330 0.508090
C25 C 0.701240 -0.136400 0.443240
H26 H 0.728400 0.016300 0.429600
C27 C 0.673200 -0.336200 0.403460
H28 H 0.677500 -0.345100 0.355900
N29 N 0.637440 -0.525500 0.440960
C30 C 0.643590 -0.436900 0.503250
H31 H 0.623500 -0.526500 0.540700
C32 C 1.051220 0.381800 0.790500
H33 H 1.059300 0.244000 0.820100
C34 C 1.119020 0.430700 0.742010
H35 H 1.182500 0.333800 0.731800
C36 C 1.077370 0.652500 0.709720
H37 H 1.107700 0.731600 0.673800
C38 C 0.985860 0.732100 0.739540
H39 H 0.941300 0.877200 0.728000
N40 N 0.969030 0.566170 0.789290
C41 C 0.881700 0.580700 0.832070
C42 C 0.782340 0.728900 0.813710
H43 H 0.774400 0.825600 0.773200
C44 C 0.694480 0.737500 0.853950
H45 H 0.627800 0.842000 0.841200
C46 C 0.703660 0.593900 0.912710
O47 O 0.619840 0.583120 0.953650
C48 C 0.520270 0.743600 0.937020
H49 H 0.548500 0.912300 0.937600
H50 H 0.468300 0.724300 0.971000
H51 H 0.475700 0.704200 0.891000
C52 C 0.805290 0.447800 0.931720
C53 C 0.894080 0.443300 0.892440
H54 H 0.963300 0.346900 0.906600
N55 N 0.817920 0.298670 0.991910
C56 C 0.798760 0.363600 1.056760
H57 H 0.771600 0.516300 1.070400
C58 C 0.826800 0.163800 1.096540
H59 H 0.822500 0.154900 1.144100
N60 N 0.862560 -0.025500 1.059040
C61 C 0.856410 0.063100 0.996750
H62 H 0.876500 -0.026500 0.959300
C63 C 0.551220 1.118200 0.290500
H64 H 0.559300 1.256000 0.320100
C65 C 0.619020 1.069300 0.242010
H66 H 0.682500 1.166200 0.231800
C67 C 0.577370 0.847500 0.209720
H68 H 0.607700 0.768400 0.173800
C69 C 0.485860 0.767900 0.239540
H70 H 0.441300 0.622800 0.228000
N71 N 0.469030 0.933830 0.289290
C72 C 0.381700 0.919300 0.332070
C73 C 0.282340 0.771100 0.313710
H74 H 0.274400 0.674400 0.273200
C75 C 0.194480 0.762500 0.353950
H76 H 0.127800 0.658000 0.341200
C77 C 0.203660 0.906100 0.412710
O78 O 0.119840 0.916880 0.453650
C79 C 0.020270 0.756400 0.437020
H80 H 0.048500 0.587700 0.437600
H81 H -0.031700 0.775700 0.471000
H82 H -0.024300 0.795800 0.391000
C83 C 0.305290 1.052200 0.431720
C84 C 0.394080 1.056700 0.392440
H85 H 0.463300 1.153100 0.406600
N86 N 0.317920 1.201330 0.491910
C87 C 0.298760 1.136400 0.556760
H88 H 0.271600 0.983700 0.570400
C89 C 0.326800 1.336200 0.596540
H90 H 0.322500 1.345100 0.644100
N91 N 0.362560 1.525500 0.559040
C92 C 0.356410 1.436900 0.496750
H93 H 0.376500 1.526500 0.459300
C94 C -0.051220 0.618200 0.209500
H95 H -0.059300 0.756000 0.179900
C96 C -0.119020 0.569300 0.257990
H97 H -0.182500 0.666200 0.268200
C98 C -0.077370 0.347500 0.290280
H99 H -0.107700 0.268400 0.326200
C100 C 0.014140 0.267900 0.260460
H101 H 0.058700 0.122800 0.272000
N102 N 0.030970 0.433830 0.210710
C103 C 0.118300 0.419300 0.167930
C104 C 0.217660 0.271100 0.186290
H105 H 0.225600 0.174400 0.226800
C106 C 0.305520 0.262500 0.146050
H107 H 0.372200 0.158000 0.158800
C108 C 0.296340 0.406100 0.087290
O109 O 0.380160 0.416880 0.046350
C110 C 0.479730 0.256400 0.062980
H111 H 0.451500 0.087700 0.062400
H112 H 0.531700 0.275700 0.029000
H113 H 0.524300 0.295800 0.109000
C114 C 0.194710 0.552200 0.068280
C115 C 0.105920 0.556700 0.107560
H116 H 0.036700 0.653100 0.093400
N117 N 0.182080 0.701330 0.008090
C118 C 0.201240 0.636400 -0.056760
H119 H 0.228400 0.483700 -0.070400
C120 C 0.173200 0.836200 -0.096540
H121 H 0.177500 0.845100 -0.144100
N122 N 0.137440 1.025500 -0.059040
C123 C 0.143590 0.936900 0.003250
H124 H 0.123500 1.026500 0.040700

#END
