
#######################################################################
#
#                 Cambridge Crystallographic Data Centre
#                                CCDC 
#
#######################################################################
#
# If this CIF has been generated from an entry in the Cambridge 
# Structural Database, then it will include bibliographic, chemical, 
# crystal, experimental, refinement or atomic coordinate data resulting 
# from the CCDC's data processing and validation procedures.
#
#######################################################################

data_KAGSAN
_symmetry_cell_setting           triclinic
_symmetry_space_group_name_H-M   'P -1'
_symmetry_Int_Tables_number      2
_space_group_name_Hall           '-P 1'
loop_
_symmetry_equiv_pos_site_id
_symmetry_equiv_pos_as_xyz
1 x,y,z
2 -x,-y,-z
_cell_length_a                   6.23400(10)
_cell_length_b                   9.3440(2)
_cell_length_c                   12.6120(3)
_cell_angle_alpha                70.9570(9)
_cell_angle_beta                 77.6140(9)
_cell_angle_gamma                84.1600(15)
_cell_volume                     677.885
loop_
_atom_site_label
_atom_site_type_symbol
_atom_site_fract_x
_atom_site_fract_y
_atom_site_fract_z
Cl1 Cl 0.48844(7) 0.64828(5) 0.29672(4)
Cl2 Cl 0.85229(6) 0.65177(5) 0.40607(4)
Cl3 Cl 0.41822(7) 0.76409(5) 0.48915(4)
C14 C 0.6069(2) 0.74600(17) 0.36797(13)
H10 H 0.6430 0.8498 0.3144
Cl1 Cl 0.51156(7) 0.35172(5) 0.70328(4)
Cl2 Cl 0.14771(6) 0.34823(5) 0.59393(4)
Cl3 Cl 0.58178(7) 0.23591(5) 0.51085(4)
C14 C 0.3931(2) 0.25400(17) 0.63203(13)
H10 H 0.3570 0.1502 0.6856
N1 N 0.70500(18) 0.09804(13) 0.22539(10)
C1 C 0.8573(2) 0.17248(16) 0.24992(12)
C2 C 0.9814(2) 0.08953(17) 0.33323(12)
H1 H 0.9569 -0.0151 0.3712
C3 C 1.1747(2) 0.31479(17) 0.30442(13)
H2 H 1.2814 0.3623 0.3240
C4 C 1.1373(2) 0.15939(17) 0.35958(13)
H3 H 1.2204 0.1025 0.4154
C5 C 1.0577(2) 0.39782(17) 0.22256(13)
H4 H 1.0847 0.5024 0.1855
C6 C 0.8971(2) 0.32882(16) 0.19282(12)
C7 C 0.7760(2) 0.40717(16) 0.10628(13)
H5 H 0.7960 0.5120 0.0670
C8 C 0.6306(2) 0.33029(16) 0.08022(13)
H6 H 0.5525 0.3799 0.0205
C9 C 0.5975(2) 0.17540(15) 0.14337(12)
C10 C 0.4370(2) 0.09025(16) 0.11981(12)
H7 H 0.4228 -0.0148 0.1600
N2 N 0.31665(18) 0.15512(13) 0.04622(10)
C11 C 0.1596(2) 0.07097(16) 0.02697(12)
C12 C 0.0947(2) -0.07487(16) 0.09507(12)
H8 H 0.1579 -0.1263 0.1601
C13 C 0.0620(2) 0.14404(16) -0.06730(12)
H9 H 0.1040 0.2435 -0.1135
C13A C -0.0620(2) -0.14404(16) 0.06730(12)
C11A C -0.1596(2) -0.07097(16) -0.02697(12)
N2A N -0.31665(18) -0.15512(13) -0.04622(10)
C10A C -0.4370(2) -0.09025(16) -0.11981(12)
C9A C -0.5975(2) -0.17540(15) -0.14337(12)
N1A N -0.70500(18) -0.09804(13) -0.22539(10)
C1A C -0.8573(2) -0.17248(16) -0.24992(12)
C2A C -0.9814(2) -0.08953(17) -0.33323(12)
H1A H -0.9569 0.0151 -0.3712
C4A C -1.1373(2) -0.15939(17) -0.35958(13)
C3A C -1.1747(2) -0.31479(17) -0.30442(13)
H2A H -1.2814 -0.3623 -0.3240
C5A C -1.0577(2) -0.39782(17) -0.22256(13)
H4A H -1.0847 -0.5024 -0.1855
C6A C -0.8971(2) -0.32882(16) -0.19282(12)
C7A C -0.7760(2) -0.40717(16) -0.10628(13)
H5A H -0.7960 -0.5120 -0.0670
C8A C -0.6306(2) -0.33029(16) -0.08022(13)
H6A H -0.5525 -0.3799 -0.0205
H3A H -1.2204 -0.1025 -0.4154
H7A H -0.4228 0.0148 -0.1600
C12A C -0.0947(2) 0.07487(16) -0.09507(12)
H8A H -0.1579 0.1263 -0.1601
H9A H -0.1040 -0.2435 0.1135
N1 N 0.70500(18) 0.09804(13) 1.22539(10)
C1 C 0.8573(2) 0.17248(16) 1.24992(12)
C2 C 0.9814(2) 0.08953(17) 1.33323(12)
H1 H 0.9569 -0.0151 1.3712
C3 C 1.1747(2) 0.31479(17) 1.30442(13)
H2 H 1.2814 0.3623 1.3240
C4 C 1.1373(2) 0.15939(17) 1.35958(13)
H3 H 1.2204 0.1025 1.4154
C5 C 1.0577(2) 0.39782(17) 1.22256(13)
H4 H 1.0847 0.5024 1.1855
C6 C 0.8971(2) 0.32882(16) 1.19282(12)
C7 C 0.7760(2) 0.40717(16) 1.10628(13)
H5 H 0.7960 0.5120 1.0670
C8 C 0.6306(2) 0.33029(16) 1.08022(13)
H6 H 0.5525 0.3799 1.0205
C9 C 0.5975(2) 0.17540(15) 1.14337(12)
C10 C 0.4370(2) 0.09025(16) 1.11981(12)
H7 H 0.4228 -0.0148 1.1600
N2 N 0.31665(18) 0.15512(13) 1.04622(10)
C11 C 0.1596(2) 0.07097(16) 1.02697(12)
C12 C 0.0947(2) -0.07487(16) 1.09507(12)
H8 H 0.1579 -0.1263 1.1601
C13 C 0.0620(2) 0.14404(16) 0.93270(12)
H9 H 0.1040 0.2435 0.8865
C13A C -0.0620(2) -0.14404(16) 1.06730(12)
C11A C -0.1596(2) -0.07097(16) 0.97303(12)
N2A N -0.31665(18) -0.15512(13) 0.95378(10)
C10A C -0.4370(2) -0.09025(16) 0.88019(12)
C9A C -0.5975(2) -0.17540(15) 0.85663(12)
N1A N -0.70500(18) -0.09804(13) 0.77461(10)
C1A C -0.8573(2) -0.17248(16) 0.75008(12)
C2A C -0.9814(2) -0.08953(17) 0.66677(12)
H1A H -0.9569 0.0151 0.6288
C4A C -1.1373(2) -0.15939(17) 0.64042(13)
C3A C -1.1747(2) -0.31479(17) 0.69558(13)
H2A H -1.2814 -0.3623 0.6760
C5A C -1.0577(2) -0.39782(17) 0.77744(13)
H4A H -1.0847 -0.5024 0.8145
C6A C -0.8971(2) -0.32882(16) 0.80718(12)
C7A C -0.7760(2) -0.40717(16) 0.89372(13)
H5A H -0.7960 -0.5120 0.9330
C8A C -0.6306(2) -0.33029(16) 0.91978(13)
H6A H -0.5525 -0.3799 0.9795
H3A H -1.2204 -0.1025 0.5846
H7A H -0.4228 0.0148 0.8400
C12A C -0.0947(2) 0.07487(16) 0.90493(12)
H8A H -0.1579 0.1263 0.8399
H9A H -0.1040 -0.2435 1.1135
N1 N 0.70500(18) 1.09804(13) 0.22539(10)
C1 C 0.8573(2) 1.17248(16) 0.24992(12)
C2 C 0.9814(2) 1.08953(17) 0.33323(12)
H1 H 0.9569 0.9849 0.3712
C3 C 1.1747(2) 1.31479(17) 0.30442(13)
H2 H 1.2814 1.3623 0.3240
C4 C 1.1373(2) 1.15939(17) 0.35958(13)
H3 H 1.2204 1.1025 0.4154
C5 C 1.0577(2) 1.39782(17) 0.22256(13)
H4 H 1.0847 1.5024 0.1855
C6 C 0.8971(2) 1.32882(16) 0.19282(12)
C7 C 0.7760(2) 1.40717(16) 0.10628(13)
H5 H 0.7960 1.5120 0.0670
C8 C 0.6306(2) 1.33029(16) 0.08022(13)
H6 H 0.5525 1.3799 0.0205
C9 C 0.5975(2) 1.17540(15) 0.14337(12)
C10 C 0.4370(2) 1.09025(16) 0.11981(12)
H7 H 0.4228 0.9852 0.1600
N2 N 0.31665(18) 1.15512(13) 0.04622(10)
C11 C 0.1596(2) 1.07097(16) 0.02697(12)
C12 C 0.0947(2) 0.92513(16) 0.09507(12)
H8 H 0.1579 0.8737 0.1601
C13 C 0.0620(2) 1.14404(16) -0.06730(12)
H9 H 0.1040 1.2435 -0.1135
C13A C -0.0620(2) 0.85596(16) 0.06730(12)
C11A C -0.1596(2) 0.92903(16) -0.02697(12)
N2A N -0.31665(18) 0.84488(13) -0.04622(10)
C10A C -0.4370(2) 0.90975(16) -0.11981(12)
C9A C -0.5975(2) 0.82460(15) -0.14337(12)
N1A N -0.70500(18) 0.90196(13) -0.22539(10)
C1A C -0.8573(2) 0.82752(16) -0.24992(12)
C2A C -0.9814(2) 0.91047(17) -0.33323(12)
H1A H -0.9569 1.0151 -0.3712
C4A C -1.1373(2) 0.84061(17) -0.35958(13)
C3A C -1.1747(2) 0.68521(17) -0.30442(13)
H2A H -1.2814 0.6377 -0.3240
C5A C -1.0577(2) 0.60218(17) -0.22256(13)
H4A H -1.0847 0.4976 -0.1855
C6A C -0.8971(2) 0.67118(16) -0.19282(12)
C7A C -0.7760(2) 0.59283(16) -0.10628(13)
H5A H -0.7960 0.4880 -0.0670
C8A C -0.6306(2) 0.66971(16) -0.08022(13)
H6A H -0.5525 0.6201 -0.0205
H3A H -1.2204 0.8975 -0.4154
H7A H -0.4228 1.0148 -0.1600
C12A C -0.0947(2) 1.07487(16) -0.09507(12)
H8A H -0.1579 1.1263 -0.1601
H9A H -0.1040 0.7565 0.1135
N1 N 0.70500(18) 1.09804(13) 1.22539(10)
C1 C 0.8573(2) 1.17248(16) 1.24992(12)
C2 C 0.9814(2) 1.08953(17) 1.33323(12)
H1 H 0.9569 0.9849 1.3712
C3 C 1.1747(2) 1.31479(17) 1.30442(13)
H2 H 1.2814 1.3623 1.3240
C4 C 1.1373(2) 1.15939(17) 1.35958(13)
H3 H 1.2204 1.1025 1.4154
C5 C 1.0577(2) 1.39782(17) 1.22256(13)
H4 H 1.0847 1.5024 1.1855
C6 C 0.8971(2) 1.32882(16) 1.19282(12)
C7 C 0.7760(2) 1.40717(16) 1.10628(13)
H5 H 0.7960 1.5120 1.0670
C8 C 0.6306(2) 1.33029(16) 1.08022(13)
H6 H 0.5525 1.3799 1.0205
C9 C 0.5975(2) 1.17540(15) 1.14337(12)
C10 C 0.4370(2) 1.09025(16) 1.11981(12)
H7 H 0.4228 0.9852 1.1600
N2 N 0.31665(18) 1.15512(13) 1.04622(10)
C11 C 0.1596(2) 1.07097(16) 1.02697(12)
C12 C 0.0947(2) 0.92513(16) 1.09507(12)
H8 H 0.1579 0.8737 1.1601
C13 C 0.0620(2) 1.14404(16) 0.93270(12)
H9 H 0.1040 1.2435 0.8865
C13A C -0.0620(2) 0.85596(16) 1.06730(12)
C11A C -0.1596(2) 0.92903(16) 0.97303(12)
N2A N -0.31665(18) 0.84488(13) 0.95378(10)
C10A C -0.4370(2) 0.90975(16) 0.88019(12)
C9A C -0.5975(2) 0.82460(15) 0.85663(12)
N1A N -0.70500(18) 0.90196(13) 0.77461(10)
C1A C -0.8573(2) 0.82752(16) 0.75008(12)
C2A C -0.9814(2) 0.91047(17) 0.66677(12)
H1A H -0.9569 1.0151 0.6288
C4A C -1.1373(2) 0.84061(17) 0.64042(13)
C3A C -1.1747(2) 0.68521(17) 0.69558(13)
H2A H -1.2814 0.6377 0.6760
C5A C -1.0577(2) 0.60218(17) 0.77744(13)
H4A H -1.0847 0.4976 0.8145
C6A C -0.8971(2) 0.67118(16) 0.80718(12)
C7A C -0.7760(2) 0.59283(16) 0.89372(13)
H5A H -0.7960 0.4880 0.9330
C8A C -0.6306(2) 0.66971(16) 0.91978(13)
H6A H -0.5525 0.6201 0.9795
H3A H -1.2204 0.8975 0.5846
H7A H -0.4228 1.0148 0.8400
C12A C -0.0947(2) 1.07487(16) 0.90493(12)
H8A H -0.1579 1.1263 0.8399
H9A H -0.1040 0.7565 1.1135
N1 N 1.70500(18) 0.09804(13) 0.22539(10)
C1 C 1.8573(2) 0.17248(16) 0.24992(12)
C2 C 1.9814(2) 0.08953(17) 0.33323(12)
H1 H 1.9569 -0.0151 0.3712
C3 C 2.1747(2) 0.31479(17) 0.30442(13)
H2 H 2.2814 0.3623 0.3240
C4 C 2.1373(2) 0.15939(17) 0.35958(13)
H3 H 2.2204 0.1025 0.4154
C5 C 2.0577(2) 0.39782(17) 0.22256(13)
H4 H 2.0847 0.5024 0.1855
C6 C 1.8971(2) 0.32882(16) 0.19282(12)
C7 C 1.7760(2) 0.40717(16) 0.10628(13)
H5 H 1.7960 0.5120 0.0670
C8 C 1.6306(2) 0.33029(16) 0.08022(13)
H6 H 1.5525 0.3799 0.0205
C9 C 1.5975(2) 0.17540(15) 0.14337(12)
C10 C 1.4370(2) 0.09025(16) 0.11981(12)
H7 H 1.4228 -0.0148 0.1600
N2 N 1.31665(18) 0.15512(13) 0.04622(10)
C11 C 1.1596(2) 0.07097(16) 0.02697(12)
C12 C 1.0947(2) -0.07487(16) 0.09507(12)
H8 H 1.1579 -0.1263 0.1601
C13 C 1.0620(2) 0.14404(16) -0.06730(12)
H9 H 1.1040 0.2435 -0.1135
C13A C 0.9380(2) -0.14404(16) 0.06730(12)
C11A C 0.8404(2) -0.07097(16) -0.02697(12)
N2A N 0.68335(18) -0.15512(13) -0.04622(10)
C10A C 0.5630(2) -0.09025(16) -0.11981(12)
C9A C 0.4025(2) -0.17540(15) -0.14337(12)
N1A N 0.29500(18) -0.09804(13) -0.22539(10)
C1A C 0.1427(2) -0.17248(16) -0.24992(12)
C2A C 0.0186(2) -0.08953(17) -0.33323(12)
H1A H 0.0431 0.0151 -0.3712
C4A C -0.1373(2) -0.15939(17) -0.35958(13)
C3A C -0.1747(2) -0.31479(17) -0.30442(13)
H2A H -0.2814 -0.3623 -0.3240
C5A C -0.0577(2) -0.39782(17) -0.22256(13)
H4A H -0.0847 -0.5024 -0.1855
C6A C 0.1029(2) -0.32882(16) -0.19282(12)
C7A C 0.2240(2) -0.40717(16) -0.10628(13)
H5A H 0.2040 -0.5120 -0.0670
C8A C 0.3694(2) -0.33029(16) -0.08022(13)
H6A H 0.4475 -0.3799 -0.0205
H3A H -0.2204 -0.1025 -0.4154
H7A H 0.5772 0.0148 -0.1600
C12A C 0.9053(2) 0.07487(16) -0.09507(12)
H8A H 0.8421 0.1263 -0.1601
H9A H 0.8960 -0.2435 0.1135
N1 N 1.70500(18) 0.09804(13) 1.22539(10)
C1 C 1.8573(2) 0.17248(16) 1.24992(12)
C2 C 1.9814(2) 0.08953(17) 1.33323(12)
H1 H 1.9569 -0.0151 1.3712
C3 C 2.1747(2) 0.31479(17) 1.30442(13)
H2 H 2.2814 0.3623 1.3240
C4 C 2.1373(2) 0.15939(17) 1.35958(13)
H3 H 2.2204 0.1025 1.4154
C5 C 2.0577(2) 0.39782(17) 1.22256(13)
H4 H 2.0847 0.5024 1.1855
C6 C 1.8971(2) 0.32882(16) 1.19282(12)
C7 C 1.7760(2) 0.40717(16) 1.10628(13)
H5 H 1.7960 0.5120 1.0670
C8 C 1.6306(2) 0.33029(16) 1.08022(13)
H6 H 1.5525 0.3799 1.0205
C9 C 1.5975(2) 0.17540(15) 1.14337(12)
C10 C 1.4370(2) 0.09025(16) 1.11981(12)
H7 H 1.4228 -0.0148 1.1600
N2 N 1.31665(18) 0.15512(13) 1.04622(10)
C11 C 1.1596(2) 0.07097(16) 1.02697(12)
C12 C 1.0947(2) -0.07487(16) 1.09507(12)
H8 H 1.1579 -0.1263 1.1601
C13 C 1.0620(2) 0.14404(16) 0.93270(12)
H9 H 1.1040 0.2435 0.8865
C13A C 0.9380(2) -0.14404(16) 1.06730(12)
C11A C 0.8404(2) -0.07097(16) 0.97303(12)
N2A N 0.68335(18) -0.15512(13) 0.95378(10)
C10A C 0.5630(2) -0.09025(16) 0.88019(12)
C9A C 0.4025(2) -0.17540(15) 0.85663(12)
N1A N 0.29500(18) -0.09804(13) 0.77461(10)
C1A C 0.1427(2) -0.17248(16) 0.75008(12)
C2A C 0.0186(2) -0.08953(17) 0.66677(12)
H1A H 0.0431 0.0151 0.6288
C4A C -0.1373(2) -0.15939(17) 0.64042(13)
C3A C -0.1747(2) -0.31479(17) 0.69558(13)
H2A H -0.2814 -0.3623 0.6760
C5A C -0.0577(2) -0.39782(17) 0.77744(13)
H4A H -0.0847 -0.5024 0.8145
C6A C 0.1029(2) -0.32882(16) 0.80718(12)
C7A C 0.2240(2) -0.40717(16) 0.89372(13)
H5A H 0.2040 -0.5120 0.9330
C8A C 0.3694(2) -0.33029(16) 0.91978(13)
H6A H 0.4475 -0.3799 0.9795
H3A H -0.2204 -0.1025 0.5846
H7A H 0.5772 0.0148 0.8400
C12A C 0.9053(2) 0.07487(16) 0.90493(12)
H8A H 0.8421 0.1263 0.8399
H9A H 0.8960 -0.2435 1.1135
N1 N 1.70500(18) 1.09804(13) 0.22539(10)
C1 C 1.8573(2) 1.17248(16) 0.24992(12)
C2 C 1.9814(2) 1.08953(17) 0.33323(12)
H1 H 1.9569 0.9849 0.3712
C3 C 2.1747(2) 1.31479(17) 0.30442(13)
H2 H 2.2814 1.3623 0.3240
C4 C 2.1373(2) 1.15939(17) 0.35958(13)
H3 H 2.2204 1.1025 0.4154
C5 C 2.0577(2) 1.39782(17) 0.22256(13)
H4 H 2.0847 1.5024 0.1855
C6 C 1.8971(2) 1.32882(16) 0.19282(12)
C7 C 1.7760(2) 1.40717(16) 0.10628(13)
H5 H 1.7960 1.5120 0.0670
C8 C 1.6306(2) 1.33029(16) 0.08022(13)
H6 H 1.5525 1.3799 0.0205
C9 C 1.5975(2) 1.17540(15) 0.14337(12)
C10 C 1.4370(2) 1.09025(16) 0.11981(12)
H7 H 1.4228 0.9852 0.1600
N2 N 1.31665(18) 1.15512(13) 0.04622(10)
C11 C 1.1596(2) 1.07097(16) 0.02697(12)
C12 C 1.0947(2) 0.92513(16) 0.09507(12)
H8 H 1.1579 0.8737 0.1601
C13 C 1.0620(2) 1.14404(16) -0.06730(12)
H9 H 1.1040 1.2435 -0.1135
C13A C 0.9380(2) 0.85596(16) 0.06730(12)
C11A C 0.8404(2) 0.92903(16) -0.02697(12)
N2A N 0.68335(18) 0.84488(13) -0.04622(10)
C10A C 0.5630(2) 0.90975(16) -0.11981(12)
C9A C 0.4025(2) 0.82460(15) -0.14337(12)
N1A N 0.29500(18) 0.90196(13) -0.22539(10)
C1A C 0.1427(2) 0.82752(16) -0.24992(12)
C2A C 0.0186(2) 0.91047(17) -0.33323(12)
H1A H 0.0431 1.0151 -0.3712
C4A C -0.1373(2) 0.84061(17) -0.35958(13)
C3A C -0.1747(2) 0.68521(17) -0.30442(13)
H2A H -0.2814 0.6377 -0.3240
C5A C -0.0577(2) 0.60218(17) -0.22256(13)
H4A H -0.0847 0.4976 -0.1855
C6A C 0.1029(2) 0.67118(16) -0.19282(12)
C7A C 0.2240(2) 0.59283(16) -0.10628(13)
H5A H 0.2040 0.4880 -0.0670
C8A C 0.3694(2) 0.66971(16) -0.08022(13)
H6A H 0.4475 0.6201 -0.0205
H3A H -0.2204 0.8975 -0.4154
H7A H 0.5772 1.0148 -0.1600
C12A C 0.9053(2) 1.07487(16) -0.09507(12)
H8A H 0.8421 1.1263 -0.1601
H9A H 0.8960 0.7565 0.1135
N1 N 1.70500(18) 1.09804(13) 1.22539(10)
C1 C 1.8573(2) 1.17248(16) 1.24992(12)
C2 C 1.9814(2) 1.08953(17) 1.33323(12)
H1 H 1.9569 0.9849 1.3712
C3 C 2.1747(2) 1.31479(17) 1.30442(13)
H2 H 2.2814 1.3623 1.3240
C4 C 2.1373(2) 1.15939(17) 1.35958(13)
H3 H 2.2204 1.1025 1.4154
C5 C 2.0577(2) 1.39782(17) 1.22256(13)
H4 H 2.0847 1.5024 1.1855
C6 C 1.8971(2) 1.32882(16) 1.19282(12)
C7 C 1.7760(2) 1.40717(16) 1.10628(13)
H5 H 1.7960 1.5120 1.0670
C8 C 1.6306(2) 1.33029(16) 1.08022(13)
H6 H 1.5525 1.3799 1.0205
C9 C 1.5975(2) 1.17540(15) 1.14337(12)
C10 C 1.4370(2) 1.09025(16) 1.11981(12)
H7 H 1.4228 0.9852 1.1600
N2 N 1.31665(18) 1.15512(13) 1.04622(10)
C11 C 1.1596(2) 1.07097(16) 1.02697(12)
C12 C 1.0947(2) 0.92513(16) 1.09507(12)
H8 H 1.1579 0.8737 1.1601
C13 C 1.0620(2) 1.14404(16) 0.93270(12)
H9 H 1.1040 1.2435 0.8865
C13A C 0.9380(2) 0.85596(16) 1.06730(12)
C11A C 0.8404(2) 0.92903(16) 0.97303(12)
N2A N 0.68335(18) 0.84488(13) 0.95378(10)
C10A C 0.5630(2) 0.90975(16) 0.88019(12)
C9A C 0.4025(2) 0.82460(15) 0.85663(12)
N1A N 0.29500(18) 0.90196(13) 0.77461(10)
C1A C 0.1427(2) 0.82752(16) 0.75008(12)
C2A C 0.0186(2) 0.91047(17) 0.66677(12)
H1A H 0.0431 1.0151 0.6288
C4A C -0.1373(2) 0.84061(17) 0.64042(13)
C3A C -0.1747(2) 0.68521(17) 0.69558(13)
H2A H -0.2814 0.6377 0.6760
C5A C -0.0577(2) 0.60218(17) 0.77744(13)
H4A H -0.0847 0.4976 0.8145
C6A C 0.1029(2) 0.67118(16) 0.80718(12)
C7A C 0.2240(2) 0.59283(16) 0.89372(13)
H5A H 0.2040 0.4880 0.9330
C8A C 0.3694(2) 0.66971(16) 0.91978(13)
H6A H 0.4475 0.6201 0.9795
H3A H -0.2204 0.8975 0.5846
H7A H 0.5772 1.0148 0.8400
C12A C 0.9053(2) 1.07487(16) 0.90493(12)
H8A H 0.8421 1.1263 0.8399
H9A H 0.8960 0.7565 1.1135

#END
