./KABBIB_from_POSCAR.cif_generated_by_CrystalShift
_symmetry_cell_setting triclinic
_symmetry_space_group_name_H-M 'P 1'
loop_
_symmetry_equiv_pos_site_id
_symmetry_equiv_pos_as_xyz
1 x,y,z
_cell_length_a 6.769700
_cell_length_b 18.410800
_cell_length_c 13.043100
_cell_angle_alpha 90.000000
_cell_angle_beta 99.042000
_cell_angle_gamma 90.000000
_cell_volume 1605.433395
loop_
_atom_site_label
_atom_site_type_symbol
_atom_site_fract_x
_atom_site_fract_y
_atom_site_fract_z
H1 H 0.193000 0.803400 0.207700
H2 H -0.010800 0.887600 0.428100
H3 H 0.169200 0.837500 0.412400
H4 H 0.226200 1.008500 0.234800
H5 H 0.045200 1.060900 0.239200
H6 H 0.040000 0.497000 0.610000
H7 H -0.098100 0.839400 -0.032500
H8 H -0.124600 0.799700 0.070700
H9 H -0.019400 0.760100 -0.225200
H10 H 0.692500 0.600900 0.557800
H11 H 0.089700 0.806900 -0.370500
H12 H 0.777800 0.552600 0.997800
H13 H 0.869600 0.563200 0.895400
H14 H 0.403000 0.855500 -0.357100
H15 H 0.749600 0.443700 0.902000
H16 H 0.535200 0.473100 0.911200
H17 H 0.608900 0.856700 -0.202600
H18 H 0.410200 0.653500 0.762800
H19 H 0.503400 0.812400 -0.055100
H20 H 1.003400 0.687600 0.444900
H21 H -0.089800 0.846500 0.262800
H22 H 1.108900 0.643300 0.297400
H23 H 0.035200 1.026900 0.411200
H24 H 0.903000 0.644500 0.142900
H25 H 0.249600 1.056300 0.402000
H26 H 0.589700 0.693100 0.129500
H27 H 0.369600 0.936800 0.395400
H28 H 0.480600 0.739900 0.274800
H29 H 0.277800 0.947400 0.497800
H30 H 0.192500 0.899100 0.057800
H31 H 0.375400 0.700300 0.570700
H32 H 0.401900 0.660600 0.467500
H33 H -0.460000 1.003000 0.110000
H34 H 0.307000 0.303400 0.292300
H35 H 0.545200 0.439100 0.739200
H36 H 0.726200 0.491500 0.734800
H37 H 0.195200 0.378500 0.272900
H38 H 0.669200 0.662500 0.912400
H39 H 0.489200 0.612400 0.928100
H40 H 0.510800 0.387600 0.071900
H41 H 0.804800 0.621500 0.727100
H42 H 0.693000 0.696600 0.707700
H43 H 0.330800 0.337500 0.087600
H44 H 0.273800 0.508500 0.265200
H45 H 0.454800 0.560900 0.260800
H46 H 0.598100 0.339400 0.532500
H47 H 0.624600 0.299700 0.429300
H48 H 1.460000 -0.003000 0.890000
H49 H 0.519400 0.260100 0.725200
H50 H 0.410300 0.306900 0.870500
H51 H 0.097000 0.355500 0.857100
H52 H 0.807500 0.100900 0.942200
H53 H -0.108900 0.356700 0.702600
H54 H 0.722200 0.052600 0.502200
H55 H 0.630400 0.063200 0.604600
H56 H -0.003400 0.312400 0.555100
H57 H 0.750400 -0.056300 0.598000
H58 H 0.964800 -0.026900 0.588800
H59 H 0.589800 0.346500 0.237200
H60 H 1.089800 0.153500 0.737200
H61 H 0.464800 0.526900 0.088800
H62 H 0.496600 0.187600 1.055100
H63 H 0.250400 0.556300 0.098000
H64 H 0.391100 0.143300 1.202600
H65 H 0.130400 0.436800 0.104600
H66 H 0.597000 0.144500 1.357100
H67 H 0.222200 0.447400 0.002200
H68 H 0.910300 0.193100 1.370500
H69 H 0.307500 0.399100 0.442200
H70 H 1.019400 0.239900 1.225200
H71 H 0.960000 0.503000 0.390000
H72 H 0.807000 0.196600 0.792300
H73 H 1.124600 0.200300 0.929300
H74 H 1.098100 0.160600 1.032500
H75 H 0.695200 0.121500 0.772900
H76 H 1.010800 0.112400 0.571900
H77 H 0.954800 -0.060900 0.760800
H78 H 0.773800 -0.008500 0.765200
H79 H 0.830800 0.162500 0.587600
H80 H 0.304800 0.878500 0.227100
C81 C 0.895800 -0.014900 0.736000
C82 C 0.824100 0.144300 0.795000
C83 C 1.042000 0.046800 0.774400
C84 C 1.026400 0.180600 0.968500
C85 C 0.175900 0.855700 0.205000
C86 C 0.244000 0.522800 0.730300
C87 C 0.756000 0.477200 0.269700
C88 C 0.102300 0.882900 0.391200
C89 C 0.104200 1.014900 0.264000
C90 C 0.768000 0.218000 1.124200
C91 C -0.042000 0.953200 0.225600
C92 C 0.727200 0.458200 0.440700
C93 C 0.413200 0.380300 0.406000
C94 C 0.892100 0.219900 1.219900
C95 C 0.253800 0.445200 0.077300
C96 C 0.827000 0.192200 1.306600
C97 C 0.640900 0.163500 1.298600
C98 C 0.344700 0.517300 0.118500
C99 C 0.519300 0.162400 1.206700
C100 C 0.581700 0.189200 1.118400
C101 C 0.475400 0.379800 0.225800
C102 C 0.975400 0.120200 0.725800
C103 C 0.081700 0.310800 0.618400
C104 C 0.844700 -0.017300 0.618500
C105 C 0.019300 0.337600 0.706700
C106 C 0.753800 0.054800 0.577300
C107 C 0.140900 0.336500 0.798600
C108 C 0.913200 0.119700 0.906000
C109 C 0.327000 0.307800 0.806600
C110 C 1.227200 0.041800 0.940700
C111 C 0.392100 0.280100 0.719900
C112 C 0.272800 0.541800 0.559300
C113 C 0.268000 0.282000 0.624200
C114 C 0.526400 0.319400 0.468500
C115 C -0.026400 0.819400 0.031500
C116 C 0.232000 0.782000 -0.124200
C117 C 0.542000 0.453200 0.274400
C118 C 0.395800 0.514900 0.236000
C119 C 1.256000 0.022800 0.769700
C120 C 0.586800 0.619700 0.594000
C121 C 0.397700 0.382900 0.108800
C122 C 0.107900 0.780100 -0.219900
C123 C 0.675900 0.644300 0.705000
C124 C 0.324100 0.355700 0.295000
C125 C 0.602300 0.617100 0.891200
C126 C 0.604200 0.485100 0.764000
C127 C 0.746200 0.554800 0.922700
C128 C 0.173000 0.807800 -0.306600
C129 C -0.256000 0.977200 0.230300
C130 C 0.655300 0.482700 0.881500
C131 C 0.359100 0.836500 -0.298600
C132 C 0.458000 0.546800 0.725600
C133 C 0.524600 0.620200 0.774200
C134 C -0.227200 0.958200 0.059300
C135 C 0.086800 0.880300 0.094000
C136 C 0.473600 0.680600 0.531500
C137 C 0.246200 0.945200 0.422700
C138 C 0.732000 0.718000 0.375800
C139 C 0.607900 0.719900 0.280100
C140 C 0.155300 1.017300 0.381500
C141 C 0.673000 0.692200 0.193400
C142 C 0.859100 0.663500 0.201400
C143 C 0.024600 0.879800 0.274200
C144 C 0.980700 0.662400 0.293300
C145 C 0.418300 0.810800 -0.118400
C146 C 0.918300 0.689200 0.381600
C147 C 0.480700 0.837600 -0.206700
C148 C 0.897700 0.117100 0.608800
N149 N -0.345000 0.985000 0.129100
N150 N 0.155000 0.515000 0.629100
N151 N 0.845000 0.485000 0.370900
N152 N 0.549400 0.439840 0.385400
N153 N 0.450600 0.560160 0.614600
N154 N 1.049400 0.060160 0.885400
N155 N 1.345000 0.015000 0.870900
N156 N -0.049400 0.939840 0.114600
O157 O 1.332700 0.011100 0.694400
O158 O 0.167300 0.511100 0.805600
O159 O 0.832700 0.488900 0.194400
O160 O -0.332700 0.988900 0.305600
O161 O -0.282800 0.953080 -0.034400
O162 O 0.217200 0.546920 0.465600
O163 O 0.782800 0.453080 0.534400
O164 O 1.282800 0.046920 1.034400
Se165 Se 0.354720 0.240580 0.502330
Se166 Se 0.854720 0.259420 1.002330
Se167 Se 0.145280 0.740580 -0.002330
Se168 Se 0.645280 0.759420 0.497670

#END
