./KABBIA_from_POSCAR.cif_generated_by_CrystalShift
_symmetry_cell_setting triclinic
_symmetry_space_group_name_H-M 'P 1'
loop_
_symmetry_equiv_pos_site_id
_symmetry_equiv_pos_as_xyz
1 x,y,z
_cell_length_a 6.847300
_cell_length_b 12.130700
_cell_length_c 19.430000
_cell_angle_alpha 90.000000
_cell_angle_beta 90.000000
_cell_angle_gamma 90.000000
_cell_volume 1613.905193
loop_
_atom_site_label
_atom_site_type_symbol
_atom_site_fract_x
_atom_site_fract_y
_atom_site_fract_z
H1 H 0.168700 0.134300 0.113900
H2 H 0.168700 0.365700 0.613900
H3 H 0.668700 0.365700 0.886100
H4 H 0.668700 0.134300 0.386100
H5 H 0.331300 0.634300 0.113900
H6 H 0.331300 0.865700 0.613900
H7 H 0.831300 0.865700 0.886100
H8 H 0.831300 0.634300 0.386100
C9 C 1.100800 0.742500 0.318400
C10 C 0.496600 0.677000 0.446700
C11 C 0.861700 0.888400 0.341680
C12 C 0.920900 0.780100 0.347640
C13 C 0.399200 0.242500 0.318400
C14 C 0.584900 0.641100 0.900700
C15 C 0.626600 0.752100 0.909460
C16 C 0.798500 0.791600 0.881790
C17 C 1.003400 0.177000 0.446700
C18 C 0.920900 0.719900 0.847640
C19 C 0.861700 0.611600 0.841680
C20 C 0.496600 0.823000 0.946700
C21 C 1.100800 0.757500 0.818400
C22 C 0.798500 0.708400 0.381790
C23 C 0.626600 0.747900 0.409460
C24 C 0.584900 0.858900 0.400700
C25 C 0.399200 0.257500 0.818400
C26 C 1.003400 0.323000 0.946700
C27 C 0.084900 0.858900 0.099300
C28 C 0.126600 0.747900 0.090540
C29 C 0.638300 0.388400 0.341680
C30 C 0.579100 0.280100 0.347640
C31 C 0.420900 0.780100 0.152360
C32 C 0.361700 0.888400 0.158320
C33 C -0.003400 0.677000 0.053300
C34 C 0.600800 0.742500 0.181600
C35 C 0.638300 0.111600 0.841680
C36 C 0.579100 0.219900 0.847640
C37 C 0.701500 0.208400 0.381790
C38 C 0.701500 0.291600 0.881790
C39 C 0.873400 0.252100 0.909460
C40 C 0.415100 0.141100 0.599300
C41 C 0.373400 0.252100 0.590540
C42 C 0.201500 0.291600 0.618210
C43 C 0.873400 0.247900 0.409460
C44 C 0.079100 0.219900 0.652360
C45 C 0.138300 0.111600 0.658320
C46 C 0.503400 0.323000 0.553300
C47 C -0.100800 0.257500 0.681600
C48 C 0.915100 0.141100 0.900700
C49 C -0.100800 0.242500 0.181600
C50 C 0.503400 0.177000 0.053300
C51 C 0.138300 0.388400 0.158320
C52 C 0.079100 0.280100 0.152360
C53 C 0.084900 0.641100 0.599300
C54 C 0.126600 0.752100 0.590540
C55 C 0.298500 0.791600 0.618210
C56 C 0.298500 0.708400 0.118210
C57 C 0.420900 0.719900 0.652360
C58 C 0.361700 0.611600 0.658320
C59 C -0.003400 0.823000 0.553300
C60 C 0.600800 0.757500 0.681600
C61 C 0.915100 0.358900 0.400700
C62 C 0.201500 0.208400 0.118210
C63 C 0.373400 0.247900 0.090540
C64 C 0.415100 0.358900 0.099300
N65 N 0.745000 0.787200 0.704100
N66 N -0.104900 0.877800 0.522500
N67 N 0.198600 0.572000 0.632050
N68 N 0.395100 0.622200 0.477500
N69 N 0.698600 0.928000 0.367950
N70 N -0.245000 0.287200 0.704100
N71 N 0.604900 0.377800 0.522500
N72 N 0.301400 0.072000 0.632050
N73 N 0.801400 0.428000 0.367950
N74 N 1.104900 0.122200 0.477500
N75 N 0.255000 0.212800 0.295900
N76 N 0.301400 0.428000 0.132050
N77 N 0.604900 0.122200 0.022500
N78 N -0.245000 0.212800 0.204100
N79 N 0.698600 0.572000 0.867950
N80 N 0.745000 0.712800 0.204100
N81 N -0.104900 0.622200 0.022500
N82 N 0.198600 0.928000 0.132050
N83 N 0.255000 0.287200 0.795900
N84 N 1.104900 0.377800 0.977500
N85 N 1.245000 0.787200 0.795900
N86 N 0.395100 0.877800 0.977500
N87 N 0.801400 0.072000 0.867950
N88 N 1.245000 0.712800 0.295900
Cl89 Cl 1.123510 0.085840 0.935120
Cl90 Cl -0.123510 0.914160 0.064880
Cl91 Cl 0.505140 0.982050 0.201190
Cl92 Cl 0.623510 0.085840 0.564880
Cl93 Cl 1.005140 0.517950 0.798810
Cl94 Cl 0.376490 0.585840 0.935120
Cl95 Cl -0.005140 0.482050 0.201190
Cl96 Cl 0.623510 0.414160 0.064880
Cl97 Cl -0.005140 0.017950 0.701190
Cl98 Cl 0.494860 0.482050 0.298810
Cl99 Cl 1.123510 0.414160 0.435120
Cl100 Cl 0.376490 0.914160 0.435120
Cl101 Cl 1.005140 0.982050 0.298810
Cl102 Cl -0.123510 0.585840 0.564880
Cl103 Cl 0.505140 0.517950 0.701190
Cl104 Cl 0.494860 0.017950 0.798810

#END
