
#######################################################################
#
#                 Cambridge Crystallographic Data Centre
#                                CCDC 
#
#######################################################################
#
# If this CIF has been generated from an entry in the Cambridge 
# Structural Database, then it will include bibliographic, chemical, 
# crystal, experimental, refinement or atomic coordinate data resulting 
# from the CCDC's data processing and validation procedures.
#
#######################################################################

data_KABBEU
_symmetry_cell_setting           cubic
_symmetry_space_group_name_H-M   'P a 3'
_symmetry_Int_Tables_number      205
_space_group_name_Hall           '-P 2ac 2ab 3'
loop_
_symmetry_equiv_pos_site_id
_symmetry_equiv_pos_as_xyz
1 x,y,z
2 z,x,y
3 y,z,x
4 1/2+x,y,1/2-z
5 1/2+z,x,1/2-y
6 1/2+y,z,1/2-x
7 1/2-x,1/2+y,z
8 1/2-z,1/2+x,y
9 1/2-y,1/2+z,x
10 -x,1/2+y,1/2-z
11 -z,1/2+x,1/2-y
12 -y,1/2+z,1/2-x
13 -x,-y,-z
14 -z,-x,-y
15 -y,-z,-x
16 1/2-x,-y,1/2+z
17 1/2-z,-x,1/2+y
18 1/2-y,-z,1/2+x
19 1/2+x,1/2-y,-z
20 1/2+z,1/2-x,-y
21 1/2+y,1/2-z,-x
22 x,1/2-y,1/2+z
23 z,1/2-x,1/2+y
24 y,1/2-z,1/2+x
_cell_length_a                   16.126(4)
_cell_length_b                   16.126(4)
_cell_length_c                   16.126(4)
_cell_angle_alpha                90
_cell_angle_beta                 90
_cell_angle_gamma                90
_cell_volume                     4193.53
loop_
_atom_site_label
_atom_site_type_symbol
_atom_site_fract_x
_atom_site_fract_y
_atom_site_fract_z
Au1 Au 0.09292(2) 0.09292(2) 0.09292(2)
P1 P 0.1746(1) 0.1746(1) 0.1746(1)
C1 C 0.0213(4) 0.0213(4) 0.0213(4)
C2 C 0.2165(4) 0.2632(4) 0.1195(4)
C3 C 0.2939(5) 0.2968(5) 0.1373(5)
C4 C 0.3235(6) 0.3652(5) 0.0915(6)
C5 C 0.2773(7) 0.3977(5) 0.0311(6)
C6 C 0.2001(7) 0.3666(6) 0.0132(6)
C7 C 0.1705(5) 0.2975(5) 0.0571(5)
H1 H 0.3374(5) 0.2843(5) 0.1769(5)
H2 H 0.3777(6) 0.3772(5) 0.1148(6)
H3 H 0.2848(7) 0.4429(5) -0.0080(6)
H4 H 0.1562(7) 0.3803(6) -0.0256(6)
H5 H 0.1168(5) 0.2854(5) 0.0328(5)
C2A C 0.1195(4) 0.2165(4) 0.2632(4)
C2B C 0.2632(4) 0.1195(4) 0.2165(4)
C1L C -0.0213(4) -0.0213(4) -0.0213(4)
C3A C 0.1373(5) 0.2939(5) 0.2968(5)
C7A C 0.0571(5) 0.1705(5) 0.2975(5)
C3B C 0.2968(5) 0.1373(5) 0.2939(5)
C7B C 0.2975(5) 0.0571(5) 0.1705(5)
Au1L Au -0.09292(2) -0.09292(2) -0.09292(2)
C4A C 0.0915(6) 0.3235(6) 0.3652(5)
H1A H 0.1769(5) 0.3374(5) 0.2843(5)
C6A C 0.0132(6) 0.2001(7) 0.3666(6)
H5A H 0.0328(5) 0.1168(5) 0.2854(5)
C4B C 0.3652(5) 0.0915(6) 0.3235(6)
H1B H 0.2843(5) 0.1769(5) 0.3374(5)
C6B C 0.3666(6) 0.0132(6) 0.2001(7)
H5B H 0.2854(5) 0.0328(5) 0.1168(5)
P1L P -0.1746(1) -0.1746(1) -0.1746(1)
C5A C 0.0311(6) 0.2773(7) 0.3977(5)
H2A H 0.1148(6) 0.3777(6) 0.3772(5)
H4A H -0.0256(6) 0.1562(7) 0.3803(6)
C5B C 0.3977(5) 0.0311(6) 0.2773(7)
H2B H 0.3772(5) 0.1148(6) 0.3777(6)
H4B H 0.3803(6) -0.0256(6) 0.1562(7)
C2L C -0.2165(4) -0.2632(4) -0.1195(4)
C2M C -0.1195(4) -0.2165(4) -0.2632(4)
C2N C -0.2632(4) -0.1195(4) -0.2165(4)
H3A H -0.0080(6) 0.2848(7) 0.4429(5)
H3B H 0.4429(5) -0.0080(6) 0.2848(7)
C3L C -0.2939(5) -0.2968(5) -0.1373(5)
C7L C -0.1705(5) -0.2975(5) -0.0571(5)
C3M C -0.1373(5) -0.2939(5) -0.2968(5)
C7M C -0.0571(5) -0.1705(5) -0.2975(5)
C3N C -0.2968(5) -0.1373(5) -0.2939(5)
C7N C -0.2975(5) -0.0571(5) -0.1705(5)
C4L C -0.3235(6) -0.3652(5) -0.0915(6)
H1L H -0.3374(5) -0.2843(5) -0.1769(5)
C6L C -0.2001(7) -0.3666(6) -0.0132(6)
H5L H -0.1168(5) -0.2854(5) -0.0328(5)
C4M C -0.0915(6) -0.3235(6) -0.3652(5)
H1M H -0.1769(5) -0.3374(5) -0.2843(5)
C6M C -0.0132(6) -0.2001(7) -0.3666(6)
H5M H -0.0328(5) -0.1168(5) -0.2854(5)
C4N C -0.3652(5) -0.0915(6) -0.3235(6)
H1N H -0.2843(5) -0.1769(5) -0.3374(5)
C6N C -0.3666(6) -0.0132(6) -0.2001(7)
H5N H -0.2854(5) -0.0328(5) -0.1168(5)
C5L C -0.2773(7) -0.3977(5) -0.0311(6)
H2L H -0.3777(6) -0.3772(5) -0.1148(6)
H4L H -0.1562(7) -0.3803(6) 0.0256(6)
C5M C -0.0311(6) -0.2773(7) -0.3977(5)
H2M H -0.1148(6) -0.3777(6) -0.3772(5)
H4M H 0.0256(6) -0.1562(7) -0.3803(6)
C5N C -0.3977(5) -0.0311(6) -0.2773(7)
H2N H -0.3772(5) -0.1148(6) -0.3777(6)
H4N H -0.3803(6) 0.0256(6) -0.1562(7)
H3L H -0.2848(7) -0.4429(5) 0.0080(6)
H3M H 0.0080(6) -0.2848(7) -0.4429(5)
H3N H -0.4429(5) 0.0080(6) -0.2848(7)
Au1 Au 0.09292(2) 0.09292(2) 1.09292(2)
P1 P 0.1746(1) 0.1746(1) 1.1746(1)
C1 C 0.0213(4) 0.0213(4) 1.0213(4)
C2 C 0.2165(4) 0.2632(4) 1.1195(4)
C3 C 0.2939(5) 0.2968(5) 1.1373(5)
C4 C 0.3235(6) 0.3652(5) 1.0915(6)
C5 C 0.2773(7) 0.3977(5) 1.0311(6)
C6 C 0.2001(7) 0.3666(6) 1.0132(6)
C7 C 0.1705(5) 0.2975(5) 1.0571(5)
H1 H 0.3374(5) 0.2843(5) 1.1769(5)
H2 H 0.3777(6) 0.3772(5) 1.1148(6)
H3 H 0.2848(7) 0.4429(5) 0.9920(6)
H4 H 0.1562(7) 0.3803(6) 0.9744(6)
H5 H 0.1168(5) 0.2854(5) 1.0328(5)
C2A C 0.1195(4) 0.2165(4) 1.2632(4)
C2B C 0.2632(4) 0.1195(4) 1.2165(4)
C1L C -0.0213(4) -0.0213(4) 0.9787(4)
C3A C 0.1373(5) 0.2939(5) 1.2968(5)
C7A C 0.0571(5) 0.1705(5) 1.2975(5)
C3B C 0.2968(5) 0.1373(5) 1.2939(5)
C7B C 0.2975(5) 0.0571(5) 1.1705(5)
Au1L Au -0.09292(2) -0.09292(2) 0.90708(2)
C4A C 0.0915(6) 0.3235(6) 1.3652(5)
H1A H 0.1769(5) 0.3374(5) 1.2843(5)
C6A C 0.0132(6) 0.2001(7) 1.3666(6)
H5A H 0.0328(5) 0.1168(5) 1.2854(5)
C4B C 0.3652(5) 0.0915(6) 1.3235(6)
H1B H 0.2843(5) 0.1769(5) 1.3374(5)
C6B C 0.3666(6) 0.0132(6) 1.2001(7)
H5B H 0.2854(5) 0.0328(5) 1.1168(5)
P1L P -0.1746(1) -0.1746(1) 0.8254(1)
C5A C 0.0311(6) 0.2773(7) 1.3977(5)
H2A H 0.1148(6) 0.3777(6) 1.3772(5)
H4A H -0.0256(6) 0.1562(7) 1.3803(6)
C5B C 0.3977(5) 0.0311(6) 1.2773(7)
H2B H 0.3772(5) 0.1148(6) 1.3777(6)
H4B H 0.3803(6) -0.0256(6) 1.1562(7)
C2L C -0.2165(4) -0.2632(4) 0.8805(4)
C2M C -0.1195(4) -0.2165(4) 0.7368(4)
C2N C -0.2632(4) -0.1195(4) 0.7835(4)
H3A H -0.0080(6) 0.2848(7) 1.4429(5)
H3B H 0.4429(5) -0.0080(6) 1.2848(7)
C3L C -0.2939(5) -0.2968(5) 0.8627(5)
C7L C -0.1705(5) -0.2975(5) 0.9429(5)
C3M C -0.1373(5) -0.2939(5) 0.7032(5)
C7M C -0.0571(5) -0.1705(5) 0.7025(5)
C3N C -0.2968(5) -0.1373(5) 0.7061(5)
C7N C -0.2975(5) -0.0571(5) 0.8295(5)
C4L C -0.3235(6) -0.3652(5) 0.9085(6)
H1L H -0.3374(5) -0.2843(5) 0.8231(5)
C6L C -0.2001(7) -0.3666(6) 0.9868(6)
H5L H -0.1168(5) -0.2854(5) 0.9672(5)
C4M C -0.0915(6) -0.3235(6) 0.6348(5)
H1M H -0.1769(5) -0.3374(5) 0.7157(5)
C6M C -0.0132(6) -0.2001(7) 0.6334(6)
H5M H -0.0328(5) -0.1168(5) 0.7146(5)
C4N C -0.3652(5) -0.0915(6) 0.6765(6)
H1N H -0.2843(5) -0.1769(5) 0.6626(5)
C6N C -0.3666(6) -0.0132(6) 0.7999(7)
H5N H -0.2854(5) -0.0328(5) 0.8832(5)
C5L C -0.2773(7) -0.3977(5) 0.9689(6)
H2L H -0.3777(6) -0.3772(5) 0.8852(6)
H4L H -0.1562(7) -0.3803(6) 1.0256(6)
C5M C -0.0311(6) -0.2773(7) 0.6023(5)
H2M H -0.1148(6) -0.3777(6) 0.6228(5)
H4M H 0.0256(6) -0.1562(7) 0.6197(6)
C5N C -0.3977(5) -0.0311(6) 0.7227(7)
H2N H -0.3772(5) -0.1148(6) 0.6223(6)
H4N H -0.3803(6) 0.0256(6) 0.8438(7)
H3L H -0.2848(7) -0.4429(5) 1.0080(6)
H3M H 0.0080(6) -0.2848(7) 0.5571(5)
H3N H -0.4429(5) 0.0080(6) 0.7152(7)
Au1 Au 0.09292(2) 1.09292(2) 0.09292(2)
P1 P 0.1746(1) 1.1746(1) 0.1746(1)
C1 C 0.0213(4) 1.0213(4) 0.0213(4)
C2 C 0.2165(4) 1.2632(4) 0.1195(4)
C3 C 0.2939(5) 1.2968(5) 0.1373(5)
C4 C 0.3235(6) 1.3652(5) 0.0915(6)
C5 C 0.2773(7) 1.3977(5) 0.0311(6)
C6 C 0.2001(7) 1.3666(6) 0.0132(6)
C7 C 0.1705(5) 1.2975(5) 0.0571(5)
H1 H 0.3374(5) 1.2843(5) 0.1769(5)
H2 H 0.3777(6) 1.3772(5) 0.1148(6)
H3 H 0.2848(7) 1.4429(5) -0.0080(6)
H4 H 0.1562(7) 1.3803(6) -0.0256(6)
H5 H 0.1168(5) 1.2854(5) 0.0328(5)
C2A C 0.1195(4) 1.2165(4) 0.2632(4)
C2B C 0.2632(4) 1.1195(4) 0.2165(4)
C1L C -0.0213(4) 0.9787(4) -0.0213(4)
C3A C 0.1373(5) 1.2939(5) 0.2968(5)
C7A C 0.0571(5) 1.1705(5) 0.2975(5)
C3B C 0.2968(5) 1.1373(5) 0.2939(5)
C7B C 0.2975(5) 1.0571(5) 0.1705(5)
Au1L Au -0.09292(2) 0.90708(2) -0.09292(2)
C4A C 0.0915(6) 1.3235(6) 0.3652(5)
H1A H 0.1769(5) 1.3374(5) 0.2843(5)
C6A C 0.0132(6) 1.2001(7) 0.3666(6)
H5A H 0.0328(5) 1.1168(5) 0.2854(5)
C4B C 0.3652(5) 1.0915(6) 0.3235(6)
H1B H 0.2843(5) 1.1769(5) 0.3374(5)
C6B C 0.3666(6) 1.0132(6) 0.2001(7)
H5B H 0.2854(5) 1.0328(5) 0.1168(5)
P1L P -0.1746(1) 0.8254(1) -0.1746(1)
C5A C 0.0311(6) 1.2773(7) 0.3977(5)
H2A H 0.1148(6) 1.3777(6) 0.3772(5)
H4A H -0.0256(6) 1.1562(7) 0.3803(6)
C5B C 0.3977(5) 1.0311(6) 0.2773(7)
H2B H 0.3772(5) 1.1148(6) 0.3777(6)
H4B H 0.3803(6) 0.9744(6) 0.1562(7)
C2L C -0.2165(4) 0.7368(4) -0.1195(4)
C2M C -0.1195(4) 0.7835(4) -0.2632(4)
C2N C -0.2632(4) 0.8805(4) -0.2165(4)
H3A H -0.0080(6) 1.2848(7) 0.4429(5)
H3B H 0.4429(5) 0.9920(6) 0.2848(7)
C3L C -0.2939(5) 0.7032(5) -0.1373(5)
C7L C -0.1705(5) 0.7025(5) -0.0571(5)
C3M C -0.1373(5) 0.7061(5) -0.2968(5)
C7M C -0.0571(5) 0.8295(5) -0.2975(5)
C3N C -0.2968(5) 0.8627(5) -0.2939(5)
C7N C -0.2975(5) 0.9429(5) -0.1705(5)
C4L C -0.3235(6) 0.6348(5) -0.0915(6)
H1L H -0.3374(5) 0.7157(5) -0.1769(5)
C6L C -0.2001(7) 0.6334(6) -0.0132(6)
H5L H -0.1168(5) 0.7146(5) -0.0328(5)
C4M C -0.0915(6) 0.6765(6) -0.3652(5)
H1M H -0.1769(5) 0.6626(5) -0.2843(5)
C6M C -0.0132(6) 0.7999(7) -0.3666(6)
H5M H -0.0328(5) 0.8832(5) -0.2854(5)
C4N C -0.3652(5) 0.9085(6) -0.3235(6)
H1N H -0.2843(5) 0.8231(5) -0.3374(5)
C6N C -0.3666(6) 0.9868(6) -0.2001(7)
H5N H -0.2854(5) 0.9672(5) -0.1168(5)
C5L C -0.2773(7) 0.6023(5) -0.0311(6)
H2L H -0.3777(6) 0.6228(5) -0.1148(6)
H4L H -0.1562(7) 0.6197(6) 0.0256(6)
C5M C -0.0311(6) 0.7227(7) -0.3977(5)
H2M H -0.1148(6) 0.6223(6) -0.3772(5)
H4M H 0.0256(6) 0.8438(7) -0.3803(6)
C5N C -0.3977(5) 0.9689(6) -0.2773(7)
H2N H -0.3772(5) 0.8852(6) -0.3777(6)
H4N H -0.3803(6) 1.0256(6) -0.1562(7)
H3L H -0.2848(7) 0.5571(5) 0.0080(6)
H3M H 0.0080(6) 0.7152(7) -0.4429(5)
H3N H -0.4429(5) 1.0080(6) -0.2848(7)
Au1 Au 0.09292(2) 1.09292(2) 1.09292(2)
P1 P 0.1746(1) 1.1746(1) 1.1746(1)
C1 C 0.0213(4) 1.0213(4) 1.0213(4)
C2 C 0.2165(4) 1.2632(4) 1.1195(4)
C3 C 0.2939(5) 1.2968(5) 1.1373(5)
C4 C 0.3235(6) 1.3652(5) 1.0915(6)
C5 C 0.2773(7) 1.3977(5) 1.0311(6)
C6 C 0.2001(7) 1.3666(6) 1.0132(6)
C7 C 0.1705(5) 1.2975(5) 1.0571(5)
H1 H 0.3374(5) 1.2843(5) 1.1769(5)
H2 H 0.3777(6) 1.3772(5) 1.1148(6)
H3 H 0.2848(7) 1.4429(5) 0.9920(6)
H4 H 0.1562(7) 1.3803(6) 0.9744(6)
H5 H 0.1168(5) 1.2854(5) 1.0328(5)
C2A C 0.1195(4) 1.2165(4) 1.2632(4)
C2B C 0.2632(4) 1.1195(4) 1.2165(4)
C1L C -0.0213(4) 0.9787(4) 0.9787(4)
C3A C 0.1373(5) 1.2939(5) 1.2968(5)
C7A C 0.0571(5) 1.1705(5) 1.2975(5)
C3B C 0.2968(5) 1.1373(5) 1.2939(5)
C7B C 0.2975(5) 1.0571(5) 1.1705(5)
Au1L Au -0.09292(2) 0.90708(2) 0.90708(2)
C4A C 0.0915(6) 1.3235(6) 1.3652(5)
H1A H 0.1769(5) 1.3374(5) 1.2843(5)
C6A C 0.0132(6) 1.2001(7) 1.3666(6)
H5A H 0.0328(5) 1.1168(5) 1.2854(5)
C4B C 0.3652(5) 1.0915(6) 1.3235(6)
H1B H 0.2843(5) 1.1769(5) 1.3374(5)
C6B C 0.3666(6) 1.0132(6) 1.2001(7)
H5B H 0.2854(5) 1.0328(5) 1.1168(5)
P1L P -0.1746(1) 0.8254(1) 0.8254(1)
C5A C 0.0311(6) 1.2773(7) 1.3977(5)
H2A H 0.1148(6) 1.3777(6) 1.3772(5)
H4A H -0.0256(6) 1.1562(7) 1.3803(6)
C5B C 0.3977(5) 1.0311(6) 1.2773(7)
H2B H 0.3772(5) 1.1148(6) 1.3777(6)
H4B H 0.3803(6) 0.9744(6) 1.1562(7)
C2L C -0.2165(4) 0.7368(4) 0.8805(4)
C2M C -0.1195(4) 0.7835(4) 0.7368(4)
C2N C -0.2632(4) 0.8805(4) 0.7835(4)
H3A H -0.0080(6) 1.2848(7) 1.4429(5)
H3B H 0.4429(5) 0.9920(6) 1.2848(7)
C3L C -0.2939(5) 0.7032(5) 0.8627(5)
C7L C -0.1705(5) 0.7025(5) 0.9429(5)
C3M C -0.1373(5) 0.7061(5) 0.7032(5)
C7M C -0.0571(5) 0.8295(5) 0.7025(5)
C3N C -0.2968(5) 0.8627(5) 0.7061(5)
C7N C -0.2975(5) 0.9429(5) 0.8295(5)
C4L C -0.3235(6) 0.6348(5) 0.9085(6)
H1L H -0.3374(5) 0.7157(5) 0.8231(5)
C6L C -0.2001(7) 0.6334(6) 0.9868(6)
H5L H -0.1168(5) 0.7146(5) 0.9672(5)
C4M C -0.0915(6) 0.6765(6) 0.6348(5)
H1M H -0.1769(5) 0.6626(5) 0.7157(5)
C6M C -0.0132(6) 0.7999(7) 0.6334(6)
H5M H -0.0328(5) 0.8832(5) 0.7146(5)
C4N C -0.3652(5) 0.9085(6) 0.6765(6)
H1N H -0.2843(5) 0.8231(5) 0.6626(5)
C6N C -0.3666(6) 0.9868(6) 0.7999(7)
H5N H -0.2854(5) 0.9672(5) 0.8832(5)
C5L C -0.2773(7) 0.6023(5) 0.9689(6)
H2L H -0.3777(6) 0.6228(5) 0.8852(6)
H4L H -0.1562(7) 0.6197(6) 1.0256(6)
C5M C -0.0311(6) 0.7227(7) 0.6023(5)
H2M H -0.1148(6) 0.6223(6) 0.6228(5)
H4M H 0.0256(6) 0.8438(7) 0.6197(6)
C5N C -0.3977(5) 0.9689(6) 0.7227(7)
H2N H -0.3772(5) 0.8852(6) 0.6223(6)
H4N H -0.3803(6) 1.0256(6) 0.8438(7)
H3L H -0.2848(7) 0.5571(5) 1.0080(6)
H3M H 0.0080(6) 0.7152(7) 0.5571(5)
H3N H -0.4429(5) 1.0080(6) 0.7152(7)
Au1 Au 1.09292(2) 0.09292(2) 0.09292(2)
P1 P 1.1746(1) 0.1746(1) 0.1746(1)
C1 C 1.0213(4) 0.0213(4) 0.0213(4)
C2 C 1.2165(4) 0.2632(4) 0.1195(4)
C3 C 1.2939(5) 0.2968(5) 0.1373(5)
C4 C 1.3235(6) 0.3652(5) 0.0915(6)
C5 C 1.2773(7) 0.3977(5) 0.0311(6)
C6 C 1.2001(7) 0.3666(6) 0.0132(6)
C7 C 1.1705(5) 0.2975(5) 0.0571(5)
H1 H 1.3374(5) 0.2843(5) 0.1769(5)
H2 H 1.3777(6) 0.3772(5) 0.1148(6)
H3 H 1.2848(7) 0.4429(5) -0.0080(6)
H4 H 1.1562(7) 0.3803(6) -0.0256(6)
H5 H 1.1168(5) 0.2854(5) 0.0328(5)
C2A C 1.1195(4) 0.2165(4) 0.2632(4)
C2B C 1.2632(4) 0.1195(4) 0.2165(4)
C1L C 0.9787(4) -0.0213(4) -0.0213(4)
C3A C 1.1373(5) 0.2939(5) 0.2968(5)
C7A C 1.0571(5) 0.1705(5) 0.2975(5)
C3B C 1.2968(5) 0.1373(5) 0.2939(5)
C7B C 1.2975(5) 0.0571(5) 0.1705(5)
Au1L Au 0.90708(2) -0.09292(2) -0.09292(2)
C4A C 1.0915(6) 0.3235(6) 0.3652(5)
H1A H 1.1769(5) 0.3374(5) 0.2843(5)
C6A C 1.0132(6) 0.2001(7) 0.3666(6)
H5A H 1.0328(5) 0.1168(5) 0.2854(5)
C4B C 1.3652(5) 0.0915(6) 0.3235(6)
H1B H 1.2843(5) 0.1769(5) 0.3374(5)
C6B C 1.3666(6) 0.0132(6) 0.2001(7)
H5B H 1.2854(5) 0.0328(5) 0.1168(5)
P1L P 0.8254(1) -0.1746(1) -0.1746(1)
C5A C 1.0311(6) 0.2773(7) 0.3977(5)
H2A H 1.1148(6) 0.3777(6) 0.3772(5)
H4A H 0.9744(6) 0.1562(7) 0.3803(6)
C5B C 1.3977(5) 0.0311(6) 0.2773(7)
H2B H 1.3772(5) 0.1148(6) 0.3777(6)
H4B H 1.3803(6) -0.0256(6) 0.1562(7)
C2L C 0.7835(4) -0.2632(4) -0.1195(4)
C2M C 0.8805(4) -0.2165(4) -0.2632(4)
C2N C 0.7368(4) -0.1195(4) -0.2165(4)
H3A H 0.9920(6) 0.2848(7) 0.4429(5)
H3B H 1.4429(5) -0.0080(6) 0.2848(7)
C3L C 0.7061(5) -0.2968(5) -0.1373(5)
C7L C 0.8295(5) -0.2975(5) -0.0571(5)
C3M C 0.8627(5) -0.2939(5) -0.2968(5)
C7M C 0.9429(5) -0.1705(5) -0.2975(5)
C3N C 0.7032(5) -0.1373(5) -0.2939(5)
C7N C 0.7025(5) -0.0571(5) -0.1705(5)
C4L C 0.6765(6) -0.3652(5) -0.0915(6)
H1L H 0.6626(5) -0.2843(5) -0.1769(5)
C6L C 0.7999(7) -0.3666(6) -0.0132(6)
H5L H 0.8832(5) -0.2854(5) -0.0328(5)
C4M C 0.9085(6) -0.3235(6) -0.3652(5)
H1M H 0.8231(5) -0.3374(5) -0.2843(5)
C6M C 0.9868(6) -0.2001(7) -0.3666(6)
H5M H 0.9672(5) -0.1168(5) -0.2854(5)
C4N C 0.6348(5) -0.0915(6) -0.3235(6)
H1N H 0.7157(5) -0.1769(5) -0.3374(5)
C6N C 0.6334(6) -0.0132(6) -0.2001(7)
H5N H 0.7146(5) -0.0328(5) -0.1168(5)
C5L C 0.7227(7) -0.3977(5) -0.0311(6)
H2L H 0.6223(6) -0.3772(5) -0.1148(6)
H4L H 0.8438(7) -0.3803(6) 0.0256(6)
C5M C 0.9689(6) -0.2773(7) -0.3977(5)
H2M H 0.8852(6) -0.3777(6) -0.3772(5)
H4M H 1.0256(6) -0.1562(7) -0.3803(6)
C5N C 0.6023(5) -0.0311(6) -0.2773(7)
H2N H 0.6228(5) -0.1148(6) -0.3777(6)
H4N H 0.6197(6) 0.0256(6) -0.1562(7)
H3L H 0.7152(7) -0.4429(5) 0.0080(6)
H3M H 1.0080(6) -0.2848(7) -0.4429(5)
H3N H 0.5571(5) 0.0080(6) -0.2848(7)
Au1 Au 1.09292(2) 0.09292(2) 1.09292(2)
P1 P 1.1746(1) 0.1746(1) 1.1746(1)
C1 C 1.0213(4) 0.0213(4) 1.0213(4)
C2 C 1.2165(4) 0.2632(4) 1.1195(4)
C3 C 1.2939(5) 0.2968(5) 1.1373(5)
C4 C 1.3235(6) 0.3652(5) 1.0915(6)
C5 C 1.2773(7) 0.3977(5) 1.0311(6)
C6 C 1.2001(7) 0.3666(6) 1.0132(6)
C7 C 1.1705(5) 0.2975(5) 1.0571(5)
H1 H 1.3374(5) 0.2843(5) 1.1769(5)
H2 H 1.3777(6) 0.3772(5) 1.1148(6)
H3 H 1.2848(7) 0.4429(5) 0.9920(6)
H4 H 1.1562(7) 0.3803(6) 0.9744(6)
H5 H 1.1168(5) 0.2854(5) 1.0328(5)
C2A C 1.1195(4) 0.2165(4) 1.2632(4)
C2B C 1.2632(4) 0.1195(4) 1.2165(4)
C1L C 0.9787(4) -0.0213(4) 0.9787(4)
C3A C 1.1373(5) 0.2939(5) 1.2968(5)
C7A C 1.0571(5) 0.1705(5) 1.2975(5)
C3B C 1.2968(5) 0.1373(5) 1.2939(5)
C7B C 1.2975(5) 0.0571(5) 1.1705(5)
Au1L Au 0.90708(2) -0.09292(2) 0.90708(2)
C4A C 1.0915(6) 0.3235(6) 1.3652(5)
H1A H 1.1769(5) 0.3374(5) 1.2843(5)
C6A C 1.0132(6) 0.2001(7) 1.3666(6)
H5A H 1.0328(5) 0.1168(5) 1.2854(5)
C4B C 1.3652(5) 0.0915(6) 1.3235(6)
H1B H 1.2843(5) 0.1769(5) 1.3374(5)
C6B C 1.3666(6) 0.0132(6) 1.2001(7)
H5B H 1.2854(5) 0.0328(5) 1.1168(5)
P1L P 0.8254(1) -0.1746(1) 0.8254(1)
C5A C 1.0311(6) 0.2773(7) 1.3977(5)
H2A H 1.1148(6) 0.3777(6) 1.3772(5)
H4A H 0.9744(6) 0.1562(7) 1.3803(6)
C5B C 1.3977(5) 0.0311(6) 1.2773(7)
H2B H 1.3772(5) 0.1148(6) 1.3777(6)
H4B H 1.3803(6) -0.0256(6) 1.1562(7)
C2L C 0.7835(4) -0.2632(4) 0.8805(4)
C2M C 0.8805(4) -0.2165(4) 0.7368(4)
C2N C 0.7368(4) -0.1195(4) 0.7835(4)
H3A H 0.9920(6) 0.2848(7) 1.4429(5)
H3B H 1.4429(5) -0.0080(6) 1.2848(7)
C3L C 0.7061(5) -0.2968(5) 0.8627(5)
C7L C 0.8295(5) -0.2975(5) 0.9429(5)
C3M C 0.8627(5) -0.2939(5) 0.7032(5)
C7M C 0.9429(5) -0.1705(5) 0.7025(5)
C3N C 0.7032(5) -0.1373(5) 0.7061(5)
C7N C 0.7025(5) -0.0571(5) 0.8295(5)
C4L C 0.6765(6) -0.3652(5) 0.9085(6)
H1L H 0.6626(5) -0.2843(5) 0.8231(5)
C6L C 0.7999(7) -0.3666(6) 0.9868(6)
H5L H 0.8832(5) -0.2854(5) 0.9672(5)
C4M C 0.9085(6) -0.3235(6) 0.6348(5)
H1M H 0.8231(5) -0.3374(5) 0.7157(5)
C6M C 0.9868(6) -0.2001(7) 0.6334(6)
H5M H 0.9672(5) -0.1168(5) 0.7146(5)
C4N C 0.6348(5) -0.0915(6) 0.6765(6)
H1N H 0.7157(5) -0.1769(5) 0.6626(5)
C6N C 0.6334(6) -0.0132(6) 0.7999(7)
H5N H 0.7146(5) -0.0328(5) 0.8832(5)
C5L C 0.7227(7) -0.3977(5) 0.9689(6)
H2L H 0.6223(6) -0.3772(5) 0.8852(6)
H4L H 0.8438(7) -0.3803(6) 1.0256(6)
C5M C 0.9689(6) -0.2773(7) 0.6023(5)
H2M H 0.8852(6) -0.3777(6) 0.6228(5)
H4M H 1.0256(6) -0.1562(7) 0.6197(6)
C5N C 0.6023(5) -0.0311(6) 0.7227(7)
H2N H 0.6228(5) -0.1148(6) 0.6223(6)
H4N H 0.6197(6) 0.0256(6) 0.8438(7)
H3L H 0.7152(7) -0.4429(5) 1.0080(6)
H3M H 1.0080(6) -0.2848(7) 0.5571(5)
H3N H 0.5571(5) 0.0080(6) 0.7152(7)
Au1 Au 1.09292(2) 1.09292(2) 0.09292(2)
P1 P 1.1746(1) 1.1746(1) 0.1746(1)
C1 C 1.0213(4) 1.0213(4) 0.0213(4)
C2 C 1.2165(4) 1.2632(4) 0.1195(4)
C3 C 1.2939(5) 1.2968(5) 0.1373(5)
C4 C 1.3235(6) 1.3652(5) 0.0915(6)
C5 C 1.2773(7) 1.3977(5) 0.0311(6)
C6 C 1.2001(7) 1.3666(6) 0.0132(6)
C7 C 1.1705(5) 1.2975(5) 0.0571(5)
H1 H 1.3374(5) 1.2843(5) 0.1769(5)
H2 H 1.3777(6) 1.3772(5) 0.1148(6)
H3 H 1.2848(7) 1.4429(5) -0.0080(6)
H4 H 1.1562(7) 1.3803(6) -0.0256(6)
H5 H 1.1168(5) 1.2854(5) 0.0328(5)
C2A C 1.1195(4) 1.2165(4) 0.2632(4)
C2B C 1.2632(4) 1.1195(4) 0.2165(4)
C1L C 0.9787(4) 0.9787(4) -0.0213(4)
C3A C 1.1373(5) 1.2939(5) 0.2968(5)
C7A C 1.0571(5) 1.1705(5) 0.2975(5)
C3B C 1.2968(5) 1.1373(5) 0.2939(5)
C7B C 1.2975(5) 1.0571(5) 0.1705(5)
Au1L Au 0.90708(2) 0.90708(2) -0.09292(2)
C4A C 1.0915(6) 1.3235(6) 0.3652(5)
H1A H 1.1769(5) 1.3374(5) 0.2843(5)
C6A C 1.0132(6) 1.2001(7) 0.3666(6)
H5A H 1.0328(5) 1.1168(5) 0.2854(5)
C4B C 1.3652(5) 1.0915(6) 0.3235(6)
H1B H 1.2843(5) 1.1769(5) 0.3374(5)
C6B C 1.3666(6) 1.0132(6) 0.2001(7)
H5B H 1.2854(5) 1.0328(5) 0.1168(5)
P1L P 0.8254(1) 0.8254(1) -0.1746(1)
C5A C 1.0311(6) 1.2773(7) 0.3977(5)
H2A H 1.1148(6) 1.3777(6) 0.3772(5)
H4A H 0.9744(6) 1.1562(7) 0.3803(6)
C5B C 1.3977(5) 1.0311(6) 0.2773(7)
H2B H 1.3772(5) 1.1148(6) 0.3777(6)
H4B H 1.3803(6) 0.9744(6) 0.1562(7)
C2L C 0.7835(4) 0.7368(4) -0.1195(4)
C2M C 0.8805(4) 0.7835(4) -0.2632(4)
C2N C 0.7368(4) 0.8805(4) -0.2165(4)
H3A H 0.9920(6) 1.2848(7) 0.4429(5)
H3B H 1.4429(5) 0.9920(6) 0.2848(7)
C3L C 0.7061(5) 0.7032(5) -0.1373(5)
C7L C 0.8295(5) 0.7025(5) -0.0571(5)
C3M C 0.8627(5) 0.7061(5) -0.2968(5)
C7M C 0.9429(5) 0.8295(5) -0.2975(5)
C3N C 0.7032(5) 0.8627(5) -0.2939(5)
C7N C 0.7025(5) 0.9429(5) -0.1705(5)
C4L C 0.6765(6) 0.6348(5) -0.0915(6)
H1L H 0.6626(5) 0.7157(5) -0.1769(5)
C6L C 0.7999(7) 0.6334(6) -0.0132(6)
H5L H 0.8832(5) 0.7146(5) -0.0328(5)
C4M C 0.9085(6) 0.6765(6) -0.3652(5)
H1M H 0.8231(5) 0.6626(5) -0.2843(5)
C6M C 0.9868(6) 0.7999(7) -0.3666(6)
H5M H 0.9672(5) 0.8832(5) -0.2854(5)
C4N C 0.6348(5) 0.9085(6) -0.3235(6)
H1N H 0.7157(5) 0.8231(5) -0.3374(5)
C6N C 0.6334(6) 0.9868(6) -0.2001(7)
H5N H 0.7146(5) 0.9672(5) -0.1168(5)
C5L C 0.7227(7) 0.6023(5) -0.0311(6)
H2L H 0.6223(6) 0.6228(5) -0.1148(6)
H4L H 0.8438(7) 0.6197(6) 0.0256(6)
C5M C 0.9689(6) 0.7227(7) -0.3977(5)
H2M H 0.8852(6) 0.6223(6) -0.3772(5)
H4M H 1.0256(6) 0.8438(7) -0.3803(6)
C5N C 0.6023(5) 0.9689(6) -0.2773(7)
H2N H 0.6228(5) 0.8852(6) -0.3777(6)
H4N H 0.6197(6) 1.0256(6) -0.1562(7)
H3L H 0.7152(7) 0.5571(5) 0.0080(6)
H3M H 1.0080(6) 0.7152(7) -0.4429(5)
H3N H 0.5571(5) 1.0080(6) -0.2848(7)
Au1 Au 1.09292(2) 1.09292(2) 1.09292(2)
P1 P 1.1746(1) 1.1746(1) 1.1746(1)
C1 C 1.0213(4) 1.0213(4) 1.0213(4)
C2 C 1.2165(4) 1.2632(4) 1.1195(4)
C3 C 1.2939(5) 1.2968(5) 1.1373(5)
C4 C 1.3235(6) 1.3652(5) 1.0915(6)
C5 C 1.2773(7) 1.3977(5) 1.0311(6)
C6 C 1.2001(7) 1.3666(6) 1.0132(6)
C7 C 1.1705(5) 1.2975(5) 1.0571(5)
H1 H 1.3374(5) 1.2843(5) 1.1769(5)
H2 H 1.3777(6) 1.3772(5) 1.1148(6)
H3 H 1.2848(7) 1.4429(5) 0.9920(6)
H4 H 1.1562(7) 1.3803(6) 0.9744(6)
H5 H 1.1168(5) 1.2854(5) 1.0328(5)
C2A C 1.1195(4) 1.2165(4) 1.2632(4)
C2B C 1.2632(4) 1.1195(4) 1.2165(4)
C1L C 0.9787(4) 0.9787(4) 0.9787(4)
C3A C 1.1373(5) 1.2939(5) 1.2968(5)
C7A C 1.0571(5) 1.1705(5) 1.2975(5)
C3B C 1.2968(5) 1.1373(5) 1.2939(5)
C7B C 1.2975(5) 1.0571(5) 1.1705(5)
Au1L Au 0.90708(2) 0.90708(2) 0.90708(2)
C4A C 1.0915(6) 1.3235(6) 1.3652(5)
H1A H 1.1769(5) 1.3374(5) 1.2843(5)
C6A C 1.0132(6) 1.2001(7) 1.3666(6)
H5A H 1.0328(5) 1.1168(5) 1.2854(5)
C4B C 1.3652(5) 1.0915(6) 1.3235(6)
H1B H 1.2843(5) 1.1769(5) 1.3374(5)
C6B C 1.3666(6) 1.0132(6) 1.2001(7)
H5B H 1.2854(5) 1.0328(5) 1.1168(5)
P1L P 0.8254(1) 0.8254(1) 0.8254(1)
C5A C 1.0311(6) 1.2773(7) 1.3977(5)
H2A H 1.1148(6) 1.3777(6) 1.3772(5)
H4A H 0.9744(6) 1.1562(7) 1.3803(6)
C5B C 1.3977(5) 1.0311(6) 1.2773(7)
H2B H 1.3772(5) 1.1148(6) 1.3777(6)
H4B H 1.3803(6) 0.9744(6) 1.1562(7)
C2L C 0.7835(4) 0.7368(4) 0.8805(4)
C2M C 0.8805(4) 0.7835(4) 0.7368(4)
C2N C 0.7368(4) 0.8805(4) 0.7835(4)
H3A H 0.9920(6) 1.2848(7) 1.4429(5)
H3B H 1.4429(5) 0.9920(6) 1.2848(7)
C3L C 0.7061(5) 0.7032(5) 0.8627(5)
C7L C 0.8295(5) 0.7025(5) 0.9429(5)
C3M C 0.8627(5) 0.7061(5) 0.7032(5)
C7M C 0.9429(5) 0.8295(5) 0.7025(5)
C3N C 0.7032(5) 0.8627(5) 0.7061(5)
C7N C 0.7025(5) 0.9429(5) 0.8295(5)
C4L C 0.6765(6) 0.6348(5) 0.9085(6)
H1L H 0.6626(5) 0.7157(5) 0.8231(5)
C6L C 0.7999(7) 0.6334(6) 0.9868(6)
H5L H 0.8832(5) 0.7146(5) 0.9672(5)
C4M C 0.9085(6) 0.6765(6) 0.6348(5)
H1M H 0.8231(5) 0.6626(5) 0.7157(5)
C6M C 0.9868(6) 0.7999(7) 0.6334(6)
H5M H 0.9672(5) 0.8832(5) 0.7146(5)
C4N C 0.6348(5) 0.9085(6) 0.6765(6)
H1N H 0.7157(5) 0.8231(5) 0.6626(5)
C6N C 0.6334(6) 0.9868(6) 0.7999(7)
H5N H 0.7146(5) 0.9672(5) 0.8832(5)
C5L C 0.7227(7) 0.6023(5) 0.9689(6)
H2L H 0.6223(6) 0.6228(5) 0.8852(6)
H4L H 0.8438(7) 0.6197(6) 1.0256(6)
C5M C 0.9689(6) 0.7227(7) 0.6023(5)
H2M H 0.8852(6) 0.6223(6) 0.6228(5)
H4M H 1.0256(6) 0.8438(7) 0.6197(6)
C5N C 0.6023(5) 0.9689(6) 0.7227(7)
H2N H 0.6228(5) 0.8852(6) 0.6223(6)
H4N H 0.6197(6) 1.0256(6) 0.8438(7)
H3L H 0.7152(7) 0.5571(5) 1.0080(6)
H3M H 1.0080(6) 0.7152(7) 0.5571(5)
H3N H 0.5571(5) 1.0080(6) 0.7152(7)
Au1 Au 0.59292(2) 0.09292(2) 0.40708(2)
P1 P 0.6746(1) 0.1746(1) 0.3254(1)
C1 C 0.5213(4) 0.0213(4) 0.4787(4)
C2 C 0.7165(4) 0.2632(4) 0.3805(4)
C3 C 0.7939(5) 0.2968(5) 0.3627(5)
C4 C 0.8235(6) 0.3652(5) 0.4085(6)
C5 C 0.7773(7) 0.3977(5) 0.4689(6)
C6 C 0.7001(7) 0.3666(6) 0.4868(6)
C7 C 0.6705(5) 0.2975(5) 0.4429(5)
H1 H 0.8374(5) 0.2843(5) 0.3231(5)
H2 H 0.8777(6) 0.3772(5) 0.3852(6)
H3 H 0.7848(7) 0.4429(5) 0.5080(6)
H4 H 0.6562(7) 0.3803(6) 0.5256(6)
H5 H 0.6168(5) 0.2854(5) 0.4672(5)
C2A C 0.6195(4) 0.2165(4) 0.2368(4)
C2B C 0.7632(4) 0.1195(4) 0.2835(4)
C1L C 0.4787(4) -0.0213(4) 0.5213(4)
C3A C 0.6373(5) 0.2939(5) 0.2032(5)
C7A C 0.5571(5) 0.1705(5) 0.2025(5)
C3B C 0.7968(5) 0.1373(5) 0.2061(5)
C7B C 0.7975(5) 0.0571(5) 0.3295(5)
Au1L Au 0.40708(2) -0.09292(2) 0.59292(2)
C4A C 0.5915(6) 0.3235(6) 0.1348(5)
H1A H 0.6769(5) 0.3374(5) 0.2157(5)
C6A C 0.5132(6) 0.2001(7) 0.1334(6)
H5A H 0.5328(5) 0.1168(5) 0.2146(5)
C4B C 0.8652(5) 0.0915(6) 0.1765(6)
H1B H 0.7843(5) 0.1769(5) 0.1626(5)
C6B C 0.8666(6) 0.0132(6) 0.2999(7)
H5B H 0.7854(5) 0.0328(5) 0.3832(5)
P1L P 0.3254(1) -0.1746(1) 0.6746(1)
C5A C 0.5311(6) 0.2773(7) 0.1023(5)
H2A H 0.6148(6) 0.3777(6) 0.1228(5)
H4A H 0.4744(6) 0.1562(7) 0.1197(6)
C5B C 0.8977(5) 0.0311(6) 0.2227(7)
H2B H 0.8772(5) 0.1148(6) 0.1223(6)
H4B H 0.8803(6) -0.0256(6) 0.3438(7)
C2L C 0.2835(4) -0.2632(4) 0.6195(4)
C2M C 0.3805(4) -0.2165(4) 0.7632(4)
C2N C 0.2368(4) -0.1195(4) 0.7165(4)
H3A H 0.4920(6) 0.2848(7) 0.0571(5)
H3B H 0.9429(5) -0.0080(6) 0.2152(7)
C3L C 0.2061(5) -0.2968(5) 0.6373(5)
C7L C 0.3295(5) -0.2975(5) 0.5571(5)
C3M C 0.3627(5) -0.2939(5) 0.7968(5)
C7M C 0.4429(5) -0.1705(5) 0.7975(5)
C3N C 0.2032(5) -0.1373(5) 0.7939(5)
C7N C 0.2025(5) -0.0571(5) 0.6705(5)
C4L C 0.1765(6) -0.3652(5) 0.5915(6)
H1L H 0.1626(5) -0.2843(5) 0.6769(5)
C6L C 0.2999(7) -0.3666(6) 0.5132(6)
H5L H 0.3832(5) -0.2854(5) 0.5328(5)
C4M C 0.4085(6) -0.3235(6) 0.8652(5)
H1M H 0.3231(5) -0.3374(5) 0.7843(5)
C6M C 0.4868(6) -0.2001(7) 0.8666(6)
H5M H 0.4672(5) -0.1168(5) 0.7854(5)
C4N C 0.1348(5) -0.0915(6) 0.8235(6)
H1N H 0.2157(5) -0.1769(5) 0.8374(5)
C6N C 0.1334(6) -0.0132(6) 0.7001(7)
H5N H 0.2146(5) -0.0328(5) 0.6168(5)
C5L C 0.2227(7) -0.3977(5) 0.5311(6)
H2L H 0.1223(6) -0.3772(5) 0.6148(6)
H4L H 0.3438(7) -0.3803(6) 0.4744(6)
C5M C 0.4689(6) -0.2773(7) 0.8977(5)
H2M H 0.3852(6) -0.3777(6) 0.8772(5)
H4M H 0.5256(6) -0.1562(7) 0.8803(6)
C5N C 0.1023(5) -0.0311(6) 0.7773(7)
H2N H 0.1228(5) -0.1148(6) 0.8777(6)
H4N H 0.1197(6) 0.0256(6) 0.6562(7)
H3L H 0.2152(7) -0.4429(5) 0.4920(6)
H3M H 0.5080(6) -0.2848(7) 0.9429(5)
H3N H 0.0571(5) 0.0080(6) 0.7848(7)
Au1 Au 0.59292(2) 1.09292(2) 0.40708(2)
P1 P 0.6746(1) 1.1746(1) 0.3254(1)
C1 C 0.5213(4) 1.0213(4) 0.4787(4)
C2 C 0.7165(4) 1.2632(4) 0.3805(4)
C3 C 0.7939(5) 1.2968(5) 0.3627(5)
C4 C 0.8235(6) 1.3652(5) 0.4085(6)
C5 C 0.7773(7) 1.3977(5) 0.4689(6)
C6 C 0.7001(7) 1.3666(6) 0.4868(6)
C7 C 0.6705(5) 1.2975(5) 0.4429(5)
H1 H 0.8374(5) 1.2843(5) 0.3231(5)
H2 H 0.8777(6) 1.3772(5) 0.3852(6)
H3 H 0.7848(7) 1.4429(5) 0.5080(6)
H4 H 0.6562(7) 1.3803(6) 0.5256(6)
H5 H 0.6168(5) 1.2854(5) 0.4672(5)
C2A C 0.6195(4) 1.2165(4) 0.2368(4)
C2B C 0.7632(4) 1.1195(4) 0.2835(4)
C1L C 0.4787(4) 0.9787(4) 0.5213(4)
C3A C 0.6373(5) 1.2939(5) 0.2032(5)
C7A C 0.5571(5) 1.1705(5) 0.2025(5)
C3B C 0.7968(5) 1.1373(5) 0.2061(5)
C7B C 0.7975(5) 1.0571(5) 0.3295(5)
Au1L Au 0.40708(2) 0.90708(2) 0.59292(2)
C4A C 0.5915(6) 1.3235(6) 0.1348(5)
H1A H 0.6769(5) 1.3374(5) 0.2157(5)
C6A C 0.5132(6) 1.2001(7) 0.1334(6)
H5A H 0.5328(5) 1.1168(5) 0.2146(5)
C4B C 0.8652(5) 1.0915(6) 0.1765(6)
H1B H 0.7843(5) 1.1769(5) 0.1626(5)
C6B C 0.8666(6) 1.0132(6) 0.2999(7)
H5B H 0.7854(5) 1.0328(5) 0.3832(5)
P1L P 0.3254(1) 0.8254(1) 0.6746(1)
C5A C 0.5311(6) 1.2773(7) 0.1023(5)
H2A H 0.6148(6) 1.3777(6) 0.1228(5)
H4A H 0.4744(6) 1.1562(7) 0.1197(6)
C5B C 0.8977(5) 1.0311(6) 0.2227(7)
H2B H 0.8772(5) 1.1148(6) 0.1223(6)
H4B H 0.8803(6) 0.9744(6) 0.3438(7)
C2L C 0.2835(4) 0.7368(4) 0.6195(4)
C2M C 0.3805(4) 0.7835(4) 0.7632(4)
C2N C 0.2368(4) 0.8805(4) 0.7165(4)
H3A H 0.4920(6) 1.2848(7) 0.0571(5)
H3B H 0.9429(5) 0.9920(6) 0.2152(7)
C3L C 0.2061(5) 0.7032(5) 0.6373(5)
C7L C 0.3295(5) 0.7025(5) 0.5571(5)
C3M C 0.3627(5) 0.7061(5) 0.7968(5)
C7M C 0.4429(5) 0.8295(5) 0.7975(5)
C3N C 0.2032(5) 0.8627(5) 0.7939(5)
C7N C 0.2025(5) 0.9429(5) 0.6705(5)
C4L C 0.1765(6) 0.6348(5) 0.5915(6)
H1L H 0.1626(5) 0.7157(5) 0.6769(5)
C6L C 0.2999(7) 0.6334(6) 0.5132(6)
H5L H 0.3832(5) 0.7146(5) 0.5328(5)
C4M C 0.4085(6) 0.6765(6) 0.8652(5)
H1M H 0.3231(5) 0.6626(5) 0.7843(5)
C6M C 0.4868(6) 0.7999(7) 0.8666(6)
H5M H 0.4672(5) 0.8832(5) 0.7854(5)
C4N C 0.1348(5) 0.9085(6) 0.8235(6)
H1N H 0.2157(5) 0.8231(5) 0.8374(5)
C6N C 0.1334(6) 0.9868(6) 0.7001(7)
H5N H 0.2146(5) 0.9672(5) 0.6168(5)
C5L C 0.2227(7) 0.6023(5) 0.5311(6)
H2L H 0.1223(6) 0.6228(5) 0.6148(6)
H4L H 0.3438(7) 0.6197(6) 0.4744(6)
C5M C 0.4689(6) 0.7227(7) 0.8977(5)
H2M H 0.3852(6) 0.6223(6) 0.8772(5)
H4M H 0.5256(6) 0.8438(7) 0.8803(6)
C5N C 0.1023(5) 0.9689(6) 0.7773(7)
H2N H 0.1228(5) 0.8852(6) 0.8777(6)
H4N H 0.1197(6) 1.0256(6) 0.6562(7)
H3L H 0.2152(7) 0.5571(5) 0.4920(6)
H3M H 0.5080(6) 0.7152(7) 0.9429(5)
H3N H 0.0571(5) 1.0080(6) 0.7848(7)
Au1 Au 0.40708(2) 0.59292(2) 0.09292(2)
P1 P 0.3254(1) 0.6746(1) 0.1746(1)
C1 C 0.4787(4) 0.5213(4) 0.0213(4)
C2 C 0.2835(4) 0.7632(4) 0.1195(4)
C3 C 0.2061(5) 0.7968(5) 0.1373(5)
C4 C 0.1765(6) 0.8652(5) 0.0915(6)
C5 C 0.2227(7) 0.8977(5) 0.0311(6)
C6 C 0.2999(7) 0.8666(6) 0.0132(6)
C7 C 0.3295(5) 0.7975(5) 0.0571(5)
H1 H 0.1626(5) 0.7843(5) 0.1769(5)
H2 H 0.1223(6) 0.8772(5) 0.1148(6)
H3 H 0.2152(7) 0.9429(5) -0.0080(6)
H4 H 0.3438(7) 0.8803(6) -0.0256(6)
H5 H 0.3832(5) 0.7854(5) 0.0328(5)
C2A C 0.3805(4) 0.7165(4) 0.2632(4)
C2B C 0.2368(4) 0.6195(4) 0.2165(4)
C1L C 0.5213(4) 0.4787(4) -0.0213(4)
C3A C 0.3627(5) 0.7939(5) 0.2968(5)
C7A C 0.4429(5) 0.6705(5) 0.2975(5)
C3B C 0.2032(5) 0.6373(5) 0.2939(5)
C7B C 0.2025(5) 0.5571(5) 0.1705(5)
Au1L Au 0.59292(2) 0.40708(2) -0.09292(2)
C4A C 0.4085(6) 0.8235(6) 0.3652(5)
H1A H 0.3231(5) 0.8374(5) 0.2843(5)
C6A C 0.4868(6) 0.7001(7) 0.3666(6)
H5A H 0.4672(5) 0.6168(5) 0.2854(5)
C4B C 0.1348(5) 0.5915(6) 0.3235(6)
H1B H 0.2157(5) 0.6769(5) 0.3374(5)
C6B C 0.1334(6) 0.5132(6) 0.2001(7)
H5B H 0.2146(5) 0.5328(5) 0.1168(5)
P1L P 0.6746(1) 0.3254(1) -0.1746(1)
C5A C 0.4689(6) 0.7773(7) 0.3977(5)
H2A H 0.3852(6) 0.8777(6) 0.3772(5)
H4A H 0.5256(6) 0.6562(7) 0.3803(6)
C5B C 0.1023(5) 0.5311(6) 0.2773(7)
H2B H 0.1228(5) 0.6148(6) 0.3777(6)
H4B H 0.1197(6) 0.4744(6) 0.1562(7)
C2L C 0.7165(4) 0.2368(4) -0.1195(4)
C2M C 0.6195(4) 0.2835(4) -0.2632(4)
C2N C 0.7632(4) 0.3805(4) -0.2165(4)
H3A H 0.5080(6) 0.7848(7) 0.4429(5)
H3B H 0.0571(5) 0.4920(6) 0.2848(7)
C3L C 0.7939(5) 0.2032(5) -0.1373(5)
C7L C 0.6705(5) 0.2025(5) -0.0571(5)
C3M C 0.6373(5) 0.2061(5) -0.2968(5)
C7M C 0.5571(5) 0.3295(5) -0.2975(5)
C3N C 0.7968(5) 0.3627(5) -0.2939(5)
C7N C 0.7975(5) 0.4429(5) -0.1705(5)
C4L C 0.8235(6) 0.1348(5) -0.0915(6)
H1L H 0.8374(5) 0.2157(5) -0.1769(5)
C6L C 0.7001(7) 0.1334(6) -0.0132(6)
H5L H 0.6168(5) 0.2146(5) -0.0328(5)
C4M C 0.5915(6) 0.1765(6) -0.3652(5)
H1M H 0.6769(5) 0.1626(5) -0.2843(5)
C6M C 0.5132(6) 0.2999(7) -0.3666(6)
H5M H 0.5328(5) 0.3832(5) -0.2854(5)
C4N C 0.8652(5) 0.4085(6) -0.3235(6)
H1N H 0.7843(5) 0.3231(5) -0.3374(5)
C6N C 0.8666(6) 0.4868(6) -0.2001(7)
H5N H 0.7854(5) 0.4672(5) -0.1168(5)
C5L C 0.7773(7) 0.1023(5) -0.0311(6)
H2L H 0.8777(6) 0.1228(5) -0.1148(6)
H4L H 0.6562(7) 0.1197(6) 0.0256(6)
C5M C 0.5311(6) 0.2227(7) -0.3977(5)
H2M H 0.6148(6) 0.1223(6) -0.3772(5)
H4M H 0.4744(6) 0.3438(7) -0.3803(6)
C5N C 0.8977(5) 0.4689(6) -0.2773(7)
H2N H 0.8772(5) 0.3852(6) -0.3777(6)
H4N H 0.8803(6) 0.5256(6) -0.1562(7)
H3L H 0.7848(7) 0.0571(5) 0.0080(6)
H3M H 0.4920(6) 0.2152(7) -0.4429(5)
H3N H 0.9429(5) 0.5080(6) -0.2848(7)
Au1 Au 0.40708(2) 0.59292(2) 1.09292(2)
P1 P 0.3254(1) 0.6746(1) 1.1746(1)
C1 C 0.4787(4) 0.5213(4) 1.0213(4)
C2 C 0.2835(4) 0.7632(4) 1.1195(4)
C3 C 0.2061(5) 0.7968(5) 1.1373(5)
C4 C 0.1765(6) 0.8652(5) 1.0915(6)
C5 C 0.2227(7) 0.8977(5) 1.0311(6)
C6 C 0.2999(7) 0.8666(6) 1.0132(6)
C7 C 0.3295(5) 0.7975(5) 1.0571(5)
H1 H 0.1626(5) 0.7843(5) 1.1769(5)
H2 H 0.1223(6) 0.8772(5) 1.1148(6)
H3 H 0.2152(7) 0.9429(5) 0.9920(6)
H4 H 0.3438(7) 0.8803(6) 0.9744(6)
H5 H 0.3832(5) 0.7854(5) 1.0328(5)
C2A C 0.3805(4) 0.7165(4) 1.2632(4)
C2B C 0.2368(4) 0.6195(4) 1.2165(4)
C1L C 0.5213(4) 0.4787(4) 0.9787(4)
C3A C 0.3627(5) 0.7939(5) 1.2968(5)
C7A C 0.4429(5) 0.6705(5) 1.2975(5)
C3B C 0.2032(5) 0.6373(5) 1.2939(5)
C7B C 0.2025(5) 0.5571(5) 1.1705(5)
Au1L Au 0.59292(2) 0.40708(2) 0.90708(2)
C4A C 0.4085(6) 0.8235(6) 1.3652(5)
H1A H 0.3231(5) 0.8374(5) 1.2843(5)
C6A C 0.4868(6) 0.7001(7) 1.3666(6)
H5A H 0.4672(5) 0.6168(5) 1.2854(5)
C4B C 0.1348(5) 0.5915(6) 1.3235(6)
H1B H 0.2157(5) 0.6769(5) 1.3374(5)
C6B C 0.1334(6) 0.5132(6) 1.2001(7)
H5B H 0.2146(5) 0.5328(5) 1.1168(5)
P1L P 0.6746(1) 0.3254(1) 0.8254(1)
C5A C 0.4689(6) 0.7773(7) 1.3977(5)
H2A H 0.3852(6) 0.8777(6) 1.3772(5)
H4A H 0.5256(6) 0.6562(7) 1.3803(6)
C5B C 0.1023(5) 0.5311(6) 1.2773(7)
H2B H 0.1228(5) 0.6148(6) 1.3777(6)
H4B H 0.1197(6) 0.4744(6) 1.1562(7)
C2L C 0.7165(4) 0.2368(4) 0.8805(4)
C2M C 0.6195(4) 0.2835(4) 0.7368(4)
C2N C 0.7632(4) 0.3805(4) 0.7835(4)
H3A H 0.5080(6) 0.7848(7) 1.4429(5)
H3B H 0.0571(5) 0.4920(6) 1.2848(7)
C3L C 0.7939(5) 0.2032(5) 0.8627(5)
C7L C 0.6705(5) 0.2025(5) 0.9429(5)
C3M C 0.6373(5) 0.2061(5) 0.7032(5)
C7M C 0.5571(5) 0.3295(5) 0.7025(5)
C3N C 0.7968(5) 0.3627(5) 0.7061(5)
C7N C 0.7975(5) 0.4429(5) 0.8295(5)
C4L C 0.8235(6) 0.1348(5) 0.9085(6)
H1L H 0.8374(5) 0.2157(5) 0.8231(5)
C6L C 0.7001(7) 0.1334(6) 0.9868(6)
H5L H 0.6168(5) 0.2146(5) 0.9672(5)
C4M C 0.5915(6) 0.1765(6) 0.6348(5)
H1M H 0.6769(5) 0.1626(5) 0.7157(5)
C6M C 0.5132(6) 0.2999(7) 0.6334(6)
H5M H 0.5328(5) 0.3832(5) 0.7146(5)
C4N C 0.8652(5) 0.4085(6) 0.6765(6)
H1N H 0.7843(5) 0.3231(5) 0.6626(5)
C6N C 0.8666(6) 0.4868(6) 0.7999(7)
H5N H 0.7854(5) 0.4672(5) 0.8832(5)
C5L C 0.7773(7) 0.1023(5) 0.9689(6)
H2L H 0.8777(6) 0.1228(5) 0.8852(6)
H4L H 0.6562(7) 0.1197(6) 1.0256(6)
C5M C 0.5311(6) 0.2227(7) 0.6023(5)
H2M H 0.6148(6) 0.1223(6) 0.6228(5)
H4M H 0.4744(6) 0.3438(7) 0.6197(6)
C5N C 0.8977(5) 0.4689(6) 0.7227(7)
H2N H 0.8772(5) 0.3852(6) 0.6223(6)
H4N H 0.8803(6) 0.5256(6) 0.8438(7)
H3L H 0.7848(7) 0.0571(5) 1.0080(6)
H3M H 0.4920(6) 0.2152(7) 0.5571(5)
H3N H 0.9429(5) 0.5080(6) 0.7152(7)
Au1 Au -0.09292(2) 0.59292(2) 0.40708(2)
P1 P -0.1746(1) 0.6746(1) 0.3254(1)
C1 C -0.0213(4) 0.5213(4) 0.4787(4)
C2 C -0.2165(4) 0.7632(4) 0.3805(4)
C3 C -0.2939(5) 0.7968(5) 0.3627(5)
C4 C -0.3235(6) 0.8652(5) 0.4085(6)
C5 C -0.2773(7) 0.8977(5) 0.4689(6)
C6 C -0.2001(7) 0.8666(6) 0.4868(6)
C7 C -0.1705(5) 0.7975(5) 0.4429(5)
H1 H -0.3374(5) 0.7843(5) 0.3231(5)
H2 H -0.3777(6) 0.8772(5) 0.3852(6)
H3 H -0.2848(7) 0.9429(5) 0.5080(6)
H4 H -0.1562(7) 0.8803(6) 0.5256(6)
H5 H -0.1168(5) 0.7854(5) 0.4672(5)
C2A C -0.1195(4) 0.7165(4) 0.2368(4)
C2B C -0.2632(4) 0.6195(4) 0.2835(4)
C1L C 0.0213(4) 0.4787(4) 0.5213(4)
C3A C -0.1373(5) 0.7939(5) 0.2032(5)
C7A C -0.0571(5) 0.6705(5) 0.2025(5)
C3B C -0.2968(5) 0.6373(5) 0.2061(5)
C7B C -0.2975(5) 0.5571(5) 0.3295(5)
Au1L Au 0.09292(2) 0.40708(2) 0.59292(2)
C4A C -0.0915(6) 0.8235(6) 0.1348(5)
H1A H -0.1769(5) 0.8374(5) 0.2157(5)
C6A C -0.0132(6) 0.7001(7) 0.1334(6)
H5A H -0.0328(5) 0.6168(5) 0.2146(5)
C4B C -0.3652(5) 0.5915(6) 0.1765(6)
H1B H -0.2843(5) 0.6769(5) 0.1626(5)
C6B C -0.3666(6) 0.5132(6) 0.2999(7)
H5B H -0.2854(5) 0.5328(5) 0.3832(5)
P1L P 0.1746(1) 0.3254(1) 0.6746(1)
C5A C -0.0311(6) 0.7773(7) 0.1023(5)
H2A H -0.1148(6) 0.8777(6) 0.1228(5)
H4A H 0.0256(6) 0.6562(7) 0.1197(6)
C5B C -0.3977(5) 0.5311(6) 0.2227(7)
H2B H -0.3772(5) 0.6148(6) 0.1223(6)
H4B H -0.3803(6) 0.4744(6) 0.3438(7)
C2L C 0.2165(4) 0.2368(4) 0.6195(4)
C2M C 0.1195(4) 0.2835(4) 0.7632(4)
C2N C 0.2632(4) 0.3805(4) 0.7165(4)
H3A H 0.0080(6) 0.7848(7) 0.0571(5)
H3B H -0.4429(5) 0.4920(6) 0.2152(7)
C3L C 0.2939(5) 0.2032(5) 0.6373(5)
C7L C 0.1705(5) 0.2025(5) 0.5571(5)
C3M C 0.1373(5) 0.2061(5) 0.7968(5)
C7M C 0.0571(5) 0.3295(5) 0.7975(5)
C3N C 0.2968(5) 0.3627(5) 0.7939(5)
C7N C 0.2975(5) 0.4429(5) 0.6705(5)
C4L C 0.3235(6) 0.1348(5) 0.5915(6)
H1L H 0.3374(5) 0.2157(5) 0.6769(5)
C6L C 0.2001(7) 0.1334(6) 0.5132(6)
H5L H 0.1168(5) 0.2146(5) 0.5328(5)
C4M C 0.0915(6) 0.1765(6) 0.8652(5)
H1M H 0.1769(5) 0.1626(5) 0.7843(5)
C6M C 0.0132(6) 0.2999(7) 0.8666(6)
H5M H 0.0328(5) 0.3832(5) 0.7854(5)
C4N C 0.3652(5) 0.4085(6) 0.8235(6)
H1N H 0.2843(5) 0.3231(5) 0.8374(5)
C6N C 0.3666(6) 0.4868(6) 0.7001(7)
H5N H 0.2854(5) 0.4672(5) 0.6168(5)
C5L C 0.2773(7) 0.1023(5) 0.5311(6)
H2L H 0.3777(6) 0.1228(5) 0.6148(6)
H4L H 0.1562(7) 0.1197(6) 0.4744(6)
C5M C 0.0311(6) 0.2227(7) 0.8977(5)
H2M H 0.1148(6) 0.1223(6) 0.8772(5)
H4M H -0.0256(6) 0.3438(7) 0.8803(6)
C5N C 0.3977(5) 0.4689(6) 0.7773(7)
H2N H 0.3772(5) 0.3852(6) 0.8777(6)
H4N H 0.3803(6) 0.5256(6) 0.6562(7)
H3L H 0.2848(7) 0.0571(5) 0.4920(6)
H3M H -0.0080(6) 0.2152(7) 0.9429(5)
H3N H 0.4429(5) 0.5080(6) 0.7848(7)
Au1 Au 0.90708(2) 0.59292(2) 0.40708(2)
P1 P 0.8254(1) 0.6746(1) 0.3254(1)
C1 C 0.9787(4) 0.5213(4) 0.4787(4)
C2 C 0.7835(4) 0.7632(4) 0.3805(4)
C3 C 0.7061(5) 0.7968(5) 0.3627(5)
C4 C 0.6765(6) 0.8652(5) 0.4085(6)
C5 C 0.7227(7) 0.8977(5) 0.4689(6)
C6 C 0.7999(7) 0.8666(6) 0.4868(6)
C7 C 0.8295(5) 0.7975(5) 0.4429(5)
H1 H 0.6626(5) 0.7843(5) 0.3231(5)
H2 H 0.6223(6) 0.8772(5) 0.3852(6)
H3 H 0.7152(7) 0.9429(5) 0.5080(6)
H4 H 0.8438(7) 0.8803(6) 0.5256(6)
H5 H 0.8832(5) 0.7854(5) 0.4672(5)
C2A C 0.8805(4) 0.7165(4) 0.2368(4)
C2B C 0.7368(4) 0.6195(4) 0.2835(4)
C1L C 1.0213(4) 0.4787(4) 0.5213(4)
C3A C 0.8627(5) 0.7939(5) 0.2032(5)
C7A C 0.9429(5) 0.6705(5) 0.2025(5)
C3B C 0.7032(5) 0.6373(5) 0.2061(5)
C7B C 0.7025(5) 0.5571(5) 0.3295(5)
Au1L Au 1.09292(2) 0.40708(2) 0.59292(2)
C4A C 0.9085(6) 0.8235(6) 0.1348(5)
H1A H 0.8231(5) 0.8374(5) 0.2157(5)
C6A C 0.9868(6) 0.7001(7) 0.1334(6)
H5A H 0.9672(5) 0.6168(5) 0.2146(5)
C4B C 0.6348(5) 0.5915(6) 0.1765(6)
H1B H 0.7157(5) 0.6769(5) 0.1626(5)
C6B C 0.6334(6) 0.5132(6) 0.2999(7)
H5B H 0.7146(5) 0.5328(5) 0.3832(5)
P1L P 1.1746(1) 0.3254(1) 0.6746(1)
C5A C 0.9689(6) 0.7773(7) 0.1023(5)
H2A H 0.8852(6) 0.8777(6) 0.1228(5)
H4A H 1.0256(6) 0.6562(7) 0.1197(6)
C5B C 0.6023(5) 0.5311(6) 0.2227(7)
H2B H 0.6228(5) 0.6148(6) 0.1223(6)
H4B H 0.6197(6) 0.4744(6) 0.3438(7)
C2L C 1.2165(4) 0.2368(4) 0.6195(4)
C2M C 1.1195(4) 0.2835(4) 0.7632(4)
C2N C 1.2632(4) 0.3805(4) 0.7165(4)
H3A H 1.0080(6) 0.7848(7) 0.0571(5)
H3B H 0.5571(5) 0.4920(6) 0.2152(7)
C3L C 1.2939(5) 0.2032(5) 0.6373(5)
C7L C 1.1705(5) 0.2025(5) 0.5571(5)
C3M C 1.1373(5) 0.2061(5) 0.7968(5)
C7M C 1.0571(5) 0.3295(5) 0.7975(5)
C3N C 1.2968(5) 0.3627(5) 0.7939(5)
C7N C 1.2975(5) 0.4429(5) 0.6705(5)
C4L C 1.3235(6) 0.1348(5) 0.5915(6)
H1L H 1.3374(5) 0.2157(5) 0.6769(5)
C6L C 1.2001(7) 0.1334(6) 0.5132(6)
H5L H 1.1168(5) 0.2146(5) 0.5328(5)
C4M C 1.0915(6) 0.1765(6) 0.8652(5)
H1M H 1.1769(5) 0.1626(5) 0.7843(5)
C6M C 1.0132(6) 0.2999(7) 0.8666(6)
H5M H 1.0328(5) 0.3832(5) 0.7854(5)
C4N C 1.3652(5) 0.4085(6) 0.8235(6)
H1N H 1.2843(5) 0.3231(5) 0.8374(5)
C6N C 1.3666(6) 0.4868(6) 0.7001(7)
H5N H 1.2854(5) 0.4672(5) 0.6168(5)
C5L C 1.2773(7) 0.1023(5) 0.5311(6)
H2L H 1.3777(6) 0.1228(5) 0.6148(6)
H4L H 1.1562(7) 0.1197(6) 0.4744(6)
C5M C 1.0311(6) 0.2227(7) 0.8977(5)
H2M H 1.1148(6) 0.1223(6) 0.8772(5)
H4M H 0.9744(6) 0.3438(7) 0.8803(6)
C5N C 1.3977(5) 0.4689(6) 0.7773(7)
H2N H 1.3772(5) 0.3852(6) 0.8777(6)
H4N H 1.3803(6) 0.5256(6) 0.6562(7)
H3L H 1.2848(7) 0.0571(5) 0.4920(6)
H3M H 0.9920(6) 0.2152(7) 0.9429(5)
H3N H 1.4429(5) 0.5080(6) 0.7848(7)
C8 C 0.3181(13) 0.4389(10) 0.3604(17)
C9 C 0.3840(17) 0.4275(12) 0.3083(11)
C9A C 0.3083(11) 0.3840(17) 0.4275(12)
C8B C 0.4389(10) 0.3604(17) 0.3181(13)
C8A C 0.3604(17) 0.3181(13) 0.4389(10)
C9B C 0.4275(12) 0.3083(11) 0.3840(17)
C8 C 0.8181(13) 0.4389(10) 0.1396(17)
C9 C 0.8840(17) 0.4275(12) 0.1917(11)
C9A C 0.8083(11) 0.3840(17) 0.0725(12)
C8B C 0.9389(10) 0.3604(17) 0.1819(13)
C8A C 0.8604(17) 0.3181(13) 0.0611(10)
C9B C 0.9275(12) 0.3083(11) 0.1160(17)
C8 C 0.1819(13) 0.9389(10) 0.3604(17)
C9 C 0.1160(17) 0.9275(12) 0.3083(11)
C9A C 0.1917(11) 0.8840(17) 0.4275(12)
C8B C 0.0611(10) 0.8604(17) 0.3181(13)
C8A C 0.1396(17) 0.8181(13) 0.4389(10)
C9B C 0.0725(12) 0.8083(11) 0.3840(17)
C8 C 0.6819(13) 0.9389(10) 0.1396(17)
C9 C 0.6160(17) 0.9275(12) 0.1917(11)
C9A C 0.6917(11) 0.8840(17) 0.0725(12)
C8B C 0.5611(10) 0.8604(17) 0.1819(13)
C8A C 0.6396(17) 0.8181(13) 0.0611(10)
C9B C 0.5725(12) 0.8083(11) 0.1160(17)
C8 C 0.6819(13) 0.5611(10) 0.6396(17)
C9 C 0.6160(17) 0.5725(12) 0.6917(11)
C9A C 0.6917(11) 0.6160(17) 0.5725(12)
C8B C 0.5611(10) 0.6396(17) 0.6819(13)
C8A C 0.6396(17) 0.6819(13) 0.5611(10)
C9B C 0.5725(12) 0.6917(11) 0.6160(17)
C8 C 0.1819(13) 0.5611(10) 0.8604(17)
C9 C 0.1160(17) 0.5725(12) 0.8083(11)
C9A C 0.1917(11) 0.6160(17) 0.9275(12)
C8B C 0.0611(10) 0.6396(17) 0.8181(13)
C8A C 0.1396(17) 0.6819(13) 0.9389(10)
C9B C 0.0725(12) 0.6917(11) 0.8840(17)
C8 C 0.8181(13) 0.0611(10) 0.6396(17)
C9 C 0.8840(17) 0.0725(12) 0.6917(11)
C9A C 0.8083(11) 0.1160(17) 0.5725(12)
C8B C 0.9389(10) 0.1396(17) 0.6819(13)
C8A C 0.8604(17) 0.1819(13) 0.5611(10)
C9B C 0.9275(12) 0.1917(11) 0.6160(17)
C8 C 0.3181(13) 0.0611(10) 0.8604(17)
C9 C 0.3840(17) 0.0725(12) 0.8083(11)
C9A C 0.3083(11) 0.1160(17) 0.9275(12)
C8B C 0.4389(10) 0.1396(17) 0.8181(13)
C8A C 0.3604(17) 0.1819(13) 0.9389(10)
C9B C 0.4275(12) 0.1917(11) 0.8840(17)

#END
