./KABBEU_from_POSCAR.cif_generated_by_CrystalShift
_symmetry_cell_setting triclinic
_symmetry_space_group_name_H-M 'P 1'
loop_
_symmetry_equiv_pos_site_id
_symmetry_equiv_pos_as_xyz
1 x,y,z
_cell_length_a 16.126000
_cell_length_b 16.126000
_cell_length_c 16.126000
_cell_angle_alpha 90.000000
_cell_angle_beta 90.000000
_cell_angle_gamma 90.000000
_cell_volume 4193.532048
loop_
_atom_site_label
_atom_site_type_symbol
_atom_site_fract_x
_atom_site_fract_y
_atom_site_fract_z
H1 H 0.622800 0.885200 -0.377700
H2 H 1.377700 0.122800 0.614800
H3 H 1.285400 0.467200 0.616800
H4 H 1.284300 0.323100 0.837400
H5 H 1.032800 0.383200 0.785400
H6 H 1.176900 0.162600 0.784300
H7 H 1.116800 0.214600 0.532800
H8 H 1.337400 0.215700 0.676900
H9 H 0.557100 0.492000 0.215200
H10 H 0.337400 0.284300 0.176900
H11 H 0.377700 0.377200 0.114800
H12 H 0.284800 0.442900 -0.008000
H13 H 0.156200 0.380300 -0.025600
H14 H 0.116800 0.285400 0.032800
H15 H 1.008000 0.784800 0.057100
H16 H 0.619700 0.474400 0.343800
H17 H 0.622800 0.614800 0.122300
H18 H 1.025600 0.656200 0.119700
H19 H 0.885200 0.877700 0.122800
H20 H 1.114800 0.122300 0.877200
H21 H 0.714600 0.532800 0.383200
H22 H 0.715700 0.676900 0.162600
H23 H 0.967200 0.616800 0.214600
H24 H 0.176900 0.337400 0.284300
H25 H 0.823100 0.837400 0.215700
H26 H 0.032800 0.116800 0.285400
H27 H 0.974400 0.343800 0.880300
H28 H 0.284300 0.176900 0.337400
H29 H 0.883200 0.785400 0.467200
H30 H 0.285400 0.032800 0.116800
H31 H 0.843800 0.880300 0.525600
H32 H 0.715200 0.942900 0.508000
H33 H 0.114800 0.377700 0.377200
H34 H -0.025600 0.156200 0.380300
H35 H 0.622300 0.877200 0.385200
H36 H 0.377200 0.114800 0.377700
H37 H 0.380300 -0.025600 0.156200
H38 H 0.662600 0.784300 0.323100
H39 H 1.377200 0.385200 0.877700
H40 H 0.442900 0.508000 0.784800
H41 H -0.008000 0.284800 0.442900
H42 H 0.442900 -0.008000 0.284800
H43 H -0.008000 0.215200 0.942900
H44 H 0.284800 0.057100 0.492000
H45 H 0.380300 0.525600 0.656200
H46 H 0.377200 0.385200 0.877700
H47 H -0.025600 0.343800 0.880300
H48 H 0.114800 0.122300 0.877200
H49 H 0.156200 0.119700 0.474400
H50 H -0.337400 -0.284300 -0.176900
H51 H 0.377700 0.122800 0.614800
H52 H -0.116800 -0.285400 -0.032800
H53 H 0.285400 0.467200 0.616800
H54 H -0.176900 -0.337400 -0.284300
H55 H 0.284300 0.323100 0.837400
H56 H -0.032800 -0.116800 -0.285400
H57 H 0.032800 0.383200 0.785400
H58 H -0.284300 -0.176900 -0.337400
H59 H 0.176900 0.162600 0.784300
H60 H -0.285400 -0.032800 -0.116800
H61 H 0.116800 0.214600 0.532800
H62 H -0.377700 -0.377200 -0.114800
H63 H -0.156200 -0.380300 0.025600
H64 H 0.337400 0.215700 0.676900
H65 H -0.114800 -0.377700 -0.377200
H66 H 0.025600 -0.156200 -0.380300
H67 H -0.442900 0.492000 0.215200
H68 H -0.377200 -0.114800 -0.377700
H69 H -0.380300 0.025600 -0.156200
H70 H -0.284800 -0.442900 0.008000
H71 H 0.008000 -0.284800 -0.442900
H72 H -0.442900 0.008000 -0.284800
H73 H 0.008000 0.784800 0.057100
H74 H -0.380300 0.474400 0.343800
H75 H -0.377200 0.614800 0.122300
H76 H 0.025600 0.656200 0.119700
H77 H -0.114800 0.877700 0.122800
H78 H 1.380300 0.525600 0.656200
H79 H -0.285400 0.532800 0.383200
H80 H -0.284300 0.676900 0.162600
H81 H -0.032800 0.616800 0.214600
H82 H 0.337400 0.284300 1.176900
H83 H 0.377700 0.377200 1.114800
H84 H 0.284800 0.442900 0.992000
H85 H 0.156200 0.380300 0.974400
H86 H 0.116800 0.285400 1.032800
H87 H -0.176900 0.837400 0.215700
H88 H 1.284800 0.057100 0.492000
H89 H -0.116800 0.785400 0.467200
H90 H -0.156200 0.880300 0.525600
H91 H -0.284800 0.942900 0.508000
H92 H -0.377700 0.877200 0.385200
H93 H -0.337400 0.784300 0.323100
H94 H 0.992000 0.215200 0.942900
H95 H 1.442900 0.508000 0.784800
H96 H 0.176900 0.337400 1.284300
H97 H 0.942900 0.508000 0.715200
H98 H 0.032800 0.116800 1.285400
H99 H 0.492000 0.215200 0.557100
H100 H 0.284300 0.176900 1.337400
H101 H 0.784800 0.057100 1.008000
H102 H 0.285400 0.032800 1.116800
H103 H 0.880300 0.525600 0.843800
H104 H 0.877200 0.385200 0.622300
H105 H 0.114800 0.377700 1.377200
H106 H -0.025600 0.156200 1.380300
H107 H 0.474400 0.343800 0.619700
H108 H 0.377200 0.114800 1.377700
H109 H 0.380300 -0.025600 1.156200
H110 H 0.614800 0.122300 0.622800
H111 H 0.656200 0.119700 1.025600
H112 H 0.877700 0.122800 0.885200
H113 H -0.008000 0.284800 1.442900
H114 H 0.442900 -0.008000 1.284800
H115 H 0.785400 0.467200 0.883200
H116 H 0.784300 0.323100 0.662600
H117 H 0.532800 0.383200 0.714600
H118 H 0.676900 0.162600 0.715700
H119 H 0.616800 0.214600 0.967200
H120 H 0.837400 0.215700 0.823100
H121 H 0.057100 0.492000 1.284800
H122 H -0.337400 -0.284300 0.823100
H123 H 0.508000 0.784800 1.442900
H124 H -0.116800 -0.285400 0.967200
H125 H 0.119700 0.474400 1.156200
H126 H -0.176900 -0.337400 0.715700
H127 H 0.122800 0.614800 1.377700
H128 H -0.032800 -0.116800 0.714600
H129 H 0.525600 0.656200 1.380300
H130 H -0.284300 -0.176900 0.662600
H131 H 0.385200 0.877700 1.377200
H132 H -0.285400 -0.032800 0.883200
H133 H 0.214600 0.532800 1.116800
H134 H -0.377700 -0.377200 0.885200
H135 H -0.156200 -0.380300 1.025600
H136 H 0.215700 0.676900 1.337400
H137 H -0.114800 -0.377700 0.622800
H138 H 0.025600 -0.156200 0.619700
H139 H 0.467200 0.616800 1.285400
H140 H -0.377200 -0.114800 0.622300
H141 H -0.380300 0.025600 0.843800
H142 H -0.284800 -0.442900 1.008000
H143 H 0.008000 -0.284800 0.557100
H144 H -0.442900 0.008000 0.715200
H145 H 0.323100 0.837400 1.284300
H146 H 0.383200 0.785400 1.032800
H147 H 0.343800 0.880300 0.974400
H148 H 0.215200 0.942900 0.992000
H149 H 0.122300 0.877200 1.114800
H150 H 0.162600 0.784300 1.176900
H151 H 0.942900 0.508000 -0.284800
H152 H 0.492000 0.215200 -0.442900
H153 H 0.784800 0.057100 0.008000
H154 H 0.337400 1.284300 0.176900
H155 H 0.377700 1.377200 0.114800
H156 H 0.284800 1.442900 -0.008000
H157 H 0.156200 1.380300 -0.025600
H158 H 0.116800 1.285400 0.032800
H159 H 0.880300 0.525600 -0.156200
H160 H 0.877200 0.385200 -0.377700
H161 H 0.474400 0.343800 -0.380300
H162 H 0.614800 0.122300 -0.377200
H163 H 0.656200 0.119700 0.025600
H164 H 0.877700 0.122800 -0.114800
H165 H 0.785400 0.467200 -0.116800
H166 H 0.784300 0.323100 -0.337400
H167 H 0.532800 0.383200 -0.285400
H168 H 0.176900 1.337400 0.284300
H169 H 0.676900 0.162600 -0.284300
H170 H 0.032800 1.116800 0.285400
H171 H 0.616800 0.214600 -0.032800
H172 H 0.284300 1.176900 0.337400
H173 H 0.837400 0.215700 -0.176900
H174 H 0.285400 1.032800 0.116800
H175 H 0.057100 0.492000 0.284800
H176 H 0.508000 0.784800 0.442900
H177 H 0.114800 1.377700 0.377200
H178 H -0.025600 1.156200 0.380300
H179 H 0.119700 0.474400 0.156200
H180 H 0.377200 1.114800 0.377700
H181 H 0.380300 0.974400 0.156200
H182 H 0.122800 0.614800 0.377700
H183 H 0.525600 0.656200 0.380300
H184 H 0.385200 0.877700 0.377200
H185 H -0.008000 1.284800 0.442900
H186 H 0.442900 0.992000 0.284800
H187 H 0.214600 0.532800 0.116800
H188 H 0.215700 0.676900 0.337400
H189 H 0.467200 0.616800 0.285400
H190 H 0.323100 0.837400 0.284300
H191 H 0.383200 0.785400 0.032800
H192 H 0.343800 0.880300 -0.025600
H193 H 0.215200 0.942900 -0.008000
H194 H -0.337400 0.715700 -0.176900
H195 H 0.122300 0.877200 0.114800
H196 H -0.116800 0.714600 -0.032800
H197 H 0.162600 0.784300 0.176900
H198 H -0.176900 0.662600 -0.284300
H199 H 0.057100 1.008000 0.784800
H200 H -0.032800 0.883200 -0.285400
H201 H 0.508000 0.715200 0.942900
H202 H -0.284300 0.823100 -0.337400
H203 H 0.215200 0.557100 0.492000
H204 H -0.285400 0.967200 -0.116800
H205 H 0.119700 1.025600 0.656200
H206 H -0.377700 0.622800 -0.114800
H207 H -0.156200 0.619700 0.025600
H208 H 0.122800 0.885200 0.877700
H209 H -0.114800 0.622300 -0.377200
H210 H 0.025600 0.843800 -0.380300
H211 H 0.525600 0.843800 0.880300
H212 H -0.377200 0.885200 -0.377700
H213 H -0.380300 1.025600 -0.156200
H214 H -0.284800 0.557100 0.008000
H215 H 0.008000 0.715200 -0.442900
H216 H -0.442900 1.008000 -0.284800
H217 H 0.385200 0.622300 0.877200
H218 H 0.343800 0.619700 0.474400
H219 H 0.122300 0.622800 0.614800
H220 H 0.214600 0.967200 0.616800
H221 H 0.215700 0.823100 0.837400
H222 H 0.467200 0.883200 0.785400
H223 H 0.323100 0.662600 0.784300
H224 H 0.383200 0.714600 0.532800
H225 H 0.162600 0.715700 0.676900
H226 H 0.337400 1.284300 1.176900
H227 H 0.377700 1.377200 1.114800
H228 H 0.284800 1.442900 0.992000
H229 H 0.156200 1.380300 0.974400
H230 H 0.116800 1.285400 1.032800
H231 H 0.942900 0.992000 0.215200
H232 H 0.492000 1.284800 0.057100
H233 H 0.880300 0.974400 0.343800
H234 H 0.877200 1.114800 0.122300
H235 H 0.474400 1.156200 0.119700
H236 H 0.614800 1.377700 0.122800
H237 H 0.785400 1.032800 0.383200
H238 H 0.784300 1.176900 0.162600
H239 H 0.532800 1.116800 0.214600
H240 H 0.176900 1.337400 1.284300
H241 H 0.676900 1.337400 0.215700
H242 H 0.032800 1.116800 1.285400
H243 H 0.616800 1.285400 0.467200
H244 H 0.284300 1.176900 1.337400
H245 H 0.656200 1.380300 0.525600
H246 H 0.285400 1.032800 1.116800
H247 H 0.784800 1.442900 0.508000
H248 H 0.877700 1.377200 0.385200
H249 H 0.114800 1.377700 1.377200
H250 H -0.025600 1.156200 1.380300
H251 H 0.837400 1.284300 0.323100
H252 H 0.377200 1.114800 1.377700
H253 H 0.380300 0.974400 1.156200
H254 H 0.057100 0.008000 0.784800
H255 H 0.508000 -0.284800 0.942900
H256 H 0.215200 -0.442900 0.492000
H257 H -0.008000 1.284800 1.442900
H258 H 0.442900 0.992000 1.284800
H259 H 0.119700 0.025600 0.656200
H260 H 0.122800 -0.114800 0.877700
H261 H 0.525600 -0.156200 0.880300
H262 H 0.385200 -0.377700 0.877200
H263 H 0.343800 -0.380300 0.474400
H264 H 0.122300 -0.377200 0.614800
H265 H 0.214600 -0.032800 0.616800
H266 H -0.337400 0.715700 0.823100
H267 H 0.215700 -0.176900 0.837400
H268 H -0.116800 0.714600 0.967200
H269 H 0.467200 -0.116800 0.785400
H270 H -0.176900 0.662600 0.715700
H271 H 0.323100 -0.337400 0.784300
H272 H -0.032800 0.883200 0.714600
H273 H 0.383200 -0.285400 0.532800
H274 H -0.284300 0.823100 0.662600
H275 H 0.162600 -0.284300 0.676900
H276 H -0.285400 0.967200 0.883200
H277 H 0.942900 -0.008000 0.215200
H278 H -0.377700 0.622800 0.885200
H279 H -0.156200 0.619700 1.025600
H280 H 0.492000 0.284800 0.057100
H281 H -0.114800 0.622300 0.622800
H282 H 0.025600 0.843800 0.619700
H283 H 0.880300 -0.025600 0.343800
H284 H -0.377200 0.885200 0.622300
H285 H -0.380300 1.025600 0.843800
H286 H -0.284800 0.557100 1.008000
H287 H 0.008000 0.715200 0.557100
H288 H -0.442900 1.008000 0.715200
H289 H 0.877200 0.114800 0.122300
H290 H 0.474400 0.156200 0.119700
H291 H 0.614800 0.377700 0.122800
H292 H 0.785400 0.032800 0.383200
H293 H 0.784300 0.176900 0.162600
H294 H 0.532800 0.116800 0.214600
H295 H 0.676900 0.337400 0.215700
H296 H 0.616800 0.285400 0.467200
H297 H 0.656200 0.380300 0.525600
H298 H 1.337400 0.284300 0.176900
H299 H 1.377700 0.377200 0.114800
H300 H 1.284800 0.442900 -0.008000
H301 H 1.156200 0.380300 -0.025600
H302 H 1.116800 0.285400 0.032800
H303 H 0.784800 0.442900 0.508000
H304 H 0.877700 0.377200 0.385200
H305 H 0.837400 0.284300 0.323100
H306 H 0.557100 1.008000 0.715200
H307 H 1.008000 0.715200 0.557100
H308 H 0.715200 0.557100 1.008000
H309 H 0.619700 1.025600 0.843800
H310 H 0.622800 0.885200 0.622300
H311 H 1.025600 0.843800 0.619700
H312 H 1.176900 0.337400 0.284300
H313 H 0.885200 0.622300 0.622800
H314 H 1.032800 0.116800 0.285400
H315 H 0.843800 0.619700 1.025600
H316 H 1.284300 0.176900 0.337400
H317 H 0.622300 0.622800 0.885200
H318 H 1.285400 0.032800 0.116800
H319 H 0.714600 0.967200 0.883200
H320 H 0.715700 0.823100 0.662600
H321 H 1.114800 0.377700 0.377200
H322 H 0.974400 0.156200 0.380300
H323 H 0.967200 0.883200 0.714600
H324 H 1.377200 0.114800 0.377700
H325 H 1.380300 -0.025600 0.156200
H326 H 0.823100 0.662600 0.715700
H327 H 0.883200 0.714600 0.967200
H328 H 0.662600 0.715700 0.823100
H329 H 0.992000 0.284800 0.442900
H330 H 1.442900 -0.008000 0.284800
H331 H 1.442900 0.992000 1.284800
H332 H 0.992000 1.284800 1.442900
H333 H 1.380300 0.974400 1.156200
H334 H 1.377200 1.114800 1.377700
H335 H 0.974400 1.156200 1.380300
H336 H 1.114800 1.377700 1.377200
H337 H 1.285400 1.032800 1.116800
H338 H 0.662600 -0.284300 -0.176900
H339 H 1.284300 1.176900 1.337400
H340 H 0.883200 -0.285400 -0.032800
H341 H 1.032800 1.116800 1.285400
H342 H 0.823100 -0.337400 -0.284300
H343 H 1.176900 1.337400 1.284300
H344 H 0.967200 -0.116800 -0.285400
H345 H 1.116800 1.285400 1.032800
H346 H 0.715700 -0.176900 -0.337400
H347 H 1.156200 1.380300 0.974400
H348 H 0.714600 -0.032800 -0.116800
H349 H 1.284800 1.442900 0.992000
H350 H 0.622300 -0.377200 -0.114800
H351 H 0.843800 -0.380300 0.025600
H352 H 1.377700 1.377200 1.114800
H353 H 0.885200 -0.377700 -0.377200
H354 H 1.025600 -0.156200 -0.380300
H355 H 1.337400 1.284300 1.176900
H356 H 0.622800 -0.114800 -0.377700
H357 H 0.619700 0.025600 -0.156200
H358 H 0.715200 -0.442900 0.008000
H359 H 1.008000 -0.284800 -0.442900
H360 H 0.557100 0.008000 -0.284800
H361 H 0.557100 1.008000 -0.284800
H362 H 1.008000 0.715200 -0.442900
H363 H 0.715200 0.557100 0.008000
H364 H 0.619700 1.025600 -0.156200
H365 H 1.156200 0.119700 0.474400
H366 H 1.025600 0.843800 -0.380300
H367 H 0.885200 0.622300 -0.377200
H368 H 0.843800 0.619700 0.025600
H369 H 0.622300 0.622800 -0.114800
H370 H 1.337400 0.284300 1.176900
H371 H 1.377700 0.377200 1.114800
H372 H 1.284800 0.442900 0.992000
H373 H 1.156200 0.380300 0.974400
H374 H 1.116800 0.285400 1.032800
H375 H 0.714600 0.967200 -0.116800
H376 H 0.715700 0.823100 -0.337400
H377 H 0.967200 0.883200 -0.285400
H378 H 0.823100 0.662600 -0.284300
H379 H 0.883200 0.714600 -0.032800
H380 H 0.662600 0.715700 -0.176900
H381 H 1.442900 0.992000 0.284800
H382 H 0.992000 1.284800 0.442900
H383 H 1.380300 0.974400 0.156200
H384 H 1.176900 0.337400 1.284300
H385 H 1.377200 1.114800 0.377700
H386 H 1.032800 0.116800 1.285400
H387 H 0.974400 1.156200 0.380300
H388 H 1.284300 0.176900 1.337400
H389 H 1.114800 1.377700 0.377200
H390 H 1.285400 0.032800 1.116800
H391 H 1.285400 1.032800 0.116800
H392 H 1.284300 1.176900 0.337400
H393 H 1.114800 0.377700 1.377200
H394 H 0.974400 0.156200 1.380300
H395 H 1.032800 1.116800 0.285400
H396 H 1.377200 0.114800 1.377700
H397 H 1.380300 -0.025600 1.156200
H398 H 1.176900 1.337400 0.284300
H399 H 1.116800 1.285400 0.032800
H400 H 1.156200 1.380300 -0.025600
H401 H 0.992000 0.284800 1.442900
H402 H 1.442900 -0.008000 1.284800
H403 H 1.284800 1.442900 -0.008000
H404 H 1.377700 1.377200 0.114800
H405 H 1.337400 1.284300 0.176900
H406 H 0.557100 0.008000 0.715200
H407 H 1.008000 -0.284800 0.557100
H408 H 0.715200 -0.442900 1.008000
H409 H 0.619700 0.025600 0.843800
H410 H 0.662600 -0.284300 0.823100
H411 H 0.622800 -0.114800 0.622300
H412 H 0.883200 -0.285400 0.967200
H413 H 1.025600 -0.156200 0.619700
H414 H 0.823100 -0.337400 0.715700
H415 H 0.885200 -0.377700 0.622800
H416 H 0.967200 -0.116800 0.714600
H417 H 0.843800 -0.380300 1.025600
H418 H 0.715700 -0.176900 0.662600
H419 H 0.622300 -0.377200 0.885200
H420 H 0.714600 -0.032800 0.883200
C421 C 0.722700 -0.397700 0.968900
C422 C 0.633400 -0.013200 0.799900
C423 C 0.634800 -0.091500 0.676500
C424 C 0.968900 -0.277300 0.602300
C425 C 0.986800 -0.200100 0.633400
C426 C 0.908500 -0.323500 0.634800
C427 C 0.602300 -0.031100 0.722700
C428 C 0.799900 -0.366600 0.986800
C429 C 0.676500 -0.365200 0.908500
C430 C 0.702500 -0.057100 0.829500
C431 C 0.703200 -0.137300 0.706100
C432 C 0.942900 -0.170500 0.702500
C433 C 0.572500 0.808300 0.116000
C434 C 0.639600 0.818100 0.061100
C435 C 1.021300 1.021300 0.021300
C436 C 1.216500 1.263200 0.119500
C437 C 1.293900 1.296800 0.137300
C438 C 1.323500 1.365200 0.091500
C439 C 1.277300 1.397700 0.031100
C440 C 1.200100 1.366600 0.013200
C441 C 1.170500 1.297500 0.057100
C442 C 0.862700 -0.293900 0.703200
C443 C 0.829500 -0.297500 0.942900
C444 C 0.706100 -0.296800 0.862700
C445 C 0.736800 -0.119500 0.783500
C446 C 0.880500 -0.216500 0.736800
C447 C 1.119500 1.216500 0.263200
C448 C 1.263200 1.119500 0.216500
C449 C 0.978700 0.978700 -0.021300
C450 C 1.137300 1.293900 0.296800
C451 C 1.057100 1.170500 0.297500
C452 C 1.296800 1.137300 0.293900
C453 C 1.297500 1.057100 0.170500
C454 C 0.561100 0.860400 0.181900
C455 C 1.091500 1.323500 0.365200
C456 C 0.783500 -0.263200 0.880500
C457 C 1.013200 1.200100 0.366600
C458 C 1.397700 0.031100 1.277300
C459 C 1.365200 1.091500 0.323500
C460 C 1.031100 0.277300 1.397700
C461 C 1.366600 1.013200 0.200100
C462 C 0.681900 0.561100 0.639600
C463 C 0.691700 0.884000 0.072500
C464 C 1.031100 1.277300 0.397700
C465 C 1.366600 0.013200 1.200100
C466 C 1.365200 0.091500 1.323500
C467 C 1.397700 1.031100 0.277300
C468 C 1.013200 0.200100 1.366600
C469 C 1.091500 0.323500 1.365200
C470 C 0.783500 0.736800 -0.119500
C471 C 0.880500 0.783500 -0.263200
C472 C 0.736800 0.880500 -0.216500
C473 C 0.616000 0.572500 0.691700
C474 C 1.297500 0.057100 1.170500
C475 C 0.706100 0.703200 -0.137300
C476 C 0.829500 0.702500 -0.057100
C477 C 0.862700 0.706100 -0.296800
C478 C 0.942900 0.829500 -0.297500
C479 C 0.703200 0.862700 -0.293900
C480 C 0.702500 0.942900 -0.170500
C481 C 0.676500 0.634800 -0.091500
C482 C 1.296800 0.137300 1.293900
C483 C 0.799900 0.633400 -0.013200
C484 C 1.057100 0.170500 1.297500
C485 C 0.908500 0.676500 -0.365200
C486 C 1.137300 0.293900 1.296800
C487 C 0.986800 0.799900 -0.366600
C488 C 0.978700 -0.021300 0.978700
C489 C 0.634800 0.908500 -0.323500
C490 C 1.263200 0.119500 1.216500
C491 C 0.633400 0.986800 -0.200100
C492 C 1.119500 0.216500 1.263200
C493 C 0.722700 0.602300 -0.031100
C494 C 1.170500 0.297500 1.057100
C495 C 1.200100 0.366600 1.013200
C496 C 0.968900 0.722700 -0.397700
C497 C 1.277300 0.397700 1.031100
C498 C 1.323500 0.365200 1.091500
C499 C 0.602300 0.968900 -0.277300
C500 C 1.293900 0.296800 1.137300
C501 C 1.216500 0.263200 1.119500
C502 C 1.021300 0.021300 1.021300
C503 C 0.691700 0.616000 0.572500
C504 C 0.561100 0.639600 0.681900
C505 C 0.616000 0.927500 0.191700
C506 C 0.681900 0.938900 0.139600
C507 C 1.021300 1.021300 1.021300
C508 C 1.216500 1.263200 1.119500
C509 C 1.293900 1.296800 1.137300
C510 C 1.323500 1.365200 1.091500
C511 C 1.277300 1.397700 1.031100
C512 C 1.200100 1.366600 1.013200
C513 C 1.170500 1.297500 1.057100
C514 C 0.602300 -0.031100 -0.277300
C515 C 0.968900 -0.277300 -0.397700
C516 C 0.722700 -0.397700 -0.031100
C517 C 0.633400 -0.013200 -0.200100
C518 C 0.634800 -0.091500 -0.323500
C519 C 1.119500 1.216500 1.263200
C520 C 1.263200 1.119500 1.216500
C521 C 0.978700 0.978700 0.978700
C522 C 1.137300 1.293900 1.296800
C523 C 1.057100 1.170500 1.297500
C524 C 1.296800 1.137300 1.293900
C525 C 1.297500 1.057100 1.170500
C526 C 0.072500 0.808300 0.384000
C527 C 1.091500 1.323500 1.365200
C528 C 0.986800 -0.200100 -0.366600
C529 C 0.427500 0.191700 0.884000
C530 C 0.908500 -0.323500 -0.365200
C531 C 1.365200 1.091500 1.323500
C532 C 0.799900 -0.366600 -0.013200
C533 C 1.366600 1.013200 1.200100
C534 C 0.676500 -0.365200 -0.091500
C535 C 0.139600 0.818100 0.438900
C536 C 1.031100 1.277300 1.397700
C537 C 0.702500 -0.057100 -0.170500
C538 C 0.703200 -0.137300 -0.293900
C539 C 1.397700 1.031100 1.277300
C540 C 0.942900 -0.170500 -0.297500
C541 C 0.862700 -0.293900 -0.296800
C542 C 0.783500 0.736800 0.880500
C543 C 0.880500 0.783500 0.736800
C544 C 0.736800 0.880500 0.783500
C545 C 0.829500 -0.297500 -0.057100
C546 C 0.706100 -0.296800 -0.137300
C547 C 0.706100 0.703200 0.862700
C548 C 0.829500 0.702500 0.942900
C549 C 0.862700 0.706100 0.703200
C550 C 0.942900 0.829500 0.702500
C551 C 0.703200 0.862700 0.706100
C552 C 0.702500 0.942900 0.829500
C553 C 0.676500 0.634800 0.908500
C554 C 0.736800 -0.119500 -0.216500
C555 C 0.799900 0.633400 0.986800
C556 C 0.880500 -0.216500 -0.263200
C557 C 0.908500 0.676500 0.634800
C558 C 0.783500 -0.263200 -0.119500
C559 C 0.986800 0.799900 0.633400
C560 C 1.397700 0.031100 0.277300
C561 C 0.634800 0.908500 0.676500
C562 C 1.031100 0.277300 0.397700
C563 C 0.633400 0.986800 0.799900
C564 C 0.639600 0.681900 0.561100
C565 C 0.722700 0.602300 0.968900
C566 C 1.366600 0.013200 0.200100
C567 C 1.365200 0.091500 0.323500
C568 C 0.968900 0.722700 0.602300
C569 C 1.013200 0.200100 0.366600
C570 C 1.091500 0.323500 0.365200
C571 C 0.602300 0.968900 0.722700
C572 C 0.572500 0.691700 0.616000
C573 C 1.297500 0.057100 0.170500
C574 C 1.296800 0.137300 0.293900
C575 C 1.057100 0.170500 0.297500
C576 C 1.137300 0.293900 0.296800
C577 C 0.061100 0.860400 0.318100
C578 C 0.191700 0.884000 0.427500
C579 C 0.521300 0.021300 0.478700
C580 C 0.716500 0.263200 0.380500
C581 C 0.793900 0.296800 0.362700
C582 C 0.823500 0.365200 0.408500
C583 C 0.777300 0.397700 0.468900
C584 C 0.700100 0.366600 0.486800
C585 C 0.670500 0.297500 0.442900
C586 C 0.978700 -0.021300 -0.021300
C587 C 1.263200 0.119500 0.216500
C588 C 1.119500 0.216500 0.263200
C589 C 1.170500 0.297500 0.057100
C590 C 1.200100 0.366600 0.013200
C591 C 0.619500 0.216500 0.236800
C592 C 0.763200 0.119500 0.283500
C593 C 0.478700 -0.021300 0.521300
C594 C 0.637300 0.293900 0.203200
C595 C 0.557100 0.170500 0.202500
C596 C 0.796800 0.137300 0.206100
C597 C 0.797500 0.057100 0.329500
C598 C 0.116000 0.927500 0.308300
C599 C 0.591500 0.323500 0.134800
C600 C 1.277300 0.397700 0.031100
C601 C 0.513200 0.200100 0.133400
C602 C 1.323500 0.365200 0.091500
C603 C 0.865200 0.091500 0.176500
C604 C 1.293900 0.296800 0.137300
C605 C 0.866600 0.013200 0.299900
C606 C 1.216500 0.263200 0.119500
C607 C 0.181900 0.938900 0.360400
C608 C 0.531100 0.277300 0.102300
C609 C 1.021300 0.021300 0.021300
C610 C 0.181900 0.561100 0.860400
C611 C 0.897700 0.031100 0.222700
C612 C 0.116000 0.572500 0.808300
C613 C -0.397700 0.968900 0.722700
C614 C 0.283500 -0.263200 0.619500
C615 C 0.380500 -0.216500 0.763200
C616 C 0.236800 -0.119500 0.716500
C617 C -0.031100 0.722700 0.602300
C618 C -0.277300 0.602300 0.968900
C619 C 0.206100 -0.296800 0.637300
C620 C 0.329500 -0.297500 0.557100
C621 C 0.362700 -0.293900 0.796800
C622 C 0.442900 -0.170500 0.797500
C623 C 0.203200 -0.137300 0.793900
C624 C 0.202500 -0.057100 0.670500
C625 C 0.176500 -0.365200 0.591500
C626 C -0.366600 0.986800 0.799900
C627 C 0.299900 -0.366600 0.513200
C628 C -0.365200 0.908500 0.676500
C629 C 0.408500 -0.323500 0.865200
C630 C -0.013200 0.799900 0.633400
C631 C 0.486800 -0.200100 0.866600
C632 C -0.091500 0.676500 0.634800
C633 C 0.134800 -0.091500 0.823500
C634 C -0.200100 0.633400 0.986800
C635 C 0.133400 -0.013200 0.700100
C636 C -0.323500 0.634800 0.908500
C637 C 0.222700 -0.397700 0.531100
C638 C -0.297500 0.942900 0.829500
C639 C -0.296800 0.862700 0.706100
C640 C 0.468900 -0.277300 0.897700
C641 C -0.057100 0.829500 0.702500
C642 C -0.137300 0.706100 0.703200
C643 C 0.102300 -0.031100 0.777300
C644 C -0.170500 0.702500 0.942900
C645 C -0.293900 0.703200 0.862700
C646 C -0.263200 0.880500 0.783500
C647 C -0.119500 0.783500 0.736800
C648 C -0.216500 0.736800 0.880500
C649 C 0.927500 0.308300 0.116000
C650 C 0.860400 0.318100 0.061100
C651 C 0.521300 1.021300 0.478700
C652 C 0.716500 1.263200 0.380500
C653 C 0.793900 1.296800 0.362700
C654 C 0.823500 1.365200 0.408500
C655 C 0.777300 1.397700 0.468900
C656 C 0.700100 1.366600 0.486800
C657 C 0.670500 1.297500 0.442900
C658 C 0.397700 1.031100 1.277300
C659 C 0.031100 1.277300 1.397700
C660 C 0.191700 0.616000 0.927500
C661 C 0.366600 1.013200 1.200100
C662 C 0.365200 1.091500 1.323500
C663 C 0.619500 1.216500 0.236800
C664 C 0.763200 1.119500 0.283500
C665 C 0.478700 0.978700 0.521300
C666 C 0.637300 1.293900 0.203200
C667 C 0.557100 1.170500 0.202500
C668 C 0.796800 1.137300 0.206100
C669 C 0.797500 1.057100 0.329500
C670 C 0.938900 0.360400 0.181900
C671 C 0.591500 1.323500 0.134800
C672 C 0.013200 1.200100 1.366600
C673 C 0.513200 1.200100 0.133400
C674 C 0.091500 1.323500 1.365200
C675 C 0.865200 1.091500 0.176500
C676 C 0.061100 0.639600 0.818100
C677 C 0.866600 1.013200 0.299900
C678 C 0.297500 1.057100 1.170500
C679 C 0.808300 0.384000 0.072500
C680 C 0.531100 1.277300 0.102300
C681 C 0.296800 1.137300 1.293900
C682 C 0.057100 1.170500 1.297500
C683 C 0.897700 1.031100 0.222700
C684 C 0.137300 1.293900 1.296800
C685 C -0.021300 0.978700 0.978700
C686 C 0.283500 0.736800 0.619500
C687 C 0.380500 0.783500 0.763200
C688 C 0.236800 0.880500 0.716500
C689 C 0.263200 1.119500 1.216500
C690 C 0.119500 1.216500 1.263200
C691 C 0.206100 0.703200 0.637300
C692 C 0.329500 0.702500 0.557100
C693 C 0.362700 0.706100 0.796800
C694 C 0.442900 0.829500 0.797500
C695 C 0.203200 0.862700 0.793900
C696 C 0.202500 0.942900 0.670500
C697 C 0.176500 0.634800 0.591500
C698 C 0.170500 1.297500 1.057100
C699 C 0.299900 0.633400 0.513200
C700 C 0.200100 1.366600 1.013200
C701 C 0.408500 0.676500 0.865200
C702 C 0.277300 1.397700 1.031100
C703 C 0.486800 0.799900 0.866600
C704 C 0.323500 1.365200 1.091500
C705 C 0.134800 0.908500 0.823500
C706 C 0.293900 1.296800 1.137300
C707 C 0.133400 0.986800 0.700100
C708 C 0.216500 1.263200 1.119500
C709 C 0.222700 0.602300 0.531100
C710 C 0.021300 1.021300 1.021300
C711 C 0.139600 0.681900 0.938900
C712 C 0.468900 0.722700 0.897700
C713 C 0.072500 0.691700 0.884000
C714 C -0.397700 0.968900 -0.277300
C715 C 0.102300 0.968900 0.777300
C716 C -0.031100 0.722700 -0.397700
C717 C -0.277300 0.602300 -0.031100
C718 C -0.366600 0.986800 -0.200100
C719 C -0.365200 0.908500 -0.323500
C720 C -0.013200 0.799900 -0.366600
C721 C 0.884000 0.427500 0.191700
C722 C 0.818100 0.438900 0.139600
C723 C 0.478700 0.521300 0.021300
C724 C 0.283500 0.763200 0.119500
C725 C 0.206100 0.796800 0.137300
C726 C 0.176500 0.865200 0.091500
C727 C 0.222700 0.897700 0.031100
C728 C 0.299900 0.866600 0.013200
C729 C 0.329500 0.797500 0.057100
C730 C -0.091500 0.676500 -0.365200
C731 C -0.200100 0.633400 -0.013200
C732 C -0.323500 0.634800 -0.091500
C733 C -0.297500 0.942900 -0.170500
C734 C -0.296800 0.862700 -0.293900
C735 C 0.380500 0.716500 0.263200
C736 C 0.236800 0.619500 0.216500
C737 C 0.521300 0.478700 -0.021300
C738 C 0.362700 0.793900 0.296800
C739 C 0.442900 0.670500 0.297500
C740 C 0.203200 0.637300 0.293900
C741 C 0.202500 0.557100 0.170500
C742 C 0.427500 0.308300 0.384000
C743 C 0.408500 0.823500 0.365200
C744 C -0.057100 0.829500 -0.297500
C745 C 0.486800 0.700100 0.366600
C746 C -0.137300 0.706100 -0.296800
C747 C 0.134800 0.591500 0.323500
C748 C -0.170500 0.702500 -0.057100
C749 C 0.133400 0.513200 0.200100
C750 C -0.293900 0.703200 -0.137300
C751 C 0.360400 0.318100 0.438900
C752 C 0.468900 0.777300 0.397700
C753 C -0.263200 0.880500 -0.216500
C754 C -0.119500 0.783500 -0.263200
C755 C 0.102300 0.531100 0.277300
C756 C -0.216500 0.736800 -0.119500
C757 C 0.397700 1.031100 0.277300
C758 C 0.716500 0.236800 -0.119500
C759 C 0.619500 0.283500 -0.263200
C760 C 0.763200 0.380500 -0.216500
C761 C 0.031100 1.277300 0.397700
C762 C 0.818100 0.061100 0.639600
C763 C 0.793900 0.203200 -0.137300
C764 C 0.670500 0.202500 -0.057100
C765 C 0.637300 0.206100 -0.296800
C766 C 0.557100 0.329500 -0.297500
C767 C 0.796800 0.362700 -0.293900
C768 C 0.797500 0.442900 -0.170500
C769 C 0.823500 0.134800 -0.091500
C770 C 0.366600 1.013200 0.200100
C771 C 0.700100 0.133400 -0.013200
C772 C 0.365200 1.091500 0.323500
C773 C 0.591500 0.176500 -0.365200
C774 C 0.013200 1.200100 0.366600
C775 C 0.513200 0.299900 -0.366600
C776 C 0.091500 1.323500 0.365200
C777 C 0.865200 0.408500 -0.323500
C778 C 0.884000 0.072500 0.691700
C779 C 0.866600 0.486800 -0.200100
C780 C 0.297500 1.057100 0.170500
C781 C 0.777300 0.102300 -0.031100
C782 C 0.296800 1.137300 0.293900
C783 C 0.057100 1.170500 0.297500
C784 C 0.531100 0.222700 -0.397700
C785 C 0.137300 1.293900 0.296800
C786 C -0.021300 0.978700 -0.021300
C787 C 0.897700 0.468900 -0.277300
C788 C 0.263200 1.119500 0.216500
C789 C 0.119500 1.216500 0.263200
C790 C 0.170500 1.297500 0.057100
C791 C 0.200100 1.366600 0.013200
C792 C 0.277300 1.397700 0.031100
C793 C 0.438900 0.360400 0.318100
C794 C 0.308300 0.384000 0.427500
C795 C 0.478700 0.521300 1.021300
C796 C 0.283500 0.763200 1.119500
C797 C 0.206100 0.796800 1.137300
C798 C 0.176500 0.865200 1.091500
C799 C 0.222700 0.897700 1.031100
C800 C 0.299900 0.866600 1.013200
C801 C 0.329500 0.797500 1.057100
C802 C 0.323500 1.365200 0.091500
C803 C 0.293900 1.296800 0.137300
C804 C 0.216500 1.263200 0.119500
C805 C 0.021300 1.021300 0.021300
C806 C 0.808300 0.116000 0.572500
C807 C 0.380500 0.716500 1.263200
C808 C 0.236800 0.619500 1.216500
C809 C 0.521300 0.478700 0.978700
C810 C 0.362700 0.793900 1.296800
C811 C 0.442900 0.670500 1.297500
C812 C 0.203200 0.637300 1.293900
C813 C 0.202500 0.557100 1.170500
C814 C 0.384000 0.427500 0.308300
C815 C 0.408500 0.823500 1.365200
C816 C 0.938900 0.139600 0.681900
C817 C 0.486800 0.700100 1.366600
C818 C -0.397700 -0.031100 0.722700
C819 C 0.134800 0.591500 1.323500
C820 C -0.031100 -0.277300 0.602300
C821 C 0.133400 0.513200 1.200100
C822 C -0.277300 -0.397700 0.968900
C823 C 0.318100 0.438900 0.360400
C824 C 0.468900 0.777300 1.397700
C825 C -0.366600 -0.013200 0.799900
C826 C -0.365200 -0.091500 0.676500
C827 C 0.102300 0.531100 1.277300
C828 C -0.013200 -0.200100 0.633400
C829 C -0.091500 -0.323500 0.634800
C830 C 0.716500 0.236800 0.880500
C831 C 0.619500 0.283500 0.736800
C832 C 0.763200 0.380500 0.783500
C833 C -0.200100 -0.366600 0.986800
C834 C -0.323500 -0.365200 0.908500
C835 C 0.793900 0.203200 0.862700
C836 C 0.670500 0.202500 0.942900
C837 C 0.637300 0.206100 0.703200
C838 C 0.557100 0.329500 0.702500
C839 C 0.796800 0.362700 0.706100
C840 C 0.797500 0.442900 0.829500
C841 C 0.823500 0.134800 0.908500
C842 C -0.297500 -0.057100 0.829500
C843 C 0.700100 0.133400 0.986800
C844 C -0.296800 -0.137300 0.706100
C845 C 0.591500 0.176500 0.634800
C846 C -0.057100 -0.170500 0.702500
C847 C 0.513200 0.299900 0.633400
C848 C -0.137300 -0.293900 0.703200
C849 C 0.865200 0.408500 0.676500
C850 C -0.170500 -0.297500 0.942900
C851 C 0.866600 0.486800 0.799900
C852 C -0.293900 -0.296800 0.862700
C853 C 0.777300 0.102300 0.968900
C854 C -0.263200 -0.119500 0.783500
C855 C -0.119500 -0.216500 0.736800
C856 C 0.531100 0.222700 0.602300
C857 C -0.216500 -0.263200 0.880500
C858 C 0.397700 0.031100 1.277300
C859 C 0.897700 0.468900 0.722700
C860 C 0.031100 0.277300 1.397700
C861 C 0.860400 0.181900 0.561100
C862 C 0.366600 0.013200 1.200100
C863 C 0.365200 0.091500 1.323500
C864 C 0.013200 0.200100 1.366600
C865 C 0.091500 0.323500 1.365200
C866 C 0.927500 0.191700 0.616000
C867 C -0.021300 0.521300 0.478700
C868 C -0.216500 0.763200 0.380500
C869 C -0.293900 0.796800 0.362700
C870 C -0.323500 0.865200 0.408500
C871 C -0.277300 0.897700 0.468900
C872 C -0.200100 0.866600 0.486800
C873 C -0.170500 0.797500 0.442900
C874 C 0.297500 0.057100 1.170500
C875 C 0.296800 0.137300 1.293900
C876 C 0.057100 0.170500 1.297500
C877 C 0.137300 0.293900 1.296800
C878 C -0.021300 -0.021300 0.978700
C879 C -0.119500 0.716500 0.236800
C880 C -0.263200 0.619500 0.283500
C881 C 0.021300 0.478700 0.521300
C882 C -0.137300 0.793900 0.203200
C883 C -0.057100 0.670500 0.202500
C884 C -0.296800 0.637300 0.206100
C885 C -0.297500 0.557100 0.329500
C886 C 0.263200 0.119500 1.216500
C887 C -0.091500 0.823500 0.134800
C888 C 0.119500 0.216500 1.263200
C889 C -0.013200 0.700100 0.133400
C890 C 0.170500 0.297500 1.057100
C891 C -0.365200 0.591500 0.176500
C892 C 0.200100 0.366600 1.013200
C893 C -0.366600 0.513200 0.299900
C894 C 0.277300 0.397700 1.031100
C895 C 0.323500 0.365200 1.091500
C896 C -0.031100 0.777300 0.102300
C897 C 0.293900 0.296800 1.137300
C898 C 0.216500 0.263200 1.119500
C899 C -0.397700 0.531100 0.222700
C900 C 0.021300 0.021300 1.021300
C901 C 0.318100 0.061100 0.860400
C902 C 0.216500 0.236800 0.619500
C903 C 0.119500 0.283500 0.763200
C904 C 0.263200 0.380500 0.716500
C905 C 0.384000 0.072500 0.808300
C906 C -0.397700 -0.031100 -0.277300
C907 C 0.293900 0.203200 0.637300
C908 C 0.170500 0.202500 0.557100
C909 C 0.137300 0.206100 0.796800
C910 C 0.057100 0.329500 0.797500
C911 C 0.296800 0.362700 0.793900
C912 C 0.297500 0.442900 0.670500
C913 C 0.323500 0.134800 0.591500
C914 C -0.031100 -0.277300 -0.397700
C915 C 0.200100 0.133400 0.513200
C916 C -0.277300 -0.397700 -0.031100
C917 C 0.091500 0.176500 0.865200
C918 C -0.366600 -0.013200 -0.200100
C919 C 0.013200 0.299900 0.866600
C920 C -0.365200 -0.091500 -0.323500
C921 C 0.365200 0.408500 0.823500
C922 C -0.013200 -0.200100 -0.366600
C923 C 0.366600 0.486800 0.700100
C924 C -0.091500 -0.323500 -0.365200
C925 C 0.277300 0.102300 0.531100
C926 C -0.200100 -0.366600 -0.013200
C927 C -0.323500 -0.365200 -0.091500
C928 C 0.031100 0.222700 0.897700
C929 C -0.297500 -0.057100 -0.170500
C930 C -0.296800 -0.137300 -0.293900
C931 C 0.397700 0.468900 0.777300
C932 C -0.057100 -0.170500 -0.297500
C933 C -0.137300 -0.293900 -0.296800
C934 C -0.170500 -0.297500 -0.057100
C935 C -0.293900 -0.296800 -0.137300
C936 C -0.263200 -0.119500 -0.216500
C937 C -0.119500 -0.216500 -0.263200
C938 C 1.397700 0.468900 0.777300
C939 C 0.978700 0.521300 0.478700
C940 C 0.783500 0.763200 0.380500
C941 C 0.706100 0.796800 0.362700
C942 C 0.676500 0.865200 0.408500
C943 C 0.722700 0.897700 0.468900
C944 C 0.799900 0.866600 0.486800
C945 C 0.829500 0.797500 0.442900
C946 C -0.216500 -0.263200 -0.119500
C947 C 0.397700 0.031100 0.277300
C948 C 0.031100 0.277300 0.397700
C949 C 0.308300 0.116000 0.927500
C950 C 0.366600 0.013200 0.200100
C951 C 0.880500 0.716500 0.236800
C952 C 0.736800 0.619500 0.283500
C953 C 1.021300 0.478700 0.521300
C954 C 0.862700 0.793900 0.203200
C955 C 0.942900 0.670500 0.202500
C956 C 0.703200 0.637300 0.206100
C957 C 0.702500 0.557100 0.329500
C958 C 0.365200 0.091500 0.323500
C959 C 0.908500 0.823500 0.134800
C960 C 0.013200 0.200100 0.366600
C961 C 0.986800 0.700100 0.133400
C962 C 0.091500 0.323500 0.365200
C963 C 0.634800 0.591500 0.176500
C964 C 0.438900 0.139600 0.818100
C965 C 0.633400 0.513200 0.299900
C966 C 0.297500 0.057100 0.170500
C967 C 0.296800 0.137300 0.293900
C968 C 0.968900 0.777300 0.102300
C969 C 0.057100 0.170500 0.297500
C970 C 0.137300 0.293900 0.296800
C971 C 0.602300 0.531100 0.222700
C972 C -0.021300 -0.021300 -0.021300
C973 C 0.263200 0.119500 0.216500
C974 C 1.216500 0.236800 0.619500
C975 C 1.119500 0.283500 0.763200
C976 C 1.263200 0.380500 0.716500
C977 C 0.119500 0.216500 0.263200
C978 C 0.170500 0.297500 0.057100
C979 C 1.293900 0.203200 0.637300
C980 C 1.170500 0.202500 0.557100
C981 C 1.137300 0.206100 0.796800
C982 C 1.057100 0.329500 0.797500
C983 C 1.296800 0.362700 0.793900
C984 C 1.297500 0.442900 0.670500
C985 C 1.323500 0.134800 0.591500
C986 C 0.200100 0.366600 0.013200
C987 C 1.200100 0.133400 0.513200
C988 C 0.277300 0.397700 0.031100
C989 C 1.091500 0.176500 0.865200
C990 C 0.323500 0.365200 0.091500
C991 C 1.013200 0.299900 0.866600
C992 C 0.293900 0.296800 0.137300
C993 C 1.365200 0.408500 0.823500
C994 C 0.216500 0.263200 0.119500
C995 C 1.366600 0.486800 0.700100
C996 C 0.021300 0.021300 0.021300
C997 C 1.277300 0.102300 0.531100
C998 C 0.360400 0.181900 0.938900
C999 C 1.013200 1.200100 1.366600
C1000 C 1.031100 0.222700 0.897700
P1001 P 1.174600 0.325400 0.674600
P1002 P 0.174600 0.174600 0.174600
P1003 P 0.825400 0.674600 0.325400
P1004 P -0.174600 -0.174600 -0.174600
P1005 P 0.174600 0.325400 0.674600
P1006 P 0.174600 0.174600 1.174600
P1007 P -0.174600 0.674600 0.325400
P1008 P -0.174600 -0.174600 0.825400
P1009 P 0.674600 0.325400 0.825400
P1010 P 0.174600 1.174600 0.174600
P1011 P 0.325400 0.674600 1.174600
P1012 P -0.174600 0.825400 -0.174600
P1013 P 0.674600 0.325400 -0.174600
P1014 P 0.174600 1.174600 1.174600
P1015 P 0.325400 0.674600 0.174600
P1016 P -0.174600 0.825400 0.825400
P1017 P 0.325400 0.825400 0.674600
P1018 P 1.174600 0.174600 0.174600
P1019 P 0.674600 1.174600 0.325400
P1020 P 0.825400 -0.174600 -0.174600
P1021 P 0.325400 -0.174600 0.674600
P1022 P 1.174600 0.174600 1.174600
P1023 P 0.674600 0.174600 0.325400
P1024 P 0.825400 -0.174600 0.825400
P1025 P 0.825400 0.825400 0.825400
P1026 P 1.174600 1.174600 0.174600
P1027 P 1.174600 1.174600 1.174600
P1028 P 0.825400 0.825400 -0.174600
Au1029 Au 1.092920 1.092920 1.092920
Au1030 Au 0.907080 0.907080 -0.092920
Au1031 Au 0.907080 0.907080 0.907080
Au1032 Au 1.092920 1.092920 0.092920
Au1033 Au 0.592920 0.092920 0.407080
Au1034 Au 0.907080 -0.092920 0.907080
Au1035 Au 0.407080 -0.092920 0.592920
Au1036 Au 1.092920 0.092920 1.092920
Au1037 Au 0.592920 1.092920 0.407080
Au1038 Au 0.907080 -0.092920 -0.092920
Au1039 Au 0.407080 0.907080 0.592920
Au1040 Au 1.092920 0.092920 0.092920
Au1041 Au 0.407080 0.592920 0.092920
Au1042 Au -0.092920 0.907080 0.907080
Au1043 Au 0.592920 0.407080 -0.092920
Au1044 Au 0.092920 1.092920 1.092920
Au1045 Au 0.407080 0.592920 1.092920
Au1046 Au -0.092920 0.907080 -0.092920
Au1047 Au 0.592920 0.407080 0.907080
Au1048 Au 0.092920 1.092920 0.092920
Au1049 Au -0.092920 0.592920 0.407080
Au1050 Au -0.092920 -0.092920 0.907080
Au1051 Au 0.092920 0.407080 0.592920
Au1052 Au 0.092920 0.092920 1.092920
Au1053 Au 0.907080 0.592920 0.407080
Au1054 Au -0.092920 -0.092920 -0.092920
Au1055 Au 1.092920 0.407080 0.592920
Au1056 Au 0.092920 0.092920 0.092920

#END
