./KABBEX_from_POSCAR.cif_generated_by_CrystalShift
_symmetry_cell_setting triclinic
_symmetry_space_group_name_H-M 'P 1'
loop_
_symmetry_equiv_pos_site_id
_symmetry_equiv_pos_as_xyz
1 x,y,z
_cell_length_a 12.781100
_cell_length_b 6.267400
_cell_length_c 33.351100
_cell_angle_alpha 90.000000
_cell_angle_beta 93.650000
_cell_angle_gamma 90.000000
_cell_volume 2666.146263
loop_
_atom_site_label
_atom_site_type_symbol
_atom_site_fract_x
_atom_site_fract_y
_atom_site_fract_z
H1 H 0.190500 0.645800 0.686900
H2 H 0.467500 0.229000 0.990800
H3 H 0.105000 0.107000 -0.004700
H4 H 0.744400 0.440000 0.422900
H5 H 0.032500 0.229000 0.009200
H6 H 0.655400 -0.084000 0.467100
H7 H 0.895000 0.607000 0.504700
H8 H 0.967500 0.729000 0.490800
H9 H 0.605000 0.607000 0.495300
H10 H 0.532500 0.729000 0.509200
H11 H 0.805900 0.030600 0.347300
H12 H 0.605000 0.893000 -0.004700
H13 H 0.809500 0.354200 0.313100
H14 H 0.785900 0.478400 0.352300
H15 H 0.532500 0.771000 0.009200
H16 H 0.972400 0.249800 0.340900
H17 H 0.964400 0.499000 0.344000
H18 H 0.895000 0.893000 1.004700
H19 H 0.931500 0.478000 0.411400
H20 H 1.034500 0.349300 0.405000
H21 H 0.967500 0.771000 0.990800
H22 H 0.921800 0.153400 0.444800
H23 H 0.943600 0.028000 0.405500
H24 H 0.105000 0.393000 0.495300
H25 H 0.624500 0.017500 0.360000
H26 H 0.619000 0.264600 0.353100
H27 H 0.032500 0.271000 0.509200
H28 H 0.395000 0.393000 0.504700
H29 H 0.570400 0.212700 0.250700
H30 H 0.554300 0.360400 0.289400
H31 H 0.467500 0.271000 0.490800
H32 H 0.644200 -0.117900 0.257600
H33 H 0.661000 -0.214900 0.300900
H34 H 0.750400 -0.081000 0.282900
H35 H 0.750400 0.581000 0.782900
H36 H 0.661000 0.714900 0.800900
H37 H 0.644200 0.617900 0.757600
H38 H 0.755600 0.440000 0.577100
H39 H 0.554300 0.139600 0.789400
H40 H 0.844600 -0.084000 0.532900
H41 H 0.570400 0.287300 0.750700
H42 H 0.619000 0.235400 0.853100
H43 H 0.624500 0.482500 0.860000
H44 H 0.943600 0.472000 0.905500
H45 H 0.694100 0.030600 0.652700
H46 H 0.921800 0.346600 0.944800
H47 H 0.690500 0.354200 0.686900
H48 H 0.714100 0.478400 0.647700
H49 H 1.034500 0.150700 0.905000
H50 H 0.527600 0.249800 0.659100
H51 H 0.535600 0.499000 0.656000
H52 H 0.931500 0.022000 0.911400
H53 H 0.568500 0.478000 0.588600
H54 H 0.465500 0.349300 0.595000
H55 H 0.964400 0.001000 0.844000
H56 H 0.578200 0.153400 0.555200
H57 H 0.556400 0.028000 0.594500
H58 H 0.972400 0.250200 0.840900
H59 H 0.875500 0.017500 0.640000
H60 H 0.881000 0.264600 0.646900
H61 H 0.785900 0.021600 0.852300
H62 H 0.809500 0.145800 0.813100
H63 H 0.929600 0.212700 0.749300
H64 H 0.945700 0.360400 0.710600
H65 H 0.805900 0.469400 0.847300
H66 H 0.855800 -0.117900 0.742400
H67 H 0.839000 -0.214900 0.699100
H68 H 0.749600 -0.081000 0.717100
H69 H 0.655400 0.584000 0.967100
H70 H 0.744400 0.060000 0.922900
H71 H 0.749600 0.581000 0.217100
H72 H 0.244400 0.940000 0.922900
H73 H 0.839000 0.714900 0.199100
H74 H 0.155400 0.416000 0.967100
H75 H 0.855800 0.617900 0.242400
H76 H 0.945700 0.139600 0.210600
H77 H 0.929600 0.287300 0.249300
H78 H 0.881000 0.235400 0.146900
H79 H 0.305900 0.530600 0.847300
H80 H 0.875500 0.482500 0.140000
H81 H 0.309500 0.854200 0.813100
H82 H 0.285900 0.978400 0.852300
H83 H 0.556400 0.472000 0.094500
H84 H 0.472400 0.749800 0.840900
H85 H 0.464400 0.999000 0.844000
H86 H 0.578200 0.346600 0.055200
H87 H 0.431500 0.978000 0.911400
H88 H 0.534500 0.849300 0.905000
H89 H 0.465500 0.150700 0.095000
H90 H 0.421800 0.653400 0.944800
H91 H 0.443600 0.528000 0.905500
H92 H 0.568500 0.022000 0.088600
H93 H 0.124500 0.517500 0.860000
H94 H 0.119000 0.764600 0.853100
H95 H 0.535600 0.001000 0.156000
H96 H 0.527600 0.250200 0.159100
H97 H 0.070400 0.712700 0.750700
H98 H 0.054300 0.860400 0.789400
H99 H 0.714100 0.021600 0.147700
H100 H 0.144200 0.382100 0.757600
H101 H 0.161000 0.285100 0.800900
H102 H 0.250400 0.419000 0.782900
H103 H 0.690500 0.145800 0.186900
H104 H 0.694100 0.469400 0.152700
H105 H 0.844600 0.584000 0.032900
H106 H 0.255600 0.940000 0.077100
H107 H 0.755600 0.060000 0.077100
H108 H 0.344600 0.416000 0.032900
H109 H 0.250400 1.081000 0.282900
H110 H 0.161000 1.214900 0.300900
H111 H 0.144200 1.117900 0.257600
H112 H 0.054300 0.639600 0.289400
H113 H 0.194100 0.530600 0.152700
H114 H 0.070400 0.787300 0.250700
H115 H 0.190500 0.854200 0.186900
H116 H 0.214100 0.978400 0.147700
H117 H 0.119000 0.735400 0.353100
H118 H 0.027600 0.749800 0.159100
H119 H 0.035600 0.999000 0.156000
H120 H 0.124500 0.982500 0.360000
H121 H 0.068500 0.978000 0.088600
H122 H -0.034500 0.849300 0.095000
H123 H 0.443600 0.972000 0.405500
H124 H 0.078200 0.653400 0.055200
H125 H 0.056400 0.528000 0.094500
H126 H 0.421800 0.846600 0.444800
H127 H 0.375500 0.517500 0.140000
H128 H 0.381000 0.764600 0.146900
H129 H 0.534500 0.650700 0.405000
H130 H 0.431500 0.522000 0.411400
H131 H 0.429600 0.712700 0.249300
H132 H 0.445700 0.860400 0.210600
H133 H 0.464400 0.501000 0.344000
H134 H 0.355800 0.382100 0.242400
H135 H 0.339000 0.285100 0.199100
H136 H 0.249600 0.419000 0.217100
H137 H 0.472400 0.750200 0.340900
H138 H 0.285900 0.521600 0.352300
H139 H 0.309500 0.645800 0.313100
H140 H 0.255600 0.560000 0.577100
H141 H 0.305900 0.969400 0.347300
H142 H 0.344600 1.084000 0.532900
H143 H 0.155400 1.084000 0.467100
H144 H 0.244400 0.560000 0.422900
H145 H 0.249600 1.081000 0.717100
H146 H 0.339000 1.214900 0.699100
H147 H 0.194100 0.969400 0.652700
H148 H 0.355800 1.117900 0.742400
H149 H 0.395000 0.107000 1.004700
H150 H 0.214100 0.521600 0.647700
H151 H 0.445700 0.639600 0.710600
H152 H 0.027600 0.750200 0.659100
H153 H 0.035600 0.501000 0.656000
H154 H 0.429600 0.787300 0.749300
H155 H 0.068500 0.522000 0.588600
H156 H -0.034500 0.650700 0.595000
H157 H 0.381000 0.735400 0.646900
H158 H 0.078200 0.846600 0.555200
H159 H 0.056400 0.972000 0.594500
H160 H 0.375500 0.982500 0.640000
C161 C 0.345730 0.865100 0.654370
C162 C 0.089910 0.846300 0.584240
C163 C 0.366620 0.901100 0.698890
C164 C 0.419100 0.762500 0.721830
C165 C 0.040740 0.647700 0.601180
C166 C 0.063170 0.634200 0.646290
C167 C 0.324100 1.095400 0.715840
C168 C 0.179690 0.646500 0.657870
C169 C 0.229410 0.846500 0.641370
C170 C 0.207950 0.856100 0.595450
C171 C 0.675180 0.219400 0.453390
C172 C 0.747390 -0.059900 0.421620
C173 C 0.792050 0.143900 0.404550
C174 C 0.252610 1.059900 0.578380
C175 C 0.770590 0.153500 0.358630
C176 C 0.324820 0.780600 0.546610
C177 C 0.175180 0.780600 0.453390
C178 C 0.247390 1.059900 0.421620
C179 C 0.292050 0.856100 0.404550
C180 C 0.270590 0.846500 0.358630
C181 C 0.820310 0.353500 0.342130
C182 C 0.320310 0.646500 0.342130
C183 C 0.936830 0.365800 0.353710
C184 C 0.959260 0.352300 0.398820
C185 C 0.436830 0.634200 0.353710
C186 C 0.910090 0.153700 0.415760
C187 C 0.324100 0.404600 0.215840
C188 C 0.459260 0.647700 0.398820
C189 C 0.419100 0.737500 0.221830
C190 C 0.366620 0.598900 0.198890
C191 C 0.410090 0.846300 0.415760
C192 C 0.345730 0.634900 0.154370
C193 C 0.089910 0.653700 0.084240
C194 C 0.154270 0.865100 0.345630
C195 C 0.040740 0.852300 0.101180
C196 C 0.063170 0.865800 0.146290
C197 C 0.133380 0.901100 0.301110
C198 C 0.080900 0.762500 0.278170
C199 C 0.179690 0.853500 0.157870
C200 C 0.229410 0.653500 0.141370
C201 C 0.175900 1.095400 0.284160
C202 C 0.207950 0.643900 0.095450
C203 C 0.252610 0.440100 0.078380
C204 C 0.324820 0.719400 0.046610
C205 C 0.654270 0.134900 0.345630
C206 C 0.633380 0.098900 0.301110
C207 C 0.580900 0.237500 0.278170
C208 C 0.675900 -0.095400 0.284160
C209 C 0.675900 0.595400 0.784160
C210 C 0.824820 0.219400 0.546610
C211 C 0.824820 0.280600 0.046610
C212 C 0.752610 0.559900 0.078380
C213 C 0.707950 0.356100 0.095450
C214 C 0.729410 0.346500 0.141370
C215 C 0.580900 0.262500 0.778170
C216 C 0.679690 0.146500 0.157870
C217 C 0.633380 0.401100 0.801110
C218 C 0.175900 0.404600 0.784160
C219 C 0.563170 0.134200 0.146290
C220 C 0.080900 0.737500 0.778170
C221 C 0.133380 0.598900 0.801110
C222 C 0.540740 0.147700 0.101180
C223 C 0.154270 0.634900 0.845630
C224 C 0.410090 0.653700 0.915760
C225 C 0.589910 0.346300 0.084240
C226 C 0.459260 0.852300 0.898820
C227 C 0.436830 0.865800 0.853710
C228 C 0.845730 0.365100 0.154370
C229 C 0.320310 0.853500 0.842130
C230 C 0.270590 0.653500 0.858630
C231 C 0.866620 0.401100 0.198890
C232 C 0.919100 0.262500 0.221830
C233 C 0.292050 0.643900 0.904550
C234 C 0.247390 0.440100 0.921620
C235 C 0.824100 0.595400 0.215840
C236 C 0.175180 0.719400 0.953390
C237 C 0.752610 -0.059900 0.578380
C238 C 0.707950 0.143900 0.595450
C239 C 0.654270 0.365100 0.845630
C240 C 0.729410 0.153500 0.641370
C241 C 0.679690 0.353500 0.657870
C242 C 0.910090 0.346300 0.915760
C243 C 0.563170 0.365800 0.646290
C244 C 0.540740 0.352300 0.601180
C245 C 0.675180 0.280600 0.953390
C246 C 0.747390 0.559900 0.921620
C247 C 0.792050 0.356100 0.904550
C248 C 0.770590 0.346500 0.858630
C249 C 0.824100 -0.095400 0.715840
C250 C 0.820310 0.146500 0.842130
C251 C 0.919100 0.237500 0.721830
C252 C 0.866620 0.098900 0.698890
C253 C 0.936830 0.134200 0.853710
C254 C 0.845730 0.134900 0.654370
C255 C 0.589910 0.153700 0.584240
C256 C 0.959260 0.147700 0.898820
N257 N 0.766070 0.195900 0.073940
N258 N 0.682820 0.501500 0.950430
N259 N 0.682820 -0.001500 0.450430
N260 N 0.733930 0.195900 0.926060
N261 N 0.233930 0.695900 0.426060
N262 N 0.182820 1.001500 0.450430
N263 N 0.233930 0.804100 0.926060
N264 N 0.182820 0.498500 0.950430
N265 N 0.317180 1.001500 0.549570
N266 N 0.266070 0.695900 0.573940
N267 N 0.266070 0.804100 0.073940
N268 N 0.817180 -0.001500 0.549570
N269 N 0.817180 0.501500 0.049570
N270 N 0.766070 0.304100 0.573940
N271 N 0.733930 0.304100 0.426060
N272 N 0.317180 0.498500 0.049570
O273 O 0.406320 0.271200 0.496960
O274 O 0.878400 0.309000 0.522550
O275 O 0.734280 -0.240300 0.589120
O276 O 0.093680 0.271200 0.503040
O277 O 0.734280 0.740300 0.089120
O278 O 0.878400 0.191000 0.022550
O279 O 0.906320 0.771200 0.996960
O280 O 0.378400 0.691000 0.522550
O281 O 0.234280 1.240300 0.589120
O282 O 0.593680 0.771200 0.003040
O283 O 0.234280 0.259700 0.089120
O284 O 0.378400 0.809000 0.022550
O285 O 0.593680 0.728800 0.503040
O286 O 0.621600 0.191000 0.977450
O287 O 0.765720 0.740300 0.910880
O288 O 0.906320 0.728800 0.496960
O289 O 0.265720 1.240300 0.410880
O290 O 0.121600 0.691000 0.477450
O291 O 0.093680 0.228800 0.003040
O292 O 0.265720 0.259700 0.910880
O293 O 0.121600 0.809000 0.977450
O294 O 0.406320 0.228800 0.996960
O295 O 0.765720 -0.240300 0.410880
O296 O 0.621600 0.309000 0.477450

#END
