./KABCEW_from_POSCAR.cif_generated_by_CrystalShift
_symmetry_cell_setting triclinic
_symmetry_space_group_name_H-M 'P 1'
loop_
_symmetry_equiv_pos_site_id
_symmetry_equiv_pos_as_xyz
1 x,y,z
_cell_length_a 15.920000
_cell_length_b 17.510000
_cell_length_c 16.800000
_cell_angle_alpha 90.000000
_cell_angle_beta 95.160000
_cell_angle_gamma 90.000000
_cell_volume 4664.175746
loop_
_atom_site_label
_atom_site_type_symbol
_atom_site_fract_x
_atom_site_fract_y
_atom_site_fract_z
H1 H 0.747500 0.604100 0.463800
H2 H 0.791000 0.536100 0.516100
H3 H 0.287200 -0.217400 0.717200
H4 H 0.544100 0.600900 0.488100
H5 H 0.162700 -0.294900 0.629900
H6 H 0.249700 -0.329000 0.604600
H7 H 0.198400 -0.267800 0.548500
H8 H 0.592000 0.680300 0.505800
H9 H 0.356700 -0.187400 0.555900
H10 H 0.396400 -0.250300 0.617300
H11 H 0.407200 -0.161500 0.638200
H12 H 0.537200 0.643700 0.571400
H13 H 0.149000 -0.028800 0.591700
H14 H 0.921000 0.637000 0.829600
H15 H 0.986100 0.685200 0.782500
H16 H 0.999000 0.679200 0.877800
H17 H 1.131600 0.643300 0.889900
H18 H 0.259100 -0.033700 0.960600
H19 H 0.346000 -0.062200 0.928400
H20 H 1.143000 0.646000 0.796300
H21 H 0.343000 -0.169100 0.999500
H22 H 0.262300 -0.135900 1.039300
H23 H 1.169300 0.571000 0.847000
H24 H 0.188300 -0.224100 0.975100
H25 H 0.264800 -0.245600 0.923000
H26 H 1.019000 0.564000 0.944400
H27 H 0.182700 -0.191900 0.824100
H28 H 0.132900 -0.141200 0.884400
H29 H 1.066500 0.493500 0.907700
H30 H 0.966700 0.502900 0.889200
H31 H 0.962800 0.348100 0.546600
H32 H 1.037600 0.394100 0.510700
H33 H 0.942500 0.423800 0.495000
H34 H 1.130100 0.553700 0.716700
H35 H -0.135500 0.009300 0.872200
H36 H 1.115800 0.481400 0.601500
H37 H -0.078500 0.089500 0.981400
H38 H 0.857000 0.365200 0.606000
H39 H 0.733000 0.141200 0.784800
H40 H 0.632400 0.142100 0.783600
H41 H 0.114500 0.130900 1.040200
H42 H 0.017500 0.151700 1.046900
H43 H 0.072700 0.201900 0.991500
H44 H 0.688100 0.197800 0.842600
H45 H 0.652500 0.380300 0.566100
H46 H -0.090300 0.037100 0.664400
H47 H -0.082100 -0.045400 0.625100
H48 H 0.000600 -0.001400 0.661900
H49 H 0.566400 0.276400 0.555400
H50 H -0.192000 -0.015900 0.758900
H51 H -0.167700 -0.095000 0.802600
H52 H -0.185200 -0.092200 0.707400
H53 H 0.577800 0.186500 0.659300
H54 H -0.052500 -0.160800 0.710900
H55 H -0.024900 -0.148900 0.804000
H56 H 0.035400 -0.120300 0.738800
H57 H 0.931100 0.158800 0.748600
H58 H 0.178800 0.147200 0.920800
H59 H 0.915000 0.222900 0.681100
H60 H 0.837300 0.175500 0.710000
H61 H 0.359100 0.098800 0.952800
H62 H 0.995300 0.241500 0.854600
H63 H 0.477800 0.175800 0.950000
H64 H 0.977800 0.324200 0.950000
H65 H 0.495300 0.258500 0.854600
H66 H 0.859100 0.401200 0.952800
H67 H 0.678800 0.352800 0.920800
H68 H 0.535400 0.620300 0.738800
H69 H 0.337300 0.324500 0.710000
H70 H 0.415000 0.277100 0.681100
H71 H 0.431100 0.341200 0.748600
H72 H 0.475100 0.648900 0.804000
H73 H 0.447500 0.660800 0.710900
H74 H 0.314800 0.592200 0.707400
H75 H 0.077800 0.313500 0.659300
H76 H 0.332300 0.595000 0.802600
H77 H 0.066400 0.223600 0.555400
H78 H 0.308000 0.515900 0.758900
H79 H 0.152500 0.119700 0.566100
H80 H 0.500600 0.501400 0.661900
H81 H 0.417900 0.545400 0.625100
H82 H 0.188100 0.302200 0.842600
H83 H 0.132400 0.357900 0.783600
H84 H 0.233000 0.358800 0.784800
H85 H 0.409700 0.462900 0.664400
H86 H 0.357000 0.134800 0.606000
H87 H 0.572700 0.298100 0.991500
H88 H 0.517500 0.348300 1.046900
H89 H 0.614500 0.369100 1.040200
H90 H 0.615800 0.018600 0.601500
H91 H 0.421500 0.410500 0.981400
H92 H 0.630100 -0.053700 0.716700
H93 H 0.364500 0.490700 0.872200
H94 H 0.632900 0.641200 0.884400
H95 H 0.682700 0.691900 0.824100
H96 H 0.442500 0.076200 0.495000
H97 H 0.537600 0.105900 0.510700
H98 H 0.462800 0.151900 0.546600
H99 H 0.764800 0.745600 0.923000
H100 H 0.688300 0.724100 0.975100
H101 H 0.466700 -0.002900 0.889200
H102 H 0.566500 0.006500 0.907700
H103 H 0.519000 -0.064000 0.944400
H104 H 0.762300 0.635900 1.039300
H105 H 0.669300 -0.071000 0.847000
H106 H 0.643000 -0.146000 0.796300
H107 H 0.631600 -0.143300 0.889900
H108 H 0.843000 0.669100 0.999500
H109 H 0.499000 -0.179200 0.877800
H110 H 0.486100 -0.185200 0.782500
H111 H 0.421000 -0.137000 0.829600
H112 H 0.846000 0.562200 0.928400
H113 H 0.037200 -0.143700 0.571400
H114 H 0.092000 -0.180300 0.505800
H115 H 0.044100 -0.100900 0.488100
H116 H 0.759100 0.533700 0.960600
H117 H 0.291000 -0.036100 0.516100
H118 H 0.208500 -0.019800 0.456900
H119 H 0.247500 -0.104100 0.463800
H120 H 0.649000 0.528800 0.591700
H121 H 0.907200 0.661500 0.638200
H122 H 0.212800 0.282600 0.282800
H123 H 0.896400 0.750300 0.617300
H124 H 0.337300 0.205100 0.370100
H125 H 0.250300 0.171000 0.395400
H126 H 0.301600 0.232200 0.451500
H127 H 0.856700 0.687400 0.555900
H128 H 0.143300 0.312600 0.444100
H129 H 0.103600 0.249700 0.382700
H130 H 0.092800 0.338500 0.361800
H131 H 0.698400 0.767800 0.548500
H132 H 0.351000 0.471200 0.408300
H133 H 0.749700 0.829000 0.604600
H134 H 0.662700 0.794900 0.629900
H135 H 0.787200 0.717400 0.717200
H136 H 0.752500 1.104100 0.536200
H137 H 0.240900 0.466300 0.039400
H138 H 0.154000 0.437800 0.071600
H139 H 0.791500 1.019800 0.543100
H140 H 0.157000 0.330900 0.000500
H141 H 0.237700 0.364100 -0.039300
H142 H 0.709000 1.036100 0.483900
H143 H 0.311700 0.275900 0.024900
H144 H 0.235200 0.254400 0.077000
H145 H 0.955900 1.100900 0.511900
H146 H 0.317300 0.308100 0.175900
H147 H 0.367100 0.358800 0.115600
H148 H 0.908000 1.180300 0.494200
H149 H 0.962800 1.143700 0.428600
H150 H 0.579000 1.137000 0.170400
H151 H 0.513900 1.185200 0.217500
H152 H 0.501000 1.179200 0.122200
H153 H 0.368400 1.143300 0.110100
H154 H 0.635500 0.509300 0.127800
H155 H 0.357000 1.146000 0.203700
H156 H 0.578500 0.589500 0.018600
H157 H 0.330700 1.071000 0.153000
H158 H 0.481000 1.064000 0.055600
H159 H 0.433500 0.993500 0.092300
H160 H 0.385500 0.630900 -0.040200
H161 H 0.482500 0.651700 -0.046900
H162 H 0.427300 0.701900 0.008500
H163 H 0.533300 1.002900 0.110800
H164 H 0.537200 0.848100 0.453400
H165 H 0.590300 0.537100 0.335600
H166 H 0.582100 0.454600 0.374900
H167 H 0.499400 0.498600 0.338100
H168 H 0.462400 0.894100 0.489300
H169 H 0.692000 0.484100 0.241100
H170 H 0.667700 0.405000 0.197400
H171 H 0.685200 0.407800 0.292600
H172 H 0.557500 0.923800 0.505000
H173 H 0.552500 0.339200 0.289100
H174 H 0.524900 0.351100 0.196000
H175 H 0.464600 0.379700 0.261200
H176 H 0.369900 1.053700 0.283300
H177 H 0.321200 0.647200 0.079200
H178 H 0.384200 0.981400 0.398500
H179 H 0.643000 0.865200 0.394000
H180 H 0.140900 0.598800 0.047200
H181 H 0.767000 0.641200 0.215200
H182 H 0.022200 0.675800 0.050000
H183 H 0.867600 0.642100 0.216400
H184 H 0.004700 0.758500 0.145400
H185 H 0.811900 0.697800 0.157400
H186 H 0.847500 0.880300 0.433900
H187 H 0.933600 0.776400 0.444600
H188 H 0.162700 0.824500 0.290000
H189 H 0.085000 0.777100 0.318900
H190 H 0.068900 0.841200 0.251400
H191 H 0.922200 0.686500 0.340700
H192 H 0.568900 0.658800 0.251400
H193 H 0.585000 0.722900 0.318900
H194 H 0.422200 0.813500 0.340700
H195 H 0.662700 0.675500 0.290000
H196 H 0.433600 0.723600 0.444600
H197 H 0.504700 0.741500 0.145400
H198 H 0.347500 0.619700 0.433900
H199 H 0.522200 0.824200 0.050000
H200 H 0.640900 0.901200 0.047200
H201 H 0.311900 0.802200 0.157400
H202 H 0.367600 0.857900 0.216400
H203 H 0.267000 0.858800 0.215200
H204 H 0.821200 0.852800 0.079200
H205 H 0.143000 0.634800 0.394000
H206 H 0.964600 1.120300 0.261200
H207 H 1.024900 1.148900 0.196000
H208 H 1.052500 1.160800 0.289100
H209 H -0.115800 0.518600 0.398500
H210 H 1.185200 1.092200 0.292600
H211 H -0.130100 0.446300 0.283300
H212 H 1.167700 1.095000 0.197400
H213 H 1.192000 1.015900 0.241100
H214 H 0.999400 1.001400 0.338100
H215 H 0.057500 0.576200 0.505000
H216 H -0.037600 0.605900 0.489300
H217 H 0.037200 0.651900 0.453400
H218 H 1.082100 1.045400 0.374900
H219 H 1.090300 0.962900 0.335600
H220 H 0.033300 0.497100 0.110800
H221 H -0.066500 0.506500 0.092300
H222 H -0.019000 0.436000 0.055600
H223 H 0.927300 0.798100 0.008500
H224 H -0.169300 0.429000 0.153000
H225 H -0.143000 0.354000 0.203700
H226 H -0.131600 0.356700 0.110100
H227 H 0.982500 0.848300 -0.046900
H228 H 0.001000 0.320800 0.122200
H229 H 0.013900 0.314800 0.217500
H230 H 0.079000 0.363000 0.170400
H231 H 0.885500 0.869100 -0.040200
H232 H 0.462800 0.356300 0.428600
H233 H 0.408000 0.319700 0.494200
H234 H 0.455900 0.399100 0.511900
H235 H 1.078500 0.910500 0.018600
H236 H 0.209000 0.463900 0.483900
H237 H 0.291500 0.480200 0.543100
H238 H 0.252500 0.395900 0.536200
H239 H 1.135500 0.990700 0.127800
H240 H 0.867100 1.141200 0.115600
H241 H 0.712800 1.217400 0.282800
H242 H 0.817300 1.191900 0.175900
H243 H 0.837300 1.294900 0.370100
H244 H 0.750300 1.329000 0.395400
H245 H 0.801600 1.267800 0.451500
H246 H 0.735200 1.245600 0.077000
H247 H 0.643300 1.187400 0.444100
H248 H 0.603600 1.250300 0.382700
H249 H 0.592800 1.161500 0.361800
H250 H 0.811700 1.224100 0.024900
H251 H 0.851000 1.028800 0.408300
H252 H 0.737700 1.135900 -0.039300
H253 H 0.657000 1.169100 0.000500
H254 H 0.654000 1.062200 0.071600
H255 H 0.740900 1.033700 0.039400
H256 H 0.708500 0.519800 0.456900
C257 C 0.737200 0.557200 0.493300
C258 C 0.714500 1.148100 0.011900
C259 C 0.214000 -0.283400 0.604000
C260 C 0.369200 -0.200100 0.612600
C261 C 0.769000 1.203000 0.058100
C262 C 0.574400 0.632400 0.529500
C263 C 0.630800 1.200100 0.387400
C264 C 0.810800 1.159400 0.127600
C265 C 0.786000 1.283400 0.396000
C266 C 0.980200 0.651900 0.828500
C267 C 0.287300 -0.077000 0.936000
C268 C 0.285500 -0.148100 0.988100
C269 C 0.231000 -0.203000 0.941900
C270 C 0.943800 0.976800 0.180100
C271 C 1.031100 0.998200 0.181000
C272 C 1.078200 0.975000 0.125300
C273 C 1.128900 0.613300 0.841000
C274 C 1.045000 0.925900 0.059800
C275 C 0.262800 0.442800 0.506700
C276 C 0.963200 0.903200 0.060900
C277 C 0.911700 0.924300 0.116600
C278 C 0.937200 0.849800 -0.011100
C279 C 0.425600 0.367600 0.470500
C280 C 0.019800 0.348100 0.171500
C281 C -0.128900 0.386700 0.159000
C282 C 1.067900 1.047900 0.252300
C283 C 1.059200 1.011200 0.332200
C284 C -0.020400 0.469700 0.102000
C285 C -0.034800 0.420300 0.178600
C286 C 0.016500 0.601000 0.466300
C287 C 1.161700 1.064200 0.245200
C288 C 0.063800 0.496400 0.277100
C289 C -0.018700 0.465800 0.254400
C290 C -0.078300 0.471800 0.297800
C291 C 1.023400 1.126700 0.249400
C292 C -0.069300 0.515200 0.367000
C293 C 0.005300 0.554700 0.392900
C294 C 0.072200 0.545200 0.345000
C295 C 0.832500 0.892500 0.117200
C296 C 0.148000 0.593000 0.358800
C297 C 0.700500 0.856100 0.154900
C298 C 0.635700 0.865600 0.089100
C299 C 0.316500 0.826500 0.210100
C300 C 0.566000 0.819300 0.091900
C301 C 0.272700 0.653700 0.334500
C302 C 0.555600 0.770000 0.146900
C303 C 0.339800 0.659400 0.395400
C304 C 0.618700 0.758000 0.208900
C305 C 0.692600 0.801300 0.211900
C306 C 0.607900 0.698500 0.273000
C307 C 0.392100 0.718100 0.400600
C308 C 0.384100 0.771800 0.338900
C309 C 0.320900 0.766400 0.273400
C310 C 0.765300 0.793000 0.276000
C311 C 0.820900 0.733600 0.273400
C312 C 0.884100 0.728200 0.338900
C313 C 0.265300 0.707000 0.276000
C314 C 0.892100 0.781900 0.400600
C315 C 0.107900 0.801500 0.273000
C316 C 0.839800 0.840600 0.395400
C317 C 0.192600 0.698700 0.211900
C318 C 0.772700 0.846300 0.334500
C319 C 0.816500 0.673500 0.210100
C320 C 0.118700 0.742000 0.208900
C321 C 0.055600 0.730000 0.146900
C322 C 0.066000 0.680700 0.091900
C323 C 0.648000 0.907000 0.358800
C324 C 0.135700 0.634400 0.089100
C325 C 0.572200 0.954800 0.345000
C326 C 0.505300 0.945300 0.392900
C327 C 0.430700 0.984800 0.367000
C328 C 0.200500 0.643900 0.154900
C329 C 0.421700 1.028200 0.297800
C330 C 0.332500 0.607500 0.117200
C331 C 0.481300 1.034200 0.254400
C332 C 0.563800 1.003600 0.277100
C333 C 0.516500 0.899000 0.466300
C334 C 0.523400 0.373300 0.249400
C335 C 0.661700 0.435800 0.245200
C336 C 0.559200 0.488800 0.332200
C337 C 0.465200 1.079700 0.178600
C338 C 0.479600 1.030300 0.102000
C339 C 0.567900 0.452100 0.252300
C340 C 0.437200 0.650200 -0.011100
C341 C 0.411700 0.575700 0.116600
C342 C 0.371100 1.113300 0.159000
C343 C 0.463200 0.596800 0.060900
C344 C 0.545000 0.574100 0.059800
C345 C 0.578200 0.525000 0.125300
C346 C 0.519800 1.151900 0.171500
C347 C 0.531100 0.501800 0.181000
C348 C 0.443800 0.523200 0.180100
C349 C 0.189200 -0.159400 0.872400
C350 C 0.925600 1.132400 0.470500
C351 C 1.020400 0.530300 0.898000
C352 C 1.034800 0.579700 0.821400
C353 C 0.310800 0.340600 0.127600
C354 C 0.762800 1.057200 0.506700
C355 C 0.269000 0.297000 0.058100
C356 C 0.214500 0.351900 0.011900
C357 C 0.212700 0.423000 0.064000
C358 C 0.056200 0.023200 0.819900
C359 C -0.031100 0.001800 0.819000
C360 C 0.983500 0.399000 0.533700
C361 C 0.714000 0.783400 0.604000
C362 C 0.936200 0.503600 0.722900
C363 C 1.018700 0.534200 0.745600
C364 C -0.078200 0.025000 0.874700
C365 C 0.869200 0.700100 0.612600
C366 C 0.130800 0.299900 0.387400
C367 C 0.286000 0.216600 0.396000
C368 C 1.078300 0.528200 0.702200
C369 C -0.045000 0.074100 0.940200
C370 C 1.069300 0.484800 0.633000
C371 C 0.994700 0.445300 0.607100
C372 C 0.927800 0.454800 0.655000
C373 C 0.036800 0.096800 0.939100
C374 C 0.787300 0.577000 0.936000
C375 C 0.237200 -0.057200 0.493300
C376 C 0.074400 -0.132400 0.529500
C377 C 0.785500 0.648100 0.988100
C378 C 0.480200 -0.151900 0.828500
C379 C 0.628900 -0.113300 0.841000
C380 C 0.731000 0.703000 0.941900
C381 C 0.520400 -0.030300 0.898000
C382 C 0.534800 -0.079700 0.821400
C383 C 0.689200 0.659400 0.872400
C384 C 0.483500 0.101000 0.533700
C385 C 0.436200 -0.003600 0.722900
C386 C 0.852000 0.407000 0.641200
C387 C 0.088300 0.075700 0.883400
C388 C 0.062800 0.150200 1.011100
C389 C 0.556200 0.476800 0.819900
C390 C 0.468900 0.498200 0.819000
C391 C 0.421800 0.475000 0.874700
C392 C 0.518700 -0.034200 0.745600
C393 C 0.455000 0.425900 0.940200
C394 C 0.578300 -0.028200 0.702200
C395 C 0.536800 0.403200 0.939100
C396 C 0.588300 0.424300 0.883400
C397 C 0.562800 0.349800 1.011100
C398 C 0.569300 0.015200 0.633000
C399 C 0.494700 0.054700 0.607100
C400 C 0.427800 0.045200 0.655000
C401 C 0.432100 0.547900 0.747700
C402 C 0.440800 0.511200 0.667800
C403 C 0.352000 0.093000 0.641200
C404 C 0.183500 0.326500 0.789900
C405 C 0.227300 0.153700 0.665500
C406 C 0.338300 0.564200 0.754800
C407 C 0.160200 0.159400 0.604600
C408 C 0.107900 0.218100 0.599400
C409 C 0.115900 0.271800 0.661100
C410 C 0.476600 0.626700 0.750600
C411 C 0.179100 0.266400 0.726600
C412 C 0.234700 0.207000 0.724000
C413 C 0.392100 0.301500 0.727000
C414 C 0.667500 0.392500 0.882800
C415 C 0.307400 0.198700 0.788100
C416 C 0.799500 0.356100 0.845100
C417 C 0.864300 0.365600 0.910900
C418 C 0.381300 0.242000 0.791100
C419 C 0.934000 0.319300 0.908100
C420 C 0.444400 0.230000 0.853100
C421 C 0.944400 0.270000 0.853100
C422 C 0.434000 0.180700 0.908100
C423 C 0.881300 0.258000 0.791100
C424 C 0.807400 0.301300 0.788100
C425 C 0.892100 0.198500 0.727000
C426 C 0.364300 0.134400 0.910900
C427 C 0.299500 0.143900 0.845100
C428 C 0.167500 0.107500 0.882800
C429 C 0.734700 0.293000 0.724000
C430 C 0.679100 0.233600 0.726600
C431 C 0.615900 0.228200 0.661100
C432 C -0.023400 -0.126700 0.750600
C433 C 0.607900 0.281900 0.599400
C434 C -0.161700 -0.064200 0.754800
C435 C 0.660200 0.340600 0.604600
C436 C -0.059200 -0.011200 0.667800
C437 C 0.727300 0.346300 0.665500
C438 C 0.683500 0.173500 0.789900
C439 C -0.067900 -0.047900 0.747700
C440 C 0.712700 1.077000 0.064000
N441 N 0.779700 0.413400 0.669800
N442 N 0.728500 0.406800 0.840300
N443 N 0.771500 0.906800 0.159700
N444 N 0.720300 0.913400 0.330200
N445 N 0.776500 1.117600 0.343500
N446 N 0.276500 0.382400 0.343500
N447 N 0.228500 0.093200 0.840300
N448 N 0.279700 0.086600 0.669800
N449 N 0.220300 0.586600 0.330200
N450 N 0.271500 0.593200 0.159700
N451 N 0.223500 -0.117600 0.656500
N452 N 0.723500 0.617600 0.656500
O453 O 0.757600 1.098000 0.139000
O454 O 0.626500 1.015600 0.233100
O455 O 0.126500 0.484400 0.233100
O456 O 0.395100 0.497400 0.231000
O457 O 0.895100 1.002600 0.231000
O458 O 0.104900 -0.002600 0.769000
O459 O 0.373500 -0.015600 0.766900
O460 O 0.242400 -0.098000 0.861000
O461 O 0.742400 0.598000 0.861000
O462 O 0.604900 0.502600 0.769000
O463 O 0.873500 0.515600 0.766900
O464 O 0.257600 0.402000 0.139000
Si465 Si 0.725800 1.202200 0.340000
Si466 Si 0.274200 -0.202200 0.660000
Si467 Si 0.670400 0.579200 0.574100
Si468 Si 0.225800 0.297800 0.340000
Si469 Si 0.829600 1.079200 0.425900
Si470 Si 0.170400 -0.079200 0.574100
Si471 Si 0.329600 0.420800 0.425900
Si472 Si 0.774200 0.702200 0.660000
Y473 Y 0.264590 0.480160 0.254090
Y474 Y 0.764590 1.019840 0.254090
Y475 Y 0.735410 0.519840 0.745910
Y476 Y 0.235410 -0.019840 0.745910

#END
