./KABCIB_from_POSCAR.cif_generated_by_CrystalShift
_symmetry_cell_setting triclinic
_symmetry_space_group_name_H-M 'P 1'
loop_
_symmetry_equiv_pos_site_id
_symmetry_equiv_pos_as_xyz
1 x,y,z
_cell_length_a 5.952900
_cell_length_b 18.384600
_cell_length_c 8.970400
_cell_angle_alpha 90.000000
_cell_angle_beta 90.000000
_cell_angle_gamma 90.000000
_cell_volume 981.735694
loop_
_atom_site_label
_atom_site_type_symbol
_atom_site_fract_x
_atom_site_fract_y
_atom_site_fract_z
H1 H -0.393000 0.935600 0.653000
H2 H 1.097131 1.056076 1.213654
H3 H 0.868381 1.063818 1.136609
H4 H 1.281744 1.052161 0.983988
H5 H 1.126351 1.121979 0.986388
H6 H 0.861614 1.065741 0.865352
H7 H 0.929374 1.214802 0.425875
H8 H 1.484963 1.200935 0.163984
H9 H 1.651137 1.122330 0.338261
H10 H 1.094229 1.164966 0.732114
H11 H 0.892563 1.137878 0.640131
H12 H 0.882262 1.021019 0.545549
H13 H 0.607000 0.935600 0.653000
H14 H 0.902869 0.943924 1.213654
H15 H 0.382262 0.478981 0.454451
H16 H 0.392563 0.362122 0.359869
H17 H 0.594229 0.335034 0.267886
H18 H 1.151137 0.377670 0.661739
H19 H 0.984963 0.299065 0.836016
H20 H 0.429374 0.285198 0.574125
H21 H 0.361614 0.434259 0.134648
H22 H 0.626351 0.378021 0.013612
H23 H 0.781744 0.447839 0.016012
H24 H 0.368381 0.436182 -0.136609
H25 H 0.597131 0.443924 -0.213654
H26 H 0.893000 0.435600 0.347000
H27 H 1.131619 0.936182 1.136609
H28 H 0.718256 0.947839 0.983988
H29 H 0.873649 0.878021 0.986388
H30 H 1.138386 0.934259 0.865352
H31 H 1.070626 0.785198 0.425875
H32 H 0.515037 0.799065 0.163984
H33 H 0.348863 0.877670 0.338261
H34 H 0.905771 0.835034 0.732114
H35 H 1.107437 0.862122 0.640131
H36 H 1.117738 0.978981 0.545549
H37 H 1.393000 0.064400 0.653000
H38 H 1.097131 0.056076 1.213654
H39 H 0.868381 0.063818 1.136609
H40 H 0.617738 0.521019 0.454451
H41 H 0.607437 0.637878 0.359869
H42 H 0.405771 0.664966 0.267886
H43 H -0.151137 0.622330 0.661739
H44 H 0.015037 0.700935 0.836016
H45 H 0.570626 0.714802 0.574125
H46 H 0.638386 0.565741 0.134648
H47 H 0.373649 0.621979 0.013612
H48 H 0.218256 0.552161 0.016012
H49 H 0.631619 0.563818 -0.136609
H50 H 0.402869 0.556076 -0.213654
H51 H 0.107000 0.564400 0.347000
H52 H 1.281744 0.052161 0.983988
H53 H 1.126351 0.121979 0.986388
H54 H 0.861614 0.065741 0.865352
H55 H 0.929374 0.214802 0.425875
H56 H 1.484963 0.200935 0.163984
H57 H 1.651137 0.122330 0.338261
H58 H 1.094229 0.164966 0.732114
H59 H 0.892563 0.137878 0.640131
H60 H 0.882262 0.021019 0.545549
H61 H 0.607000 -0.064400 0.653000
H62 H 0.902869 -0.056076 1.213654
H63 H 1.131619 -0.063818 1.136609
H64 H 0.718256 -0.052161 0.983988
H65 H 0.873649 -0.121979 0.986388
H66 H 0.117738 -0.021019 0.545549
H67 H 0.107437 -0.137878 0.640131
H68 H -0.094229 -0.164966 0.732114
H69 H -0.651137 -0.122330 0.338261
H70 H -0.484963 -0.200935 0.163984
H71 H 0.070626 -0.214802 0.425875
H72 H 0.138386 -0.065741 0.865352
H73 H -0.126351 -0.121979 0.986388
H74 H -0.281744 -0.052161 0.983988
H75 H 0.131619 -0.063818 1.136609
H76 H -0.097131 -0.056076 1.213654
H77 H -0.393000 -0.064400 0.653000
H78 H 1.138386 -0.065741 0.865352
H79 H 1.070626 -0.214802 0.425875
H80 H 0.515037 -0.200935 0.163984
H81 H 0.348863 -0.122330 0.338261
H82 H 0.905771 -0.164966 0.732114
H83 H 1.107437 -0.137878 0.640131
H84 H 1.117738 -0.021019 0.545549
H85 H 0.393000 1.064400 0.653000
H86 H 0.097131 1.056076 1.213654
H87 H -0.131619 1.063818 1.136609
H88 H 0.281744 1.052161 0.983988
H89 H 0.126351 1.121979 0.986388
H90 H -0.138386 1.065741 0.865352
H91 H -0.117738 0.021019 0.545549
H92 H -0.107437 0.137878 0.640131
H93 H 0.094229 0.164966 0.732114
H94 H 0.651137 0.122330 0.338261
H95 H 0.484963 0.200935 0.163984
H96 H -0.070626 0.214802 0.425875
H97 H -0.138386 0.065741 0.865352
H98 H 0.126351 0.121979 0.986388
H99 H 0.281744 0.052161 0.983988
H100 H -0.131619 0.063818 1.136609
H101 H 0.097131 0.056076 1.213654
H102 H 0.393000 0.064400 0.653000
H103 H -0.070626 1.214802 0.425875
H104 H 0.484963 1.200935 0.163984
H105 H 0.651137 1.122330 0.338261
H106 H 0.094229 1.164966 0.732114
H107 H -0.107437 1.137878 0.640131
H108 H -0.117738 1.021019 0.545549
H109 H 1.393000 1.064400 0.653000
H110 H -0.097131 0.943924 1.213654
H111 H 0.131619 0.936182 1.136609
H112 H -0.281744 0.947839 0.983988
H113 H -0.126351 0.878021 0.986388
H114 H 0.138386 0.934259 0.865352
H115 H 0.070626 0.785198 0.425875
H116 H -0.484963 0.799065 0.163984
H117 H 0.117738 0.978981 0.545549
H118 H 0.107437 0.862122 0.640131
H119 H -0.094229 0.835034 0.732114
H120 H -0.651137 0.877670 0.338261
C121 C -0.013400 0.958590 1.127290
C122 C -0.130000 0.930230 0.986770
C123 C -0.002700 0.958840 0.853000
C124 C -0.077400 0.804210 0.409140
C125 C -0.193000 0.785600 0.280480
C126 C -0.406100 0.812200 0.253350
C127 C -0.504300 0.858150 0.357030
C128 C -0.392300 0.876330 0.488160
C129 C 0.500000 0.500000 0.395350
C130 C 0.551100 0.368440 0.344990
C131 C 0.673800 0.349960 0.486400
C132 C 0.051100 1.131560 0.655010
C133 C 0.173800 1.150040 0.513600
C134 C 0.392300 1.123670 0.488160
C135 C 0.504300 1.141850 0.357030
C136 C 0.406100 1.187800 0.253350
C137 C 0.193000 1.214400 0.280480
C138 C 0.077400 1.195790 0.409140
C139 C 0.002700 1.041160 0.853000
C140 C 0.130000 1.069770 0.986770
C141 C 0.013400 1.041410 1.127290
C142 C -0.173800 0.849960 0.513600
C143 C -0.051100 0.868440 0.655010
C144 C 0.000000 1.000000 0.604650
C145 C 0.892300 0.376330 0.511840
C146 C 1.004300 0.358150 0.642970
C147 C 0.906100 0.312200 0.746650
C148 C 0.013400 0.041410 1.127290
C149 C 0.130000 0.069770 0.986770
C150 C 0.002700 0.041160 0.853000
C151 C 0.077400 0.195790 0.409140
C152 C 0.193000 0.214400 0.280480
C153 C 0.406100 0.187800 0.253350
C154 C 0.693000 0.285600 0.719520
C155 C 0.577400 0.304210 0.590860
C156 C 0.502700 0.458840 0.147000
C157 C 1.000000 0.000000 0.604650
C158 C 0.948900 -0.131560 0.655010
C159 C 0.826200 -0.150040 0.513600
C160 C 0.607700 -0.123670 0.488160
C161 C 0.495700 -0.141850 0.357030
C162 C 0.593900 -0.187800 0.253350
C163 C 0.807000 -0.214400 0.280480
C164 C 0.922600 -0.195790 0.409140
C165 C 0.997300 -0.041160 0.853000
C166 C 0.870000 -0.069770 0.986770
C167 C 0.986600 -0.041410 1.127290
C168 C 0.504300 0.141850 0.357030
C169 C 0.392300 0.123670 0.488160
C170 C 0.173800 0.150040 0.513600
C171 C 0.051100 0.131560 0.655010
C172 C 1.013400 1.041410 1.127290
C173 C 1.130000 1.069770 0.986770
C174 C 1.002700 1.041160 0.853000
C175 C -0.013400 -0.041410 1.127290
C176 C -0.130000 -0.069770 0.986770
C177 C -0.002700 -0.041160 0.853000
C178 C -0.077400 -0.195790 0.409140
C179 C -0.193000 -0.214400 0.280480
C180 C 1.077400 1.195790 0.409140
C181 C 1.193000 1.214400 0.280480
C182 C 1.406100 1.187800 0.253350
C183 C 1.051100 0.131560 0.655010
C184 C 1.173800 0.150040 0.513600
C185 C 1.392300 0.123670 0.488160
C186 C 1.504300 0.141850 0.357030
C187 C 1.406100 0.187800 0.253350
C188 C 1.193000 0.214400 0.280480
C189 C 1.077400 0.195790 0.409140
C190 C 1.002700 0.041160 0.853000
C191 C 1.130000 0.069770 0.986770
C192 C 1.013400 0.041410 1.127290
C193 C -0.406100 -0.187800 0.253350
C194 C -0.504300 -0.141850 0.357030
C195 C -0.392300 -0.123670 0.488160
C196 C -0.173800 -0.150040 0.513600
C197 C -0.051100 -0.131560 0.655010
C198 C 0.000000 0.000000 0.604650
C199 C 1.504300 1.141850 0.357030
C200 C 1.392300 1.123670 0.488160
C201 C 1.173800 1.150040 0.513600
C202 C 0.486600 0.541410 -0.127290
C203 C 0.370000 0.569770 0.013230
C204 C 0.497300 0.541160 0.147000
C205 C 1.051100 1.131560 0.655010
C206 C 0.630000 0.430230 0.013230
C207 C 0.513400 0.458590 -0.127290
C208 C 1.000000 1.000000 0.604650
C209 C 0.948900 0.868440 0.655010
C210 C 0.826200 0.849960 0.513600
C211 C 0.607700 0.876330 0.488160
C212 C 0.495700 0.858150 0.357030
C213 C 0.593900 0.812200 0.253350
C214 C 0.807000 0.785600 0.280480
C215 C 0.922600 0.804210 0.409140
C216 C 0.997300 0.958840 0.853000
C217 C 0.870000 0.930230 0.986770
C218 C 0.986600 0.958590 1.127290
C219 C 0.422600 0.695790 0.590860
C220 C 0.307000 0.714400 0.719520
C221 C 0.093900 0.687800 0.746650
C222 C -0.004300 0.641850 0.642970
C223 C 0.107700 0.623670 0.511840
C224 C 0.326200 0.650040 0.486400
C225 C 0.448900 0.631560 0.344990
N226 N 0.403970 0.556400 0.295420
N227 N 0.096030 0.056400 0.704580
N228 N 0.596030 0.443600 0.295420
N229 N 0.903970 0.943600 0.704580
N230 N 1.096030 0.056400 0.704580
N231 N -0.096030 -0.056400 0.704580
N232 N -0.096030 0.943600 0.704580
N233 N 1.096030 1.056400 0.704580
N234 N 0.096030 1.056400 0.704580
N235 N 0.903970 -0.056400 0.704580
O236 O -0.498890 -0.081350 0.589340
O237 O 0.498890 1.081350 0.589340
O238 O 0.501110 0.918650 0.589340
O239 O 1.498890 0.081350 0.589340
O240 O 0.998890 0.418650 0.410660
O241 O -0.498890 0.918650 0.589340
O242 O 0.498890 0.081350 0.589340
O243 O 0.001110 0.581350 0.410660
O244 O 1.498890 1.081350 0.589340
O245 O 0.501110 -0.081350 0.589340
Cl246 Cl 0.935470 -0.271080 0.149960
Cl247 Cl -0.064530 0.728920 0.149960
Cl248 Cl 0.064530 0.271080 0.149960
Cl249 Cl -0.064530 -0.271080 0.149960
Cl250 Cl 0.935470 0.728920 0.149960
Cl251 Cl 1.064530 1.271080 0.149960
Cl252 Cl 0.064530 1.271080 0.149960
Cl253 Cl 0.435470 0.771080 0.850040
Cl254 Cl 1.064530 0.271080 0.149960
Cl255 Cl 0.564530 0.228920 0.850040

#END
