
#######################################################################
#
#                 Cambridge Crystallographic Data Centre
#                                CCDC 
#
#######################################################################
#
# If this CIF has been generated from an entry in the Cambridge 
# Structural Database, then it will include bibliographic, chemical, 
# crystal, experimental, refinement or atomic coordinate data resulting 
# from the CCDC's data processing and validation procedures.
#
#######################################################################

data_KABDAS
_symmetry_cell_setting           monoclinic
_symmetry_space_group_name_H-M   'P 21/c'
_symmetry_Int_Tables_number      14
_space_group_name_Hall           '-P 2ybc'
loop_
_symmetry_equiv_pos_site_id
_symmetry_equiv_pos_as_xyz
1 x,y,z
2 -x,1/2+y,1/2-z
3 -x,-y,-z
4 x,1/2-y,1/2+z
_cell_length_a                   12.029(5)
_cell_length_b                   5.990(2)
_cell_length_c                   33.500(17)
_cell_angle_alpha                90
_cell_angle_beta                 108.35(3)
_cell_angle_gamma                90
_cell_volume                     2291.06
loop_
_atom_site_label
_atom_site_type_symbol
_atom_site_fract_x
_atom_site_fract_y
_atom_site_fract_z
C1 C 0.4637(5) -0.2766(10) 0.8341(2)
C2 C 0.5277(5) -0.4564(10) 0.8615(2)
C3 C 0.5837(5) -0.2272(10) 0.8656(2)
C4 C 0.6014(5) -0.0787(10) 0.9039(2)
C5 C 0.7168(5) 0.0370(10) 0.9083(2)
C6 C 0.7620(6) -0.0521(12) 0.8772(2)
C7 C 0.6868(5) -0.1931(11) 0.8530(2)
C8 C 0.4475(5) -0.2842(11) 0.7877(2)
C9 C 0.3625(5) -0.4623(12) 0.7671(2)
C10 C 0.2600(6) -0.4412(11) 0.7382(2)
C11 C 0.2000(6) -0.2364(11) 0.7187(2)
O1 O 0.2462(4) -0.0572(8) 0.7183(2)
O2 O 0.0861(4) -0.2754(7) 0.6993(1)
C12 C 0.3608(5) -0.1726(13) 0.8434(2)
C13 C 0.0023(6) -0.1072(11) 0.6767(2)
C14 C -0.1120(6) -0.2283(14) 0.6653(3)
C15 C -0.0011(8) 0.0850(14) 0.7056(3)
C16 C 0.0300(7) -0.0473(17) 0.6379(3)
N1 N 0.7680(5) 0.1919(9) 0.9347(2)
N2 N 0.7119(5) 0.2560(10) 0.9631(2)
C17 C 0.7495(5) 0.4370(9) 0.9865(2)
C18 C 0.7002(5) 0.5109(10) 1.0184(2)
C19 C 0.7362(5) 0.7066(9) 1.0403(2)
C20 C 0.8249(5) 0.8288(9) 1.0335(2)
C21 C 0.8766(5) 0.7617(10) 1.0043(2)
C22 C 0.8386(5) 0.5691(10) 0.9809(2)
N3 N 0.6110(5) 0.3837(9) 1.0283(2)
O3 O 0.5743(4) 0.2099(8) 1.0099(2)
O4 O 0.5724(5) 0.4544(9) 1.0557(2)
N4 N 0.8626(5) 1.0301(9) 1.0573(2)
O5 O 0.8107(4) 1.0968(7) 1.0807(2)
O6 O 0.9477(5) 1.1321(8) 1.0525(2)
H1 H 0.5003 -0.5123 0.8835
H2 H 0.5596 -0.5772 0.8496
H3 H 0.6062 -0.1660 0.9284
H4 H 0.5390 0.0278 0.8993
H5 H 0.8366 -0.0145 0.8742
H6 H 0.6992 -0.2665 0.8293
H7 H 0.5216 -0.3142 0.7836
H8 H 0.4184 -0.1426 0.7754
H9 H 0.3861 -0.6122 0.7759
H10 H 0.2186 -0.5779 0.7286
H11 H 0.3722 -0.1732 0.8731
H12 H 0.2919 -0.2569 0.8291
H13 H 0.3514 -0.0216 0.8333
H14 H -0.1694 -0.1196 0.6510
H15 H -0.1288 -0.2795 0.6899
H16 H -0.1145 -0.3523 0.6469
H17 H -0.0675 0.1799 0.7026
H18 H 0.0614 0.1709 0.7013
H19 H 0.0243 0.0222 0.7334
H20 H -0.0353 0.0502 0.6259
H21 H 0.0337 -0.1572 0.6175
H22 H 0.1011 0.0382 0.6461
H23 H 0.6994 0.7571 1.0603
H24 H 0.9393 0.8481 1.0002
H25 H 0.8748 0.5260 0.9602
H26 H 0.6540(66) 0.1547(98) 0.9612(26)
C1 C 0.5363(5) 0.2234(10) 0.6659(2)
C2 C 0.4723(5) 0.0436(10) 0.6385(2)
C3 C 0.4163(5) 0.2728(10) 0.6344(2)
C4 C 0.3986(5) 0.4213(10) 0.5961(2)
C5 C 0.2832(5) 0.5370(10) 0.5917(2)
C6 C 0.2380(6) 0.4479(12) 0.6228(2)
C7 C 0.3132(5) 0.3069(11) 0.6470(2)
C8 C 0.5525(5) 0.2158(11) 0.7123(2)
C9 C 0.6375(5) 0.0377(12) 0.7329(2)
C10 C 0.7400(6) 0.0588(11) 0.7618(2)
C11 C 0.8000(6) 0.2636(11) 0.7813(2)
O1 O 0.7538(4) 0.4428(8) 0.7817(2)
O2 O 0.9139(4) 0.2246(7) 0.8007(1)
C12 C 0.6392(5) 0.3274(13) 0.6566(2)
C13 C 0.9977(6) 0.3928(11) 0.8233(2)
C14 C 1.1120(6) 0.2717(14) 0.8347(3)
C15 C 1.0011(8) 0.5850(14) 0.7944(3)
C16 C 0.9700(7) 0.4527(17) 0.8621(3)
N1 N 0.2320(5) 0.6919(9) 0.5653(2)
N2 N 0.2881(5) 0.7560(10) 0.5369(2)
C17 C 0.2505(5) 0.9370(9) 0.5135(2)
C18 C 0.2998(5) 1.0109(10) 0.4816(2)
C19 C 0.2638(5) 1.2066(9) 0.4597(2)
C20 C 0.1751(5) 1.3288(9) 0.4665(2)
C21 C 0.1234(5) 1.2617(10) 0.4957(2)
C22 C 0.1614(5) 1.0691(10) 0.5191(2)
N3 N 0.3890(5) 0.8837(9) 0.4717(2)
O3 O 0.4257(4) 0.7099(8) 0.4901(2)
O4 O 0.4276(5) 0.9544(9) 0.4443(2)
N4 N 0.1374(5) 1.5301(9) 0.4427(2)
O5 O 0.1893(4) 1.5968(7) 0.4193(2)
O6 O 0.0523(5) 1.6321(8) 0.4475(2)
H1 H 0.4997 -0.0123 0.6165
H2 H 0.4404 -0.0772 0.6504
H3 H 0.3938 0.3340 0.5716
H4 H 0.4610 0.5278 0.6007
H5 H 0.1634 0.4855 0.6258
H6 H 0.3008 0.2335 0.6707
H7 H 0.4784 0.1858 0.7164
H8 H 0.5816 0.3574 0.7246
H9 H 0.6139 -0.1122 0.7241
H10 H 0.7814 -0.0779 0.7714
H11 H 0.6278 0.3268 0.6269
H12 H 0.7081 0.2431 0.6709
H13 H 0.6486 0.4784 0.6667
H14 H 1.1694 0.3804 0.8490
H15 H 1.1288 0.2205 0.8101
H16 H 1.1145 0.1477 0.8531
H17 H 1.0675 0.6799 0.7974
H18 H 0.9386 0.6709 0.7987
H19 H 0.9757 0.5222 0.7666
H20 H 1.0353 0.5502 0.8741
H21 H 0.9663 0.3428 0.8825
H22 H 0.8989 0.5382 0.8539
H23 H 0.3006 1.2571 0.4397
H24 H 0.0607 1.3481 0.4998
H25 H 0.1252 1.0260 0.5398
H26 H 0.3460(66) 0.6547(98) 0.5388(26)
C1 C 0.5363(5) 1.2766(10) 0.1659(2)
C2 C 0.4723(5) 1.4564(10) 0.1385(2)
C3 C 0.4163(5) 1.2272(10) 0.1344(2)
C4 C 0.3986(5) 1.0787(10) 0.0961(2)
C5 C 0.2832(5) 0.9630(10) 0.0917(2)
C6 C 0.2380(6) 1.0521(12) 0.1228(2)
C7 C 0.3132(5) 1.1931(11) 0.1470(2)
C8 C 0.5525(5) 1.2842(11) 0.2123(2)
C9 C 0.6375(5) 1.4623(12) 0.2329(2)
C10 C 0.7400(6) 1.4412(11) 0.2618(2)
C11 C 0.8000(6) 1.2364(11) 0.2813(2)
O1 O 0.7538(4) 1.0572(8) 0.2817(2)
O2 O 0.9139(4) 1.2754(7) 0.3007(1)
C12 C 0.6392(5) 1.1726(13) 0.1566(2)
C13 C 0.9977(6) 1.1072(11) 0.3233(2)
C14 C 1.1120(6) 1.2283(14) 0.3347(3)
C15 C 1.0011(8) 0.9150(14) 0.2944(3)
C16 C 0.9700(7) 1.0473(17) 0.3621(3)
N1 N 0.2320(5) 0.8081(9) 0.0653(2)
N2 N 0.2881(5) 0.7440(10) 0.0369(2)
C17 C 0.2505(5) 0.5630(9) 0.0135(2)
C18 C 0.2998(5) 0.4891(10) -0.0184(2)
C19 C 0.2638(5) 0.2934(9) -0.0403(2)
C20 C 0.1751(5) 0.1712(9) -0.0335(2)
C21 C 0.1234(5) 0.2383(10) -0.0043(2)
C22 C 0.1614(5) 0.4309(10) 0.0191(2)
N3 N 0.3890(5) 0.6163(9) -0.0283(2)
O3 O 0.4257(4) 0.7901(8) -0.0099(2)
O4 O 0.4276(5) 0.5456(9) -0.0557(2)
N4 N 0.1374(5) -0.0301(9) -0.0573(2)
O5 O 0.1893(4) -0.0968(7) -0.0807(2)
O6 O 0.0523(5) -0.1321(8) -0.0525(2)
H1 H 0.4997 1.5123 0.1165
H2 H 0.4404 1.5772 0.1504
H3 H 0.3938 1.1660 0.0716
H4 H 0.4610 0.9722 0.1007
H5 H 0.1634 1.0145 0.1258
H6 H 0.3008 1.2665 0.1707
H7 H 0.4784 1.3142 0.2164
H8 H 0.5816 1.1426 0.2246
H9 H 0.6139 1.6122 0.2241
H10 H 0.7814 1.5779 0.2714
H11 H 0.6278 1.1732 0.1269
H12 H 0.7081 1.2569 0.1709
H13 H 0.6486 1.0216 0.1667
H14 H 1.1694 1.1196 0.3490
H15 H 1.1288 1.2795 0.3101
H16 H 1.1145 1.3523 0.3531
H17 H 1.0675 0.8201 0.2974
H18 H 0.9386 0.8291 0.2987
H19 H 0.9757 0.9778 0.2666
H20 H 1.0353 0.9498 0.3741
H21 H 0.9663 1.1572 0.3825
H22 H 0.8989 0.9618 0.3539
H23 H 0.3006 0.2429 -0.0603
H24 H 0.0607 0.1519 -0.0002
H25 H 0.1252 0.4740 0.0398
H26 H 0.3460(66) 0.8453(98) 0.0388(26)
C1 C 0.4637(5) 0.7766(10) 0.3341(2)
C2 C 0.5277(5) 0.9564(10) 0.3615(2)
C3 C 0.5837(5) 0.7272(10) 0.3656(2)
C4 C 0.6014(5) 0.5787(10) 0.4039(2)
C5 C 0.7168(5) 0.4630(10) 0.4083(2)
C6 C 0.7620(6) 0.5521(12) 0.3772(2)
C7 C 0.6868(5) 0.6931(11) 0.3530(2)
C8 C 0.4475(5) 0.7842(11) 0.2877(2)
C9 C 0.3625(5) 0.9623(12) 0.2671(2)
C10 C 0.2600(6) 0.9412(11) 0.2382(2)
C11 C 0.2000(6) 0.7364(11) 0.2187(2)
O1 O 0.2462(4) 0.5572(8) 0.2183(2)
O2 O 0.0861(4) 0.7754(7) 0.1993(1)
C12 C 0.3608(5) 0.6726(13) 0.3434(2)
C13 C 0.0023(6) 0.6072(11) 0.1767(2)
C14 C -0.1120(6) 0.7283(14) 0.1653(3)
C15 C -0.0011(8) 0.4150(14) 0.2056(3)
C16 C 0.0300(7) 0.5473(17) 0.1379(3)
N1 N 0.7680(5) 0.3081(9) 0.4347(2)
N2 N 0.7119(5) 0.2440(10) 0.4631(2)
C17 C 0.7495(5) 0.0630(9) 0.4865(2)
C18 C 0.7002(5) -0.0109(10) 0.5184(2)
C19 C 0.7362(5) -0.2066(9) 0.5403(2)
C20 C 0.8249(5) -0.3288(9) 0.5335(2)
C21 C 0.8766(5) -0.2617(10) 0.5043(2)
C22 C 0.8386(5) -0.0691(10) 0.4809(2)
N3 N 0.6110(5) 0.1163(9) 0.5283(2)
O3 O 0.5743(4) 0.2901(8) 0.5099(2)
O4 O 0.5724(5) 0.0456(9) 0.5557(2)
N4 N 0.8626(5) -0.5301(9) 0.5573(2)
O5 O 0.8107(4) -0.5968(7) 0.5807(2)
O6 O 0.9477(5) -0.6321(8) 0.5525(2)
H1 H 0.5003 1.0123 0.3835
H2 H 0.5596 1.0772 0.3496
H3 H 0.6062 0.6660 0.4284
H4 H 0.5390 0.4722 0.3993
H5 H 0.8366 0.5145 0.3742
H6 H 0.6992 0.7665 0.3293
H7 H 0.5216 0.8142 0.2836
H8 H 0.4184 0.6426 0.2754
H9 H 0.3861 1.1122 0.2759
H10 H 0.2186 1.0779 0.2286
H11 H 0.3722 0.6732 0.3731
H12 H 0.2919 0.7569 0.3291
H13 H 0.3514 0.5216 0.3333
H14 H -0.1694 0.6196 0.1510
H15 H -0.1288 0.7795 0.1899
H16 H -0.1145 0.8523 0.1469
H17 H -0.0675 0.3201 0.2026
H18 H 0.0614 0.3291 0.2013
H19 H 0.0243 0.4778 0.2334
H20 H -0.0353 0.4498 0.1259
H21 H 0.0337 0.6572 0.1175
H22 H 0.1011 0.4618 0.1461
H23 H 0.6994 -0.2571 0.5603
H24 H 0.9393 -0.3481 0.5002
H25 H 0.8748 -0.0260 0.4602
H26 H 0.6540(66) 0.3453(98) 0.4612(26)

#END
