
#######################################################################
#
#                 Cambridge Crystallographic Data Centre
#                                CCDC 
#
#######################################################################
#
# If this CIF has been generated from an entry in the Cambridge 
# Structural Database, then it will include bibliographic, chemical, 
# crystal, experimental, refinement or atomic coordinate data resulting 
# from the CCDC's data processing and validation procedures.
#
#######################################################################

data_KABDAU
_symmetry_cell_setting           monoclinic
_symmetry_space_group_name_H-M   'P 21/c'
_symmetry_Int_Tables_number      14
_space_group_name_Hall           '-P 2ybc'
loop_
_symmetry_equiv_pos_site_id
_symmetry_equiv_pos_as_xyz
1 x,y,z
2 -x,1/2+y,1/2-z
3 -x,-y,-z
4 x,1/2-y,1/2+z
_cell_length_a                   7.8541(13)
_cell_length_b                   10.6791(17)
_cell_length_c                   13.032(2)
_cell_angle_alpha                90
_cell_angle_beta                 93.904(2)
_cell_angle_gamma                90
_cell_volume                     1090.52
loop_
_atom_site_label
_atom_site_type_symbol
_atom_site_fract_x
_atom_site_fract_y
_atom_site_fract_z
O1 O 0.7469(2) 0.70762(17) 0.58597(12)
H1 H 0.8599 0.7118 0.5945
O2 O 0.4144(3) 0.4116(2) 0.66132(15)
O3 O 0.2449(3) 0.4469(2) 0.78337(19)
N1 N 0.6726(2) 0.55501(15) 0.76908(12)
N2 N 0.6393(3) 0.64689(18) 0.91461(14)
H2 H 0.6580 0.6952 0.9643
N3 N 0.3813(3) 0.45742(19) 0.74353(16)
C1 C 0.7048(3) 0.5773(2) 0.58035(16)
H3 H 0.7611 0.5397 0.5240
H4 H 0.5827 0.5686 0.5656
C2 C 0.7567(3) 0.5070(2) 0.67880(16)
H5 H 0.7283 0.4191 0.6694
H6 H 0.8794 0.5131 0.6922
C3 C 0.7495(3) 0.6272(2) 0.84260(15)
C4 C 0.4896(3) 0.5882(2) 0.88970(17)
H7 H 0.3928 0.5879 0.9270
C5 C 0.5098(3) 0.53022(19) 0.79949(16)
C6 C 0.9254(3) 0.6762(3) 0.8466(2)
H8 H 0.9791 0.6507 0.7860
H9 H 0.9887 0.6439 0.9065
H10 H 0.9228 0.7660 0.8500
O1 O 0.2531(2) 0.20762(17) 0.91403(12)
H1 H 0.1401 0.2118 0.9055
O2 O 0.5856(3) -0.0884(2) 0.83868(15)
O3 O 0.7551(3) -0.0531(2) 0.71663(19)
N1 N 0.3274(2) 0.05501(15) 0.73092(12)
N2 N 0.3607(3) 0.14689(18) 0.58539(14)
H2 H 0.3420 0.1952 0.5357
N3 N 0.6187(3) -0.04258(19) 0.75647(16)
C1 C 0.2952(3) 0.0773(2) 0.91965(16)
H3 H 0.2389 0.0397 0.9760
H4 H 0.4173 0.0686 0.9344
C2 C 0.2433(3) 0.0070(2) 0.82120(16)
H5 H 0.2717 -0.0809 0.8306
H6 H 0.1206 0.0131 0.8078
C3 C 0.2505(3) 0.1272(2) 0.65740(15)
C4 C 0.5104(3) 0.0882(2) 0.61030(17)
H7 H 0.6072 0.0879 0.5730
C5 C 0.4902(3) 0.03022(19) 0.70051(16)
C6 C 0.0746(3) 0.1762(3) 0.6534(2)
H8 H 0.0209 0.1507 0.7140
H9 H 0.0113 0.1439 0.5935
H10 H 0.0772 0.2660 0.6500
O1 O 0.2531(2) 0.29238(17) 0.41403(12)
H1 H 0.1401 0.2882 0.4055
O2 O 0.5856(3) 0.5884(2) 0.33868(15)
O3 O 0.7551(3) 0.5531(2) 0.21663(19)
N1 N 0.3274(2) 0.44499(15) 0.23092(12)
N2 N 0.3607(3) 0.35311(18) 0.08539(14)
H2 H 0.3420 0.3048 0.0357
N3 N 0.6187(3) 0.54258(19) 0.25647(16)
C1 C 0.2952(3) 0.4227(2) 0.41965(16)
H3 H 0.2389 0.4603 0.4760
H4 H 0.4173 0.4314 0.4344
C2 C 0.2433(3) 0.4930(2) 0.32120(16)
H5 H 0.2717 0.5809 0.3306
H6 H 0.1206 0.4869 0.3078
C3 C 0.2505(3) 0.3728(2) 0.15740(15)
C4 C 0.5104(3) 0.4118(2) 0.11030(17)
H7 H 0.6072 0.4121 0.0730
C5 C 0.4902(3) 0.46978(19) 0.20051(16)
C6 C 0.0746(3) 0.3238(3) 0.1534(2)
H8 H 0.0209 0.3493 0.2140
H9 H 0.0113 0.3561 0.0935
H10 H 0.0772 0.2340 0.1500
O1 O 0.7469(2) 0.79238(17) 0.08597(12)
H1 H 0.8599 0.7882 0.0945
O2 O 0.4144(3) 1.0884(2) 0.16132(15)
O3 O 0.2449(3) 1.0531(2) 0.28337(19)
N1 N 0.6726(2) 0.94499(15) 0.26908(12)
N2 N 0.6393(3) 0.85311(18) 0.41461(14)
H2 H 0.6580 0.8048 0.4643
N3 N 0.3813(3) 1.04258(19) 0.24353(16)
C1 C 0.7048(3) 0.9227(2) 0.08035(16)
H3 H 0.7611 0.9603 0.0240
H4 H 0.5827 0.9314 0.0656
C2 C 0.7567(3) 0.9930(2) 0.17880(16)
H5 H 0.7283 1.0809 0.1694
H6 H 0.8794 0.9869 0.1922
C3 C 0.7495(3) 0.8728(2) 0.34260(15)
C4 C 0.4896(3) 0.9118(2) 0.38970(17)
H7 H 0.3928 0.9121 0.4270
C5 C 0.5098(3) 0.96978(19) 0.29949(16)
C6 C 0.9254(3) 0.8238(3) 0.3466(2)
H8 H 0.9791 0.8493 0.2860
H9 H 0.9887 0.8561 0.4065
H10 H 0.9228 0.7340 0.3500
Cl1 Cl 0.22616(7) 0.74741(5) 0.59693(4)
O4 O 0.3343(4) 0.7477(2) 0.6879(2)
O5 O 0.1033(4) 0.6500(3) 0.5984(3)
O6 O 0.3237(5) 0.7180(3) 0.5116(2)
O7 O 0.1515(5) 0.8663(3) 0.5795(2)
Cl1 Cl 0.77384(7) 0.24741(5) 0.90307(4)
O4 O 0.6657(4) 0.2477(2) 0.8121(2)
O5 O 0.8967(4) 0.1500(3) 0.9016(3)
O6 O 0.6763(5) 0.2180(3) 0.9884(2)
O7 O 0.8485(5) 0.3663(3) 0.9205(2)
Cl1 Cl 0.77384(7) 0.25259(5) 0.40307(4)
O4 O 0.6657(4) 0.2523(2) 0.3121(2)
O5 O 0.8967(4) 0.3500(3) 0.4016(3)
O6 O 0.6763(5) 0.2820(3) 0.4884(2)
O7 O 0.8485(5) 0.1337(3) 0.4205(2)
Cl1 Cl 0.22616(7) 0.75259(5) 0.09693(4)
O4 O 0.3343(4) 0.7523(2) 0.1879(2)
O5 O 0.1033(4) 0.8500(3) 0.0984(3)
O6 O 0.3237(5) 0.7820(3) 0.0116(2)
O7 O 0.1515(5) 0.6337(3) 0.0795(2)

#END
