./KABFEB_from_POSCAR.cif_generated_by_CrystalShift
_symmetry_cell_setting triclinic
_symmetry_space_group_name_H-M 'P 1'
loop_
_symmetry_equiv_pos_site_id
_symmetry_equiv_pos_as_xyz
1 x,y,z
_cell_length_a 6.208110
_cell_length_b 11.629700
_cell_length_c 29.900700
_cell_angle_alpha 90.000000
_cell_angle_beta 90.000000
_cell_angle_gamma 90.000000
_cell_volume 2158.784399
loop_
_atom_site_label
_atom_site_type_symbol
_atom_site_fract_x
_atom_site_fract_y
_atom_site_fract_z
H1 H 0.379000 0.220900 0.163700
H2 H 0.327400 0.278900 0.651900
H3 H 0.467400 0.738200 0.994300
H4 H 0.551300 -0.003600 1.033600
H5 H 0.643900 0.573600 0.982200
H6 H 0.622100 0.100900 1.063300
H7 H 0.470900 0.490600 0.912600
H8 H 0.716400 0.520700 0.908400
H9 H 0.444800 0.117300 1.026500
H10 H 0.955700 0.155000 0.934900
H11 H 0.564700 0.519500 0.827200
H12 H 0.967500 0.020800 0.938900
H13 H 0.278600 0.425400 0.850700
H14 H 0.153700 0.537900 0.864500
H15 H 0.604500 0.008800 0.955300
H16 H 0.075200 0.423100 0.789000
H17 H -0.006100 0.549900 0.797600
H18 H 0.384200 0.171200 0.957300
H19 H 0.386700 0.482800 0.758100
H20 H 0.578600 0.250600 0.943900
H21 H 0.395600 0.080600 0.887500
H22 H 0.691800 0.726700 0.773800
H23 H 0.700200 0.597500 0.758900
H24 H 0.367600 0.213100 0.880500
H25 H 0.680500 0.709700 0.694700
H26 H 0.478500 0.775100 0.713000
H27 H 1.036100 -0.051800 0.869800
H28 H 0.485600 0.545000 0.683300
H29 H 1.061100 -0.021300 0.792400
H30 H 0.110400 0.647200 0.719700
H31 H 0.845600 -0.089100 0.799400
H32 H 0.154400 0.410900 0.700600
H33 H -0.061100 0.478700 0.707600
H34 H 0.889600 0.147200 0.780300
H35 H -0.036100 0.448200 0.630200
H36 H 0.514400 0.045000 0.816700
H37 H 0.521500 0.275100 0.787000
H38 H 0.319500 0.209700 0.805300
H39 H 0.632400 0.713100 0.619500
H40 H 0.604400 0.580600 0.612500
H41 H 0.299800 0.097500 0.741100
H42 H 0.421400 0.750600 0.556100
H43 H 0.615800 0.671200 0.542700
H44 H 0.308200 0.226700 0.726200
H45 H 0.395500 0.508800 0.544700
H46 H 0.613300 -0.017200 0.741900
H47 H 0.032500 0.520800 0.561100
H48 H 0.044300 0.655000 0.565100
H49 H 1.006100 0.049900 0.702400
H50 H 0.555200 0.617300 0.473500
H51 H 0.377900 0.600900 0.436700
H52 H 0.448700 0.496400 0.466400
H53 H 0.924800 -0.076900 0.711000
H54 H 0.672600 0.778900 0.848100
H55 H 0.831200 0.676200 0.856500
H56 H 0.755300 0.752900 0.896600
H57 H 0.846300 0.037900 0.635500
H58 H 0.232900 0.778800 0.765900
H59 H 0.356100 0.805800 0.810500
H60 H 0.146100 0.731100 0.811500
H61 H 0.721400 -0.074600 0.649300
H62 H 0.121000 0.779100 0.663700
H63 H 0.171500 0.794300 0.612700
H64 H 0.341500 0.832000 0.648600
H65 H 0.658500 0.332000 0.851400
H66 H 0.828500 0.294300 0.887300
H67 H 0.879000 0.279100 0.836300
H68 H 0.435300 0.019500 0.672800
H69 H 0.283600 0.020700 0.591600
H70 H 0.032600 0.261800 0.494300
H71 H 0.529100 -0.009400 0.587400
H72 H -0.143900 0.426400 0.482200
H73 H 0.356100 0.073600 0.517800
H74 H 0.029100 0.509400 0.412600
H75 H -0.216400 0.479300 0.408400
H76 H 0.532600 0.238200 0.505700
H77 H 0.244700 0.252900 0.603400
H78 H -0.064700 0.480500 0.327200
H79 H 0.767100 0.278800 0.734100
H80 H 0.221400 0.574600 0.350700
H81 H 0.346300 0.462100 0.364500
H82 H 0.841500 0.668000 0.351400
H83 H 0.424800 0.576900 0.289000
H84 H 0.506100 0.450100 0.297600
H85 H 0.671500 0.705700 0.387300
H86 H 0.113300 0.517200 0.258100
H87 H 0.621000 0.720900 0.336300
H88 H 0.646100 0.768900 0.188500
H89 H -0.191800 0.273300 0.273800
H90 H -0.200200 0.402500 0.258900
H91 H 0.856100 0.694200 0.189500
H92 H -0.180500 0.290300 0.194700
H93 H 0.021500 0.224900 0.213000
H94 H 0.732900 0.721200 0.234100
H95 H 0.014400 0.455000 0.183300
H96 H 1.255300 0.747100 0.103400
H97 H 0.389600 0.352800 0.219700
H98 H 1.331200 0.823800 0.143500
H99 H 0.345600 0.589100 0.200600
H100 H 0.561100 0.521300 0.207600
H101 H 1.172600 0.721100 0.151900
H102 H 0.536100 0.551800 0.130200
H103 H 0.948700 1.003600 0.533600
H104 H 0.877900 0.899100 0.563300
H105 H 1.055200 0.882700 0.526500
H106 H -0.132400 0.286900 0.119500
H107 H -0.104400 0.419400 0.112500
H108 H 0.544300 0.845000 0.434900
H109 H 0.078600 0.249400 0.056100
H110 H -0.115800 0.328800 0.042700
H111 H 0.532500 0.979200 0.438900
H112 H 0.104500 0.491200 0.044700
H113 H 0.895500 0.991200 0.455300
H114 H 0.467500 0.479200 0.061100
H115 H 0.455700 0.345000 0.065100
H116 H 1.115800 0.828800 0.457300
H117 H -0.055200 0.382700 -0.026500
H118 H 0.122100 0.399100 -0.063300
H119 H 0.051300 0.503600 -0.033600
H120 H 0.921400 0.749400 0.443900
H121 H -0.172600 0.221100 0.348100
H122 H -0.331200 0.323800 0.356500
H123 H -0.255300 0.247100 0.396600
H124 H 1.104400 0.919400 0.387500
H125 H 0.267100 0.221200 0.265900
H126 H 0.143900 0.194200 0.310500
H127 H 0.353900 0.268900 0.311500
H128 H 1.132400 0.786900 0.380500
H129 H 0.168800 0.176200 0.643500
H130 H 0.328500 0.205700 0.112700
H131 H 0.158500 0.168000 0.148600
H132 H 0.463900 1.051800 0.369800
H133 H 0.853900 0.231100 0.688500
H134 H 0.643900 0.305800 0.689500
H135 H 0.438900 1.021300 0.292400
H136 H 0.654400 1.089100 0.299400
H137 H 0.967400 0.761800 0.005700
H138 H 0.610400 0.852800 0.280300
H139 H 1.143900 0.926400 0.017800
H140 H 0.985600 0.955000 0.316700
H141 H 0.970900 1.009400 0.087400
H142 H 1.216400 0.979300 0.091600
H143 H 0.978500 0.724900 0.287000
H144 H 1.180500 0.790300 0.305300
H145 H 1.064700 0.980500 0.172800
H146 H 1.200200 0.902500 0.241100
H147 H 0.778600 1.074600 0.149300
H148 H 0.653700 0.962100 0.135500
H149 H 1.191800 0.773300 0.226200
H150 H 0.575200 1.076900 0.211000
H151 H 0.493900 0.950100 0.202400
H152 H 0.886700 1.017200 0.241900
C153 C 0.784100 0.954340 0.237120
C154 C 0.909100 0.860160 0.211460
C155 C 1.109600 0.834600 0.240090
C156 C 0.620000 0.999400 0.203460
C157 C 0.741900 0.997100 0.158540
C158 C 1.049300 0.799180 0.288010
C159 C 0.950500 0.924660 0.166470
C160 C 1.022300 0.860690 0.123790
C161 C 0.900700 0.884850 0.312420
C162 C 1.074500 0.946990 0.086480
C163 C 0.706000 0.919410 0.283330
C164 C 1.069100 0.892200 0.041210
C165 C 0.581500 1.017050 0.305540
C166 C 0.960100 0.796200 0.033780
C167 C 0.828000 0.742700 0.068860
C168 C 0.559400 1.003240 0.355020
C169 C 0.767800 0.276640 0.858620
C170 C 0.665900 0.926800 0.379570
C171 C 0.832300 0.844490 0.359820
C172 C 1.032900 0.845700 0.390580
C173 C 0.267800 0.223360 0.141380
C174 C 0.226700 0.250870 0.294690
C175 C 0.983400 0.825300 0.440090
C176 C -0.212900 0.280800 0.368670
C177 C 0.075900 0.422100 -0.033970
C178 C 0.827400 0.915300 0.457070
C179 C 0.377200 0.415700 0.070620
C180 C 0.622800 0.915700 0.429380
C181 C 0.172600 0.415300 0.042930
C182 C 0.016600 0.325300 0.059910
C183 C 0.924100 0.922100 0.533970
C184 C -0.032900 0.345700 0.109420
C185 C 0.167700 0.344490 0.140180
C186 C 0.334100 0.426800 0.120430
C187 C 1.212900 0.780800 0.131330
C188 C 0.440600 0.503240 0.144980
C189 C 0.418500 0.517050 0.194460
C190 C 0.294000 0.419410 0.216670
C191 C 0.773300 0.750870 0.205310
C192 C 0.099300 0.384850 0.187580
C193 C -0.049300 0.299180 0.211990
C194 C -0.109600 0.334600 0.259910
C195 C 0.732200 0.723360 0.358620
C196 C 0.090900 0.360160 0.288540
C197 C 0.215900 0.454340 0.262880
C198 C 0.380000 0.499400 0.296540
C199 C 0.258100 0.497100 0.341460
C200 C 0.726700 0.249130 0.705310
C201 C 0.049500 0.424660 0.333530
C202 C 0.672000 0.257300 0.568860
C203 C 0.539900 0.203800 0.533780
C204 C -0.022300 0.360690 0.376210
C205 C 0.430900 0.107800 0.541210
C206 C -0.074500 0.446990 0.413520
C207 C 0.425500 0.053010 0.586480
C208 C -0.069100 0.392200 0.458790
C209 C 0.039900 0.296200 0.466220
C210 C 0.477700 0.139310 0.623790
C211 C 0.549500 0.075340 0.666470
C212 C 0.172000 0.242700 0.431140
C213 C 0.758100 0.002900 0.658540
C214 C 0.232200 0.776640 0.641380
C215 C 0.273300 0.749130 0.794690
C216 C 0.880000 0.000600 0.703460
C217 C 0.712900 0.719200 0.868670
C218 C 0.424100 0.577900 0.466030
C219 C 0.715900 0.045660 0.737120
C220 C 0.122800 0.584300 0.570620
C221 C 0.590900 0.139840 0.711460
C222 C 0.390400 0.165400 0.740090
C223 C 0.327400 0.584700 0.542930
C224 C 0.483400 0.674700 0.559910
C225 C 0.450700 0.200820 0.788010
C226 C 0.532900 0.654300 0.609420
C227 C 0.332300 0.655510 0.640180
C228 C 0.599300 0.115150 0.812420
C229 C 0.165900 0.573200 0.620430
C230 C 0.794000 0.080590 0.783330
C231 C 0.059400 0.496760 0.644980
C232 C 0.918500 -0.017050 0.805540
C233 C 0.081500 0.482950 0.694460
C234 C 0.206000 0.580590 0.716670
C235 C 0.940600 -0.003240 0.855020
C236 C 0.400700 0.615150 0.687580
C237 C 0.834100 0.073200 0.879570
C238 C 0.667700 0.155510 0.859820
C239 C 0.467100 0.154300 0.890580
C240 C 0.549300 0.700820 0.711990
C241 C 0.609600 0.665400 0.759910
C242 C 0.516600 0.174700 0.940090
C243 C 0.409100 0.639840 0.788540
C244 C 0.284100 0.545660 0.762880
C245 C 0.672600 0.084700 0.957070
C246 C 0.120000 0.500600 0.796540
C247 C 0.877200 0.084300 0.929380
C248 C 0.241900 0.502900 0.841460
C249 C 0.450500 0.575340 0.833530
C250 C 0.575900 0.077900 1.033970
C251 C 0.522300 0.639310 0.876210
C252 C 0.574500 0.553010 0.913520
C253 C 0.569100 0.607800 0.958790
C254 C 0.287100 0.219200 0.631330
C255 C 0.460100 0.703800 0.966220
C256 C 0.328000 0.757300 0.931140
O257 O 0.763100 0.893840 0.502420
O258 O 0.837500 0.788690 0.110400
O259 O 0.701100 0.666780 0.062030
O260 O 0.236900 0.393840 -0.002420
O261 O 0.162500 0.288690 0.389600
O262 O 0.298900 0.166780 0.437970
O263 O 0.263100 0.606160 0.497580
O264 O 0.337500 0.711310 0.889600
O265 O 0.201100 0.833220 0.937970
O266 O 0.798900 0.333220 0.562030
O267 O 0.662500 0.211310 0.610400
O268 O 0.736900 0.106160 1.002420

#END
