
#######################################################################
#
#                 Cambridge Crystallographic Data Centre
#                                CCDC 
#
#######################################################################
#
# If this CIF has been generated from an entry in the Cambridge 
# Structural Database, then it will include bibliographic, chemical, 
# crystal, experimental, refinement or atomic coordinate data resulting 
# from the CCDC's data processing and validation procedures.
#
#######################################################################

data_KABGUS
_symmetry_cell_setting           monoclinic
_symmetry_space_group_name_H-M   'P 21/c'
_symmetry_Int_Tables_number      14
_space_group_name_Hall           '-P 2ybc'
loop_
_symmetry_equiv_pos_site_id
_symmetry_equiv_pos_as_xyz
1 x,y,z
2 -x,1/2+y,1/2-z
3 -x,-y,-z
4 x,1/2-y,1/2+z
_cell_length_a                   7.1555(7)
_cell_length_b                   10.2325(9)
_cell_length_c                   16.1111(18)
_cell_angle_alpha                90
_cell_angle_beta                 90.000(3)
_cell_angle_gamma                90
_cell_volume                     1179.63
loop_
_atom_site_label
_atom_site_type_symbol
_atom_site_fract_x
_atom_site_fract_y
_atom_site_fract_z
N1 N 0.2500(3) -0.04273(18) 0.02630(14)
C1 C 0.2502(4) 0.3624(2) 0.11004(15)
N2 N 0.2498(4) 0.3520(2) -0.19135(15)
C2 C 0.0741(4) 0.3924(3) 0.15796(17)
H1 H -0.0329 0.3732 0.1241
H2 H 0.0728 0.4832 0.1729
H3 H 0.0703 0.3400 0.2073
C3 C 0.4254(4) 0.3923(3) 0.15804(17)
H4 H 0.5326 0.3729 0.1244
H5 H 0.4287 0.3400 0.2075
H6 H 0.4267 0.4832 0.1729
C4 C 0.2501(4) 0.3180(2) -0.03411(15)
C5 C 0.2499(4) -0.0561(3) 0.11376(18)
H7 H 0.2498 0.0202 0.1451
C6 C 0.2504(4) -0.1006(3) -0.10623(19)
H8 H 0.2509 -0.1513 -0.1541
C7 C 0.2500(4) 0.0346(2) -0.10267(17)
H9 H 0.2497 0.0907 -0.1481
C8 C 0.2501(4) 0.3345(2) -0.12139(19)
C9 C 0.2501(5) -0.1648(3) 0.1533(2)
H10 H 0.2503 -0.2433 0.1242
H11 H 0.2500 -0.1651 0.2110
C10 C 0.2500(3) 0.0719(2) -0.02110(15)
O1 O 0.2497(3) 0.22158(14) 0.09180(10)
C11 C 0.2502(3) 0.2029(2) 0.00997(15)
O2 O 0.2498(3) 0.54193(16) 0.01168(11)
C12 C 0.2499(4) -0.1454(2) -0.02719(19)
H12 H 0.2497 -0.2330 -0.0118
C13 C 0.2503(4) 0.4238(2) 0.02450(16)
N1 N 0.7500(3) 0.45727(18) 0.47370(14)
C1 C 0.7498(4) 0.8624(2) 0.38996(15)
N2 N 0.7502(4) 0.8520(2) 0.69135(15)
C2 C 0.9259(4) 0.8924(3) 0.34204(17)
H1 H 1.0329 0.8732 0.3759
H2 H 0.9272 0.9832 0.3271
H3 H 0.9297 0.8400 0.2927
C3 C 0.5746(4) 0.8923(3) 0.34196(17)
H4 H 0.4674 0.8729 0.3756
H5 H 0.5713 0.8400 0.2925
H6 H 0.5733 0.9832 0.3271
C4 C 0.7499(4) 0.8180(2) 0.53411(15)
C5 C 0.7501(4) 0.4439(3) 0.38624(18)
H7 H 0.7502 0.5202 0.3549
C6 C 0.7496(4) 0.3994(3) 0.60623(19)
H8 H 0.7491 0.3487 0.6541
C7 C 0.7500(4) 0.5346(2) 0.60267(17)
H9 H 0.7503 0.5907 0.6481
C8 C 0.7499(4) 0.8345(2) 0.62139(19)
C9 C 0.7499(5) 0.3352(3) 0.3467(2)
H10 H 0.7497 0.2567 0.3758
H11 H 0.7500 0.3349 0.2890
C10 C 0.7500(3) 0.5719(2) 0.52110(15)
O1 O 0.7503(3) 0.72158(14) 0.40820(10)
C11 C 0.7498(3) 0.7029(2) 0.49003(15)
O2 O 0.7502(3) 1.04193(16) 0.48832(11)
C12 C 0.7501(4) 0.3546(2) 0.52719(19)
H12 H 0.7503 0.2670 0.5118
C13 C 0.7497(4) 0.9238(2) 0.47550(16)
N1 N 0.7500(3) 1.04273(18) 0.97370(14)
C1 C 0.7498(4) 0.6376(2) 0.88996(15)
N2 N 0.7502(4) 0.6480(2) 1.19135(15)
C2 C 0.9259(4) 0.6076(3) 0.84204(17)
H1 H 1.0329 0.6268 0.8759
H2 H 0.9272 0.5168 0.8271
H3 H 0.9297 0.6600 0.7927
C3 C 0.5746(4) 0.6077(3) 0.84196(17)
H4 H 0.4674 0.6271 0.8756
H5 H 0.5713 0.6600 0.7925
H6 H 0.5733 0.5168 0.8271
C4 C 0.7499(4) 0.6820(2) 1.03411(15)
C5 C 0.7501(4) 1.0561(3) 0.88624(18)
H7 H 0.7502 0.9798 0.8549
C6 C 0.7496(4) 1.1006(3) 1.10623(19)
H8 H 0.7491 1.1513 1.1541
C7 C 0.7500(4) 0.9654(2) 1.10267(17)
H9 H 0.7503 0.9093 1.1481
C8 C 0.7499(4) 0.6655(2) 1.12139(19)
C9 C 0.7499(5) 1.1648(3) 0.8467(2)
H10 H 0.7497 1.2433 0.8758
H11 H 0.7500 1.1651 0.7890
C10 C 0.7500(3) 0.9281(2) 1.02110(15)
O1 O 0.7503(3) 0.77842(14) 0.90820(10)
C11 C 0.7498(3) 0.7971(2) 0.99003(15)
O2 O 0.7502(3) 0.45807(16) 0.98832(11)
C12 C 0.7501(4) 1.1454(2) 1.02719(19)
H12 H 0.7503 1.2330 1.0118
C13 C 0.7497(4) 0.5762(2) 0.97550(16)
N1 N 0.2500(3) 0.54273(18) 0.52630(14)
C1 C 0.2502(4) 0.1376(2) 0.61004(15)
N2 N 0.2498(4) 0.1480(2) 0.30865(15)
C2 C 0.0741(4) 0.1076(3) 0.65796(17)
H1 H -0.0329 0.1268 0.6241
H2 H 0.0728 0.0168 0.6729
H3 H 0.0703 0.1600 0.7073
C3 C 0.4254(4) 0.1077(3) 0.65804(17)
H4 H 0.5326 0.1271 0.6244
H5 H 0.4287 0.1600 0.7075
H6 H 0.4267 0.0168 0.6729
C4 C 0.2501(4) 0.1820(2) 0.46589(15)
C5 C 0.2499(4) 0.5561(3) 0.61376(18)
H7 H 0.2498 0.4798 0.6451
C6 C 0.2504(4) 0.6006(3) 0.39377(19)
H8 H 0.2509 0.6513 0.3459
C7 C 0.2500(4) 0.4654(2) 0.39733(17)
H9 H 0.2497 0.4093 0.3519
C8 C 0.2501(4) 0.1655(2) 0.37861(19)
C9 C 0.2501(5) 0.6648(3) 0.6533(2)
H10 H 0.2503 0.7433 0.6242
H11 H 0.2500 0.6651 0.7110
C10 C 0.2500(3) 0.4281(2) 0.47890(15)
O1 O 0.2497(3) 0.27842(14) 0.59180(10)
C11 C 0.2502(3) 0.2971(2) 0.50997(15)
O2 O 0.2498(3) -0.04193(16) 0.51168(11)
C12 C 0.2499(4) 0.6454(2) 0.47281(19)
H12 H 0.2497 0.7330 0.4882
C13 C 0.2503(4) 0.0762(2) 0.52450(16)

#END
