./KABGIF_from_POSCAR.cif_generated_by_CrystalShift
_symmetry_cell_setting triclinic
_symmetry_space_group_name_H-M 'P 1'
loop_
_symmetry_equiv_pos_site_id
_symmetry_equiv_pos_as_xyz
1 x,y,z
_cell_length_a 8.598300
_cell_length_b 14.698200
_cell_length_c 13.209600
_cell_angle_alpha 90.000000
_cell_angle_beta 107.860000
_cell_angle_gamma 90.000000
_cell_volume 1588.971491
loop_
_atom_site_label
_atom_site_type_symbol
_atom_site_fract_x
_atom_site_fract_y
_atom_site_fract_z
H1 H 1.092700 0.327200 0.016800
H2 H 0.903000 0.313200 -0.015500
H3 H 1.071400 0.655400 0.322600
H4 H 0.898700 0.692000 0.256700
H5 H 1.041900 0.691300 0.206500
H6 H 0.680900 0.352100 0.406100
H7 H 0.692500 -0.046100 1.175000
H8 H 0.724600 0.313000 0.247200
H9 H 0.882200 0.595600 0.393900
H10 H 0.780600 0.565400 0.540300
H11 H 0.650400 -0.033900 1.340800
H12 H 0.526600 0.330400 0.628000
H13 H 0.549500 0.047800 1.454900
H14 H 0.421500 0.250200 0.741600
H15 H 0.549500 0.452200 0.954900
H16 H 0.421500 0.249800 1.241600
H17 H 0.650400 0.533900 0.840800
H18 H 0.526600 0.169600 1.128000
H19 H 0.692500 0.546100 0.675000
H20 H -0.092700 0.827200 0.483200
H21 H 0.780600 -0.065400 1.040300
H22 H 0.025200 0.909300 0.527100
H23 H 0.097000 0.813200 0.515500
H24 H 0.882200 -0.095600 0.893900
H25 H -0.071400 1.155400 0.177400
H26 H 0.101300 1.192000 0.243300
H27 H -0.041900 1.191300 0.293500
H28 H 0.724600 0.187000 0.747200
H29 H 0.319100 0.852100 0.093900
H30 H 0.680900 0.147900 0.906100
H31 H 0.275400 0.813000 0.252800
H32 H 1.041900 -0.191300 0.706500
H33 H 0.898700 -0.192000 0.756700
H34 H 1.071400 -0.155400 0.822600
H35 H 0.117800 1.095600 0.106100
H36 H 0.219400 1.065400 -0.040300
H37 H 0.903000 0.186800 0.484500
H38 H 0.974800 0.090700 0.472900
H39 H 1.092700 0.172800 0.516800
H40 H 0.473400 0.830400 -0.128000
H41 H 0.578500 0.750200 -0.241600
H42 H 0.450500 0.952200 -0.454900
H43 H 0.349600 1.033900 -0.340800
H44 H 0.307500 1.046100 -0.175000
H45 H -0.092700 0.672800 0.983200
H46 H 0.307500 0.453900 0.325000
H47 H 0.025200 0.590700 1.027100
H48 H 0.097000 0.686800 1.015500
H49 H -0.071400 0.344600 0.677400
H50 H 0.349600 0.466100 0.159200
H51 H 0.101300 0.308000 0.743300
H52 H 0.450500 0.547800 0.045100
H53 H -0.041900 0.308700 0.793500
H54 H 0.319100 0.647900 0.593900
H55 H 0.578500 0.749800 0.258400
H56 H 0.275400 0.687000 0.752800
H57 H 0.473400 0.669600 0.372000
H58 H 0.117800 0.404400 0.606100
H59 H 0.219400 0.434600 0.459700
H60 H 0.974800 0.409300 -0.027100
C61 C 0.223300 0.521820 0.583750
C62 C 0.149540 0.461500 0.635600
C63 C 0.399400 0.560100 0.277470
C64 C 0.122300 0.484480 0.730290
C65 C 0.170600 0.569630 0.772390
C66 C 0.243500 0.630130 0.722860
C67 C 0.468900 0.645030 0.306240
C68 C 0.270000 0.606650 0.627960
C69 C 0.530900 0.693050 0.238530
C70 C 0.006400 0.340460 0.747150
C71 C 0.522300 0.656620 0.140350
C72 C 0.454800 0.571930 0.110960
C73 C 0.394300 0.523530 0.178750
C74 C 0.006500 0.621760 0.874430
C75 C 0.009300 0.645110 0.984910
C76 C 0.990700 0.354890 0.015090
C77 C 0.993500 0.378240 0.125570
C78 C 0.993600 0.659540 0.252850
C79 C 0.730000 0.393350 0.372040
C80 C 0.756500 0.369870 0.277140
C81 C 0.829400 0.430370 0.227610
C82 C 0.877700 0.515520 0.269710
C83 C 0.850460 0.538500 0.364400
C84 C 0.776700 0.478180 0.416250
C85 C 0.605700 0.023530 1.321250
C86 C 0.748300 0.507330 0.514370
C87 C 0.600600 0.439900 0.722530
C88 C 0.394300 0.976470 -0.321250
C89 C 0.545200 0.071930 1.389040
C90 C 0.454800 0.928070 -0.389040
C91 C 0.531100 0.354970 0.693760
C92 C 0.522300 0.843380 -0.359650
C93 C 0.530900 0.806950 -0.261470
C94 C 0.477700 0.156620 1.359650
C95 C 0.468900 0.854970 -0.193760
C96 C 0.469100 0.306950 0.761470
C97 C 0.399400 0.939900 -0.222530
C98 C 0.251700 1.007330 -0.014370
C99 C 0.990700 0.145110 0.515090
C100 C 0.223300 0.978180 0.083750
C101 C 0.149540 1.038500 0.135600
C102 C 0.993500 0.121760 0.625570
C103 C 0.122300 1.015520 0.230290
C104 C 0.170600 0.930370 0.272390
C105 C 0.243500 0.869870 0.222860
C106 C 0.993600 -0.159540 0.752850
C107 C 0.270000 0.893350 0.127960
C108 C 0.730000 0.106650 0.872040
C109 C 0.006400 1.159540 0.247150
C110 C 0.756500 0.130130 0.777140
C111 C 0.829400 0.069630 0.727610
C112 C 0.877700 -0.015520 0.769710
C113 C 0.006500 0.878240 0.374430
C114 C 0.009300 0.854890 0.484910
C115 C 0.850460 -0.038500 0.864400
C116 C 0.776700 0.021820 0.916250
C117 C 0.748300 -0.007330 1.014370
C118 C 0.477700 0.343380 0.859650
C119 C 0.469100 0.193050 1.261470
C120 C 0.545200 0.428070 0.889040
C121 C 0.531100 0.145030 1.193760
C122 C 0.605700 0.476470 0.821250
C123 C 0.600600 0.060100 1.222530
C124 C 0.251700 0.492670 0.485630
N125 N 0.680440 0.455480 0.565960
N126 N 0.412100 0.293570 0.932520
N127 N 0.587900 0.706430 0.067480
N128 N 0.319560 0.544520 0.434040
N129 N 0.336710 0.509190 0.342260
N130 N 0.663290 0.009190 1.157740
N131 N 0.680440 0.044520 1.065960
N132 N 0.412100 0.206430 1.432520
N133 N 0.663290 0.490810 0.657740
N134 N 0.336710 0.990810 -0.157740
N135 N 0.319560 0.955480 -0.065960
N136 N 0.587900 0.793570 -0.432520
O137 O 0.154980 0.593030 0.872610
O138 O -0.108490 0.627480 0.796550
O139 O 0.052400 0.429390 0.787420
O140 O 0.586620 0.670340 -0.017010
O141 O 0.641700 0.782710 0.092270
O142 O 0.154980 0.906970 0.372610
O143 O 0.052400 1.070610 0.287420
O144 O 0.586620 0.829660 -0.517010
O145 O 0.358300 0.217290 0.907730
O146 O 0.641700 0.717290 -0.407730
O147 O 0.413380 0.329660 1.017010
O148 O 0.947600 0.570610 0.212580
O149 O 1.108490 0.127480 0.703450
O150 O 0.845020 0.093030 0.627390
O151 O 0.947600 -0.070610 0.712580
O152 O 0.845020 0.406970 0.127390
O153 O 1.108490 0.372520 0.203450
O154 O 0.413380 0.170340 1.517010
O155 O -0.108490 0.872520 0.296550
O156 O 0.358300 0.282710 1.407730

#END
