./KABHON_from_POSCAR.cif_generated_by_CrystalShift
_symmetry_cell_setting triclinic
_symmetry_space_group_name_H-M 'P 1'
loop_
_symmetry_equiv_pos_site_id
_symmetry_equiv_pos_as_xyz
1 x,y,z
_cell_length_a 12.711400
_cell_length_b 7.483600
_cell_length_c 10.685400
_cell_angle_alpha 90.000000
_cell_angle_beta 90.000000
_cell_angle_gamma 90.000000
_cell_volume 1016.470399
loop_
_atom_site_label
_atom_site_type_symbol
_atom_site_fract_x
_atom_site_fract_y
_atom_site_fract_z
H1 H 0.868700 -0.016900 0.508700
H2 H 0.903100 -0.016200 0.295500
H3 H 1.161000 0.341000 0.164000
H4 H 1.109600 0.155000 -0.049900
H5 H 0.495700 0.250000 0.589900
H6 H 0.609600 0.155000 0.549900
H7 H 0.868700 0.516900 0.508700
H8 H 0.603000 0.250000 0.241000
H9 H 0.661000 0.341000 0.336000
H10 H 0.903100 0.516200 0.295500
H11 H 1.161000 0.159000 0.164000
H12 H 1.103000 0.250000 0.259000
H13 H 0.403100 -0.016200 0.204500
H14 H 1.109600 0.345000 -0.049900
H15 H 0.368700 -0.016900 -0.008700
H16 H 0.995700 0.250000 -0.089900
H17 H 0.609600 0.345000 0.549900
H18 H 0.661000 0.159000 0.336000
H19 H 0.631300 1.016900 1.008700
H20 H 0.403100 0.516200 0.204500
H21 H 0.596900 1.016200 0.795500
H22 H 0.368700 0.516900 -0.008700
H23 H 0.339000 0.659000 0.664000
H24 H 0.390400 0.845000 0.450100
H25 H 0.631300 0.483100 1.008700
H26 H 0.596900 0.483800 0.795500
H27 H 0.004300 0.750000 1.089900
H28 H -0.109600 0.845000 1.049900
H29 H 0.339000 0.841000 0.664000
H30 H -0.103000 0.750000 0.741000
H31 H -0.161000 0.659000 0.836000
H32 H 0.397000 0.750000 0.759000
H33 H 0.390400 0.655000 0.450100
H34 H 0.504300 0.750000 0.410100
H35 H 0.096900 1.016200 0.704500
H36 H 0.131300 0.483100 0.491300
H37 H 0.131300 1.016900 0.491300
H38 H 0.096900 0.483800 0.704500
H39 H -0.109600 0.655000 1.049900
H40 H -0.161000 0.841000 0.836000
C41 C 0.103400 0.591500 0.661800
C42 C 0.133700 0.750000 0.472800
C43 C 0.124100 0.590400 0.534200
C44 C 0.124100 0.909600 0.534200
C45 C 0.896600 0.091500 0.338200
C46 C 0.554600 0.250000 0.533800
C47 C 0.866300 0.250000 0.527200
C48 C 0.445400 0.750000 0.466200
C49 C 0.103400 0.908500 0.661800
C50 C 0.092500 0.750000 0.726000
C51 C 0.382600 0.750000 0.684600
C52 C 0.072100 0.750000 0.863800
C53 C -0.117400 0.750000 0.815400
C54 C 0.572100 0.750000 0.636200
C55 C 0.592500 0.750000 0.774000
C56 C 0.603400 0.591500 0.838200
C57 C -0.054600 0.750000 1.033800
C58 C 0.624100 0.590400 0.965800
C59 C 0.617400 0.250000 0.315400
C60 C 0.633700 0.750000 1.027200
C61 C 0.875900 0.409600 0.465800
C62 C 0.427900 0.250000 0.363800
C63 C 0.603400 0.908500 0.838200
C64 C 0.375900 0.409600 0.034200
C65 C 0.624100 0.909600 0.965800
C66 C 0.396600 0.408500 0.161800
C67 C 0.896600 0.408500 0.338200
C68 C 0.907500 0.250000 0.274000
C69 C 0.927900 0.250000 0.136200
C70 C 1.054600 0.250000 -0.033800
C71 C 0.366300 0.250000 -0.027200
C72 C 0.375900 0.090400 0.034200
C73 C 1.117400 0.250000 0.184600
C74 C 0.396600 0.091500 0.161800
C75 C 0.407500 0.250000 0.226000
C76 C 0.875900 0.090400 0.465800
N77 N 0.526800 0.250000 0.400500
N78 N 0.473200 0.750000 0.599500
N79 N -0.026800 0.750000 0.900500
N80 N 1.026800 0.250000 0.099500
S81 S 0.325000 0.250000 0.459900
S82 S 0.675000 0.750000 0.540100
S83 S 0.825000 0.250000 0.040100
S84 S 0.175000 0.750000 0.959900
Br85 Br 0.658830 0.750000 1.202840
Br86 Br 0.841170 0.250000 0.702840
Br87 Br 0.158830 0.750000 0.297160
Br88 Br 0.341170 0.250000 -0.202840

#END
