./KABLAC_from_POSCAR.cif_generated_by_CrystalShift
_symmetry_cell_setting triclinic
_symmetry_space_group_name_H-M 'P 1'
loop_
_symmetry_equiv_pos_site_id
_symmetry_equiv_pos_as_xyz
1 x,y,z
_cell_length_a 13.804000
_cell_length_b 5.829000
_cell_length_c 22.164000
_cell_angle_alpha 90.000000
_cell_angle_beta 97.989000
_cell_angle_gamma 90.000000
_cell_volume 1766.085125
loop_
_atom_site_label
_atom_site_type_symbol
_atom_site_fract_x
_atom_site_fract_y
_atom_site_fract_z
H1 H 0.697700 0.737300 0.726800
H2 H -0.203200 0.240400 0.397200
H3 H 0.590000 0.524200 0.776300
H4 H -0.090000 -0.024200 0.223700
H5 H 0.197700 -0.237300 0.226800
H6 H 0.090000 -0.024200 0.276300
H7 H 0.090500 0.461600 0.145500
H8 H 0.203200 0.240400 0.102800
H9 H 0.590500 0.038400 0.645500
H10 H -0.197700 -0.237300 0.273200
H11 H 1.203200 0.240400 0.102800
H12 H 1.090500 0.461600 0.145500
H13 H 1.090000 -0.024200 0.276300
H14 H 0.703200 0.259600 0.602800
H15 H 1.197700 -0.237300 0.226800
H16 H 0.796800 0.240400 0.397200
H17 H 0.909500 0.461600 0.354500
H18 H 0.910000 -0.024200 0.223700
H19 H 0.302300 0.737300 0.773200
H20 H 0.802300 -0.237300 0.273200
H21 H 0.410000 0.524200 0.723700
H22 H 0.703200 0.740400 0.102800
H23 H 0.590500 0.961600 0.145500
H24 H 0.590000 0.475800 0.276300
H25 H 0.697700 0.262700 0.226800
H26 H 0.296800 0.740400 0.397200
H27 H 0.409500 0.038400 0.854500
H28 H 0.409500 0.961600 0.354500
H29 H 0.410000 0.475800 0.223700
H30 H 0.302300 0.262700 0.273200
H31 H -0.203200 0.759600 0.897200
H32 H 0.296800 0.259600 0.897200
H33 H -0.090500 0.538400 0.854500
H34 H -0.090000 1.024200 0.723700
H35 H -0.197700 1.237300 0.773200
H36 H 0.203200 0.759600 0.602800
H37 H 1.197700 1.237300 0.726800
H38 H 0.090500 0.538400 0.645500
H39 H 1.090000 1.024200 0.776300
H40 H 0.090000 1.024200 0.776300
H41 H 0.197700 1.237300 0.726800
H42 H 0.796800 0.759600 0.897200
H43 H 0.909500 0.538400 0.854500
H44 H 0.910000 1.024200 0.723700
H45 H 1.090500 0.538400 0.645500
H46 H 0.802300 1.237300 0.773200
H47 H 1.203200 0.759600 0.602800
H48 H -0.090500 0.461600 0.354500
C49 C 1.112100 0.680800 0.663500
C50 C 0.046000 -0.199900 0.018100
C51 C 1.178700 0.815800 0.637900
C52 C -0.064400 0.103600 1.036000
C53 C -0.046000 0.199900 0.981900
C54 C 0.016800 0.098000 0.946600
C55 C 0.064400 -0.103600 -0.036000
C56 C 0.823800 1.092600 0.789600
C57 C 1.077900 0.758300 0.715800
C58 C 0.064400 -0.103600 0.964000
C59 C 0.046000 -0.199900 1.018100
C60 C -0.016800 -0.098000 1.053400
C61 C 0.888800 0.967400 0.759900
C62 C 0.922100 0.758300 0.784200
C63 C 1.111200 0.967400 0.740100
C64 C -0.064400 1.103600 0.036000
C65 C -0.046000 1.199900 -0.018100
C66 C 0.016800 1.098000 -0.053400
C67 C 0.887900 0.680800 0.836500
C68 C 0.016800 0.098000 -0.053400
C69 C 0.821300 0.815800 0.862100
C70 C 0.064400 0.896400 -0.036000
C71 C 0.046000 0.800100 0.018100
C72 C -0.016800 0.902000 0.053400
C73 C -0.046000 0.199900 -0.018100
C74 C 0.176200 1.092600 0.710400
C75 C -0.064400 0.103600 0.036000
C76 C -0.064400 1.103600 1.036000
C77 C -0.046000 1.199900 0.981900
C78 C 0.016800 1.098000 0.946600
C79 C 0.111200 0.967400 0.740100
C80 C 0.077900 0.758300 0.715800
C81 C 1.176200 1.092600 0.710400
C82 C 0.064400 0.896400 0.964000
C83 C 0.046000 0.800100 1.018100
C84 C -0.016800 0.902000 1.053400
C85 C 0.112100 0.680800 0.663500
C86 C 0.516800 0.402000 0.446600
C87 C 0.178700 0.815800 0.637900
C88 C 0.935600 0.103600 0.036000
C89 C 0.954000 0.199900 -0.018100
C90 C 1.016800 0.098000 -0.053400
C91 C 0.454000 0.300100 0.481900
C92 C -0.176200 1.092600 0.789600
C93 C 0.435600 0.396400 0.536000
C94 C 1.064400 -0.103600 -0.036000
C95 C 1.046000 -0.199900 0.018100
C96 C 0.983200 -0.098000 0.053400
C97 C -0.111200 0.967400 0.759900
C98 C -0.077900 0.758300 0.784200
C99 C 0.321300 0.315800 0.862100
C100 C 0.935600 0.103600 1.036000
C101 C 0.954000 0.199900 0.981900
C102 C 1.016800 0.098000 0.946600
C103 C -0.112100 0.680800 0.836500
C104 C 0.387900 0.180800 0.836500
C105 C -0.178700 0.815800 0.862100
C106 C 1.064400 -0.103600 0.964000
C107 C 1.046000 -0.199900 1.018100
C108 C 0.983200 -0.098000 1.053400
C109 C 0.483200 0.598000 0.553400
C110 C 0.323800 0.407400 0.289600
C111 C 0.546000 0.699900 0.518100
C112 C 0.935600 1.103600 0.036000
C113 C 0.954000 1.199900 -0.018100
C114 C 1.016800 1.098000 -0.053400
C115 C 0.388800 0.532600 0.259900
C116 C 0.422100 0.741700 0.284200
C117 C 0.564400 0.603600 0.464000
C118 C 1.064400 0.896400 -0.036000
C119 C 1.046000 0.800100 0.018100
C120 C 0.983200 0.902000 0.053400
C121 C 0.387900 0.819200 0.336500
C122 C 0.422100 0.258300 0.784200
C123 C 0.321300 0.684200 0.362100
C124 C 0.935600 1.103600 1.036000
C125 C 0.954000 1.199900 0.981900
C126 C 1.016800 1.098000 0.946600
C127 C 0.388800 0.467400 0.759900
C128 C 0.676200 0.407400 0.210400
C129 C 0.483200 0.402000 1.053400
C130 C 1.064400 0.896400 0.964000
C131 C 1.046000 0.800100 1.018100
C132 C 0.983200 0.902000 1.053400
C133 C 0.611200 0.532600 0.240100
C134 C 0.577900 0.741700 0.215800
C135 C 0.546000 0.300100 1.018100
C136 C 0.064400 0.103600 0.464000
C137 C 0.046000 0.199900 0.518100
C138 C -0.016800 0.098000 0.553400
C139 C 0.612100 0.819200 0.163500
C140 C 0.564400 0.396400 0.964000
C141 C 0.678700 0.684200 0.137900
C142 C -0.064400 -0.103600 0.536000
C143 C -0.046000 -0.199900 0.481900
C144 C 0.016800 -0.098000 0.446600
C145 C 0.323800 0.592600 0.789600
C146 C 0.823800 -0.092600 0.289600
C147 C 0.516800 0.598000 0.946600
C148 C 0.064400 1.103600 0.464000
C149 C 0.046000 1.199900 0.518100
C150 C -0.016800 1.098000 0.553400
C151 C 0.888800 0.032600 0.259900
C152 C 0.922100 0.241700 0.284200
C153 C 0.454000 0.699900 0.981900
C154 C -0.064400 0.896400 0.536000
C155 C -0.046000 0.800100 0.481900
C156 C 0.016800 0.902000 0.446600
C157 C 0.887900 0.319200 0.336500
C158 C 0.435600 0.603600 1.036000
C159 C 0.821300 0.184200 0.362100
C160 C 1.064400 0.103600 0.464000
C161 C 1.046000 0.199900 0.518100
C162 C 0.983200 0.098000 0.553400
C163 C 0.678700 0.315800 0.637900
C164 C 1.176200 -0.092600 0.210400
C165 C 0.612100 0.180800 0.663500
C166 C 0.935600 -0.103600 0.536000
C167 C 0.954000 -0.199900 0.481900
C168 C 1.016800 -0.098000 0.446600
C169 C 1.111200 0.032600 0.240100
C170 C 1.077900 0.241700 0.215800
C171 C 0.483200 0.402000 0.053400
C172 C 1.064400 1.103600 0.464000
C173 C 1.046000 1.199900 0.518100
C174 C 0.983200 1.098000 0.553400
C175 C 1.112100 0.319200 0.163500
C176 C 0.546000 0.300100 0.018100
C177 C 1.178700 0.184200 0.137900
C178 C 0.935600 0.896400 0.536000
C179 C 0.954000 0.800100 0.481900
C180 C 1.016800 0.902000 0.446600
C181 C 0.564400 0.396400 -0.036000
C182 C -0.176200 -0.092600 0.289600
C183 C 0.178700 0.184200 0.137900
C184 C 0.577900 0.258300 0.715800
C185 C 0.112100 0.319200 0.163500
C186 C 0.611200 0.467400 0.740100
C187 C 0.077900 0.241700 0.215800
C188 C 0.111200 0.032600 0.240100
C189 C 0.516800 0.598000 -0.053400
C190 C 0.176200 -0.092600 0.210400
C191 C 0.454000 0.699900 -0.018100
C192 C 0.435600 0.603600 0.036000
C193 C -0.178700 0.184200 0.362100
C194 C 0.676200 0.592600 0.710400
C195 C -0.112100 0.319200 0.336500
C196 C -0.016800 -0.098000 0.053400
C197 C -0.077900 0.241700 0.284200
C198 C -0.111200 0.032600 0.259900
N199 N -0.210300 -0.020200 0.340130
N200 N 0.210300 -0.020200 0.159870
N201 N 1.210300 1.020200 0.659870
N202 N 0.210300 1.020200 0.659870
N203 N 1.210300 -0.020200 0.159870
N204 N -0.210300 1.020200 0.840130
N205 N 0.289700 0.520200 0.840130
N206 N 0.289700 0.479800 0.340130
N207 N 0.789700 1.020200 0.840130
N208 N 0.710300 0.479800 0.159870
N209 N 0.710300 0.520200 0.659870
N210 N 0.789700 -0.020200 0.340130
F211 F 0.910700 -0.400300 0.462490
F212 F 0.410700 0.900300 0.962490
F213 F 1.029200 -0.199300 0.393370
F214 F 0.970800 0.199300 0.606630
F215 F 1.089300 0.400300 0.537510
F216 F 0.529200 0.699300 0.893370
F217 F 0.029200 0.800700 0.393370
F218 F -0.089300 0.599700 0.462490
F219 F 0.470800 0.300700 0.106630
F220 F -0.029200 1.199300 0.606630
F221 F 0.089300 1.400300 0.537510
F222 F 0.589300 0.099700 1.037510
F223 F 0.470800 0.300700 1.106630
F224 F 1.089300 1.400300 0.537510
F225 F 0.029200 -0.199300 0.393370
F226 F -0.089300 -0.400300 0.462490
F227 F 0.589300 0.900300 0.537510
F228 F -0.029200 0.199300 0.606630
F229 F 0.089300 0.400300 0.537510
F230 F 0.470800 0.699300 0.606630
F231 F 0.970800 0.800700 1.106630
F232 F 1.089300 0.599700 1.037510
F233 F 0.970800 1.199300 0.606630
F234 F 0.589300 0.099700 0.037510
F235 F 1.029200 1.199300 0.893370
F236 F 0.910700 1.400300 0.962490
F237 F 0.529200 0.300700 0.393370
F238 F 0.970800 0.800700 0.106630
F239 F 1.089300 0.599700 0.037510
F240 F 0.910700 0.599700 0.462490
F241 F 1.029200 1.199300 -0.106630
F242 F 0.910700 1.400300 -0.037510
F243 F -0.089300 0.400300 -0.037510
F244 F 0.029200 0.199300 -0.106630
F245 F 1.029200 0.800700 0.393370
F246 F 0.970800 -0.199300 1.106630
F247 F 1.089300 -0.400300 1.037510
F248 F 0.089300 -0.400300 0.037510
F249 F 1.029200 0.199300 0.893370
F250 F 0.910700 0.400300 0.962490
F251 F -0.029200 -0.199300 0.106630
F252 F 0.970800 -0.199300 0.106630
F253 F 1.089300 -0.400300 0.037510
F254 F -0.089300 0.400300 0.962490
F255 F 0.529200 0.699300 -0.106630
F256 F 1.029200 0.199300 -0.106630
F257 F 0.910700 0.400300 -0.037510
F258 F 0.029200 0.199300 0.893370
F259 F -0.029200 0.800700 1.106630
F260 F 0.089300 0.599700 1.037510
F261 F 0.410700 0.900300 -0.037510
F262 F 0.029200 1.199300 0.893370
F263 F -0.089300 1.400300 0.962490
F264 F 0.089300 -0.400300 1.037510
F265 F -0.029200 -0.199300 1.106630
F266 F 0.410700 0.099700 0.462490
F267 F -0.029200 0.800700 0.106630
F268 F 0.089300 0.599700 0.037510
F269 F -0.089300 1.400300 -0.037510
F270 F 0.029200 1.199300 -0.106630
S271 S 0.000000 0.426600 0.250000
S272 S 0.500000 0.926600 0.250000
S273 S 1.000000 0.573400 0.750000
S274 S 1.000000 0.426600 0.250000
S275 S 0.500000 0.073400 0.750000
S276 S 0.000000 0.573400 0.750000
I277 I 0.839880 0.257670 0.089898
I278 I 1.160120 -0.257670 -0.089898
I279 I -0.160120 0.257670 1.089898
I280 I 0.839880 0.257670 1.089898
I281 I 1.160120 -0.257670 0.910102
I282 I 0.160120 -0.257670 -0.089898
I283 I 0.160120 0.742330 0.910102
I284 I 0.839880 1.257670 0.089898
I285 I -0.160120 0.257670 0.089898
I286 I 0.160120 -0.257670 0.910102
I287 I 1.160120 0.742330 -0.089898
I288 I -0.160120 1.257670 1.089898
I289 I 1.160120 0.742330 0.910102
I290 I 0.339880 0.242330 0.589898
I291 I 0.160120 0.257670 0.410102
I292 I -0.160120 -0.257670 0.589898
I293 I 0.660120 0.757670 0.410102
I294 I -0.160120 1.257670 0.089898
I295 I 0.160120 1.257670 0.410102
I296 I 0.660120 0.242330 0.910102
I297 I -0.160120 0.742330 0.589898
I298 I 1.160120 0.257670 0.410102
I299 I 0.839880 -0.257670 0.589898
I300 I 0.339880 0.757670 1.089898
I301 I 1.160120 1.257670 0.410102
I302 I 0.839880 0.742330 0.589898
I303 I 0.660120 0.242330 -0.089898
I304 I 0.839880 1.257670 1.089898
I305 I 0.160120 0.742330 -0.089898
I306 I 0.339880 0.757670 0.089898

#END
