./KABMEH_from_POSCAR.cif_generated_by_CrystalShift
_symmetry_cell_setting triclinic
_symmetry_space_group_name_H-M 'P 1'
loop_
_symmetry_equiv_pos_site_id
_symmetry_equiv_pos_as_xyz
1 x,y,z
_cell_length_a 7.538800
_cell_length_b 12.245200
_cell_length_c 14.244000
_cell_angle_alpha 90.000000
_cell_angle_beta 90.000000
_cell_angle_gamma 90.000000
_cell_volume 1314.922236
loop_
_atom_site_label
_atom_site_type_symbol
_atom_site_fract_x
_atom_site_fract_y
_atom_site_fract_z
H1 H 0.638700 1.030800 1.008100
H2 H 0.758900 1.115500 0.955500
H3 H 0.525900 0.772700 0.769100
H4 H 0.516300 0.886700 0.639800
H5 H 0.092900 0.680400 -0.070400
H6 H 0.601400 1.065200 0.653300
H7 H 0.213600 0.809300 0.125000
H8 H 0.699300 1.132200 0.794700
H9 H 0.758300 0.509100 0.942100
H10 H 0.655400 0.447800 1.212200
H11 H 0.713600 0.690700 0.875000
H12 H 0.155400 1.052200 -0.212200
H13 H 0.592900 0.819600 1.070400
H14 H 0.861300 -0.030800 0.508100
H15 H 0.258300 0.990900 0.057900
H16 H 0.664800 -0.000700 0.482900
H17 H 0.741100 -0.115500 0.455500
H18 H 0.974100 0.227300 0.269100
H19 H 0.199300 0.367800 0.205300
H20 H 0.983700 0.113300 0.139800
H21 H 0.101400 0.434800 0.346700
H22 H 0.898600 -0.065200 0.153300
H23 H 0.016300 0.613300 0.360200
H24 H 0.800700 -0.132200 0.294700
H25 H 0.025900 0.727300 0.230900
H26 H 0.741700 0.490900 0.442100
H27 H 0.258900 0.384500 0.044500
H28 H 0.335200 0.499300 0.017100
H29 H 0.138700 0.469200 -0.008100
H30 H 0.844600 0.552200 0.712200
H31 H 0.786400 0.309300 0.375000
H32 H 0.907100 0.180400 0.570400
H33 H 0.361300 0.530800 0.491900
H34 H 0.407100 0.319600 0.429600
H35 H 0.164800 0.500700 0.517100
H36 H 0.286400 0.190700 0.625000
H37 H 0.241100 0.615500 0.544500
H38 H 0.474100 0.272700 0.730900
H39 H 0.483700 0.386700 0.860200
H40 H 0.398600 0.565200 0.846700
H41 H 0.344600 -0.052200 0.287800
H42 H 0.300700 0.632200 0.705300
H43 H 0.241700 0.009100 0.557900
H44 H 0.835200 1.000700 0.982900
C45 C 0.378000 0.384700 0.640300
C46 C 0.329500 0.494100 0.630500
C47 C 0.336100 0.559600 0.709600
C48 C 0.284000 -0.038200 0.425400
C49 C 0.394100 0.519500 0.794700
C50 C 0.337600 -0.002900 0.337300
C51 C 0.444700 0.413400 0.802700
C52 C 0.380400 0.104800 0.323600
C53 C 0.438200 0.345100 0.725520
C54 C 0.373700 0.179700 0.397300
C55 C 0.268700 0.539300 0.537600
C56 C 0.323000 0.143200 0.486300
C57 C 0.322300 0.216800 0.566700
C58 C 0.731300 1.039300 0.962400
C59 C 0.561800 0.845100 0.774480
C60 C 0.555300 0.913400 0.697300
C61 C 0.177700 0.783200 0.066700
C62 C 0.605900 1.019500 0.705300
C63 C 0.177000 0.856800 -0.013700
C64 C 0.822300 0.283200 0.433300
C65 C 0.663900 1.059600 0.790400
C66 C 0.823000 0.356800 0.513700
C67 C 0.873700 0.320300 0.602700
C68 C 0.880400 0.395200 0.676400
C69 C 0.837600 0.502900 0.662700
C70 C 0.670500 0.994100 0.869500
C71 C 0.784000 0.538200 0.574600
C72 C 0.777100 0.466500 0.501000
C73 C 0.231300 0.460700 0.037600
C74 C 0.878000 0.115300 0.359700
C75 C 0.829500 0.005900 0.369500
C76 C 0.836100 -0.059600 0.290400
C77 C 0.061800 0.654900 0.225520
C78 C 0.894100 -0.019500 0.205300
C79 C 0.055300 0.586600 0.302700
C80 C 0.944700 0.086600 0.197300
C81 C 0.105900 0.480500 0.294700
C82 C 0.938200 0.154900 0.274480
C83 C 0.163900 0.440400 0.209600
C84 C 0.768700 -0.039300 0.462400
C85 C 0.170500 0.505900 0.130500
C86 C 0.122000 0.615300 0.140300
C87 C 0.222900 0.966500 -0.001000
C88 C 0.622000 0.884700 0.859700
C89 C 0.126300 0.820300 -0.102700
C90 C 0.722900 0.533500 1.001000
C91 C 0.716000 0.461800 1.074600
C92 C 0.216000 1.038200 -0.074600
C93 C 0.677700 0.716800 0.933300
C94 C 0.162400 1.002900 -0.162700
C95 C 0.677000 0.643200 1.013700
C96 C 0.626300 0.679700 1.102700
C97 C 0.619600 0.604800 1.176400
C98 C 0.662400 0.497100 1.162700
C99 C 0.119600 0.895200 -0.176400
C100 C 0.277100 0.033500 0.499000
N101 N 0.630200 0.816500 0.941320
N102 N 0.130200 0.683500 0.058680
N103 N 0.869800 0.183500 0.441320
N104 N 0.369800 0.316500 0.558680
O105 O 0.083500 0.715580 -0.119170
O106 O 0.416500 0.284420 0.380830
O107 O 0.916500 0.215580 0.619170
O108 O 0.583500 0.784420 1.119170
Cl109 Cl 0.230010 -0.174720 0.442150
Cl110 Cl 0.269990 1.174720 -0.057850
Cl111 Cl 0.769990 0.325280 1.057850
Cl112 Cl 0.730010 0.674720 0.557850
Br113 Br 0.450850 0.153460 0.203850
Br114 Br 0.950850 0.346540 0.796150
Br115 Br 0.549150 0.653460 1.296150
Br116 Br 0.049150 0.846540 -0.296150

#END
