./KABNOS_from_POSCAR.cif_generated_by_CrystalShift
_symmetry_cell_setting triclinic
_symmetry_space_group_name_H-M 'P 1'
loop_
_symmetry_equiv_pos_site_id
_symmetry_equiv_pos_as_xyz
1 x,y,z
_cell_length_a 10.866000
_cell_length_b 7.965400
_cell_length_c 30.620000
_cell_angle_alpha 90.000000
_cell_angle_beta 90.000000
_cell_angle_gamma 90.000000
_cell_volume 2650.223355
loop_
_atom_site_label
_atom_site_type_symbol
_atom_site_fract_x
_atom_site_fract_y
_atom_site_fract_z
H1 H 0.273000 0.302000 0.852000
H2 H 0.208500 0.351800 0.069100
H3 H -0.030000 0.105100 0.770200
H4 H -0.010100 0.088800 0.696200
H5 H 0.264200 0.092100 0.274000
H6 H 0.168000 0.359000 0.880500
H7 H 0.264200 0.407900 0.774000
H8 H 0.208500 0.148200 0.569100
H9 H 0.038000 0.044000 0.845600
H10 H 0.227000 0.698000 0.352000
H11 H -0.010100 0.411200 0.196200
H12 H 0.332000 0.641000 0.380500
H13 H -0.030000 0.394900 0.270200
H14 H 0.462000 0.956000 0.345600
H15 H 0.298000 0.530000 0.340500
H16 H 0.557000 0.830000 0.336200
H17 H 0.107000 0.375100 0.129200
H18 H 0.475000 0.806000 0.379500
H19 H 0.007500 0.646700 -0.020900
H20 H 0.281900 0.110500 0.200200
H21 H 0.029900 0.870400 -0.078600
H22 H 0.317500 0.564900 -0.052900
H23 H 0.182500 1.064900 -0.052900
H24 H 0.218100 0.610500 0.200200
H25 H 0.470100 0.370400 -0.078600
H26 H 0.393000 0.875100 0.129200
H27 H 0.530000 0.894900 0.270200
H28 H 0.492500 0.146700 -0.020900
H29 H 0.025000 0.306000 0.379500
H30 H -0.057000 0.330000 0.336200
H31 H 0.202000 0.030000 0.340500
H32 H 0.038000 0.456000 0.345600
H33 H 0.168000 0.141000 0.380500
H34 H 0.273000 0.198000 0.352000
H35 H 0.510100 0.911200 0.196200
H36 H 0.291500 0.648200 0.569100
H37 H 0.281900 0.389500 0.700200
H38 H 0.235800 0.592100 0.274000
H39 H 0.235800 0.907900 0.774000
H40 H 0.202000 0.470000 0.840500
H41 H 0.291500 0.851800 0.069100
H42 H 0.773000 0.198000 0.148000
H43 H -0.057000 0.170000 0.836200
H44 H 0.668000 0.141000 0.119500
H45 H 0.510100 0.588800 0.696200
H46 H 0.538000 0.456000 0.154400
H47 H 0.530000 0.605100 0.770200
H48 H 0.702000 0.030000 0.159500
H49 H 0.443000 0.330000 0.163800
H50 H 0.525000 0.306000 0.120500
H51 H 0.393000 0.624900 0.629200
H52 H 0.992500 0.146700 0.520900
H53 H 0.970100 0.370400 0.578600
H54 H 0.218100 0.889500 0.700200
H55 H 0.817500 0.564900 0.552900
H56 H 0.182500 0.435100 0.447100
H57 H 0.781900 0.110500 0.299800
H58 H 0.607000 0.375100 0.370800
H59 H 0.029900 0.629600 0.421400
H60 H 0.470000 0.394900 0.229800
H61 H 0.489900 0.411200 0.303800
H62 H 0.007500 0.853300 0.479100
H63 H 0.475000 0.694000 0.879500
H64 H 0.557000 0.670000 0.836200
H65 H 0.298000 0.970000 0.840500
H66 H 0.462000 0.544000 0.845600
H67 H 0.332000 0.859000 0.880500
H68 H 0.227000 0.802000 0.852000
H69 H 0.317500 -0.064900 0.447100
H70 H 0.708500 0.148200 0.930900
H71 H 0.764200 0.092100 0.226000
H72 H 0.708500 0.351800 0.430900
H73 H 0.764200 0.407900 0.726000
H74 H 0.025000 0.194000 0.879500
H75 H 0.727000 0.802000 0.648000
H76 H 0.832000 0.859000 0.619500
H77 H 0.492500 0.353300 0.479100
H78 H 0.962000 0.544000 0.654400
H79 H 0.489900 0.088800 0.803800
H80 H 0.798000 0.970000 0.659500
H81 H 0.470000 0.105100 0.729800
H82 H 1.057000 0.670000 0.663800
H83 H 0.975000 0.694000 0.620500
H84 H 0.507500 0.853300 1.020900
H85 H 0.607000 0.124900 0.870800
H86 H 0.529900 0.629600 1.078600
H87 H 0.682500 0.435100 1.052900
H88 H 0.781900 0.389500 0.799800
H89 H 0.718100 0.889500 0.799800
H90 H 0.817500 -0.064900 1.052900
H91 H 0.893000 0.624900 0.870800
H92 H 1.030000 0.605100 0.729800
H93 H 0.970100 0.129600 1.078600
H94 H 1.010100 0.588800 0.803800
H95 H 0.470100 0.129600 0.421400
H96 H 0.992500 0.353300 1.020900
H97 H 0.525000 0.194000 0.620500
H98 H 0.443000 0.170000 0.663800
H99 H 0.702000 0.470000 0.659500
H100 H 0.538000 0.044000 0.654400
H101 H 0.668000 0.359000 0.619500
H102 H 0.773000 0.302000 0.648000
H103 H 0.735800 0.907900 0.726000
H104 H 0.791500 0.851800 0.430900
H105 H 0.791500 0.648200 0.930900
H106 H 0.727000 0.698000 0.148000
H107 H 0.735800 0.592100 0.226000
H108 H 0.832000 0.641000 0.119500
H109 H 0.962000 0.956000 0.154400
H110 H 0.798000 0.530000 0.159500
H111 H 1.057000 0.830000 0.163800
H112 H 0.975000 0.806000 0.120500
H113 H 1.010100 0.911200 0.303800
H114 H 0.507500 0.646700 0.520900
H115 H 1.030000 0.894900 0.229800
H116 H 0.107000 0.124900 0.629200
H117 H 0.529900 0.870400 0.578600
H118 H 0.682500 1.064900 0.552900
H119 H 0.893000 0.875100 0.370800
H120 H 0.718100 0.610500 0.299800
C121 C 0.780900 0.668900 0.285860
C122 C 0.803200 0.647500 0.148770
C123 C 0.656400 0.969900 0.537950
C124 C 0.844800 0.795000 0.356830
C125 C 0.637500 0.778500 0.487760
C126 C 0.572500 0.864000 0.552290
C127 C 0.155200 0.205000 0.643170
C128 C 0.660900 0.697400 0.446290
C129 C 0.559900 0.739000 0.519970
C130 C 0.966300 0.837900 0.243610
C131 C 0.954000 0.847100 0.288100
C132 C 0.019200 0.160400 0.848590
C133 C 0.883600 0.743600 0.219120
C134 C 0.861200 0.764600 0.310560
C135 C 0.440100 0.261000 0.480030
C136 C 0.791300 0.657900 0.241510
C137 C 0.339100 0.302600 0.553710
C138 C 0.033700 0.162100 0.756390
C139 C 0.208700 0.157900 0.258490
C140 C 0.791300 0.842100 0.741510
C141 C 0.046000 0.152900 0.711900
C142 C 0.940100 0.261000 1.019970
C143 C 0.861200 0.735400 0.810560
C144 C 0.883600 0.756400 0.719120
C145 C 0.427500 0.136000 0.447710
C146 C 0.954000 0.652900 0.788100
C147 C 0.519200 0.160400 0.651410
C148 C 0.966300 0.662100 0.743610
C149 C 0.927500 0.136000 1.052290
C150 C 0.660900 0.802600 0.946290
C151 C 0.196800 0.352500 0.851230
C152 C 0.844800 0.705000 0.856830
C153 C 0.862500 0.221500 0.987760
C154 C 0.803200 0.852500 0.648770
C155 C 0.780900 0.831100 0.785860
C156 C 0.843600 0.030100 1.037950
C157 C 0.656400 0.530100 1.037950
C158 C 0.719100 0.331100 0.785860
C159 C 0.637500 0.721500 0.987760
C160 C 0.572500 0.636000 1.052290
C161 C 0.696800 0.352500 0.648770
C162 C 0.980800 0.660400 0.651410
C163 C 0.559900 0.761000 1.019970
C164 C 0.655200 0.205000 0.856830
C165 C 0.116400 0.256400 0.780880
C166 C 0.839100 0.302600 0.946290
C167 C 0.533700 0.162100 0.743610
C168 C 0.546000 0.152900 0.788100
C169 C 0.616400 0.256400 0.719120
C170 C 0.638800 0.235400 0.810560
C171 C 0.138800 0.235400 0.689440
C172 C 0.708700 0.342100 0.741510
C173 C 0.219100 0.331100 0.714140
C174 C 0.708700 0.157900 0.241510
C175 C 0.138800 0.264600 0.189440
C176 C 0.362500 0.221500 0.512240
C177 C 0.638800 0.264600 0.310560
C178 C 0.616400 0.243600 0.219120
C179 C 0.208700 0.342100 0.758490
C180 C 0.546000 0.347100 0.288100
C181 C 0.059900 0.761000 0.480030
C182 C 0.533700 0.337900 0.243610
C183 C 0.480800 0.660400 0.848590
C184 C 0.839100 0.197400 0.446290
C185 C 0.116400 0.243600 0.280880
C186 C 0.655200 0.295000 0.356830
C187 C 0.072500 0.636000 0.447710
C188 C 0.696800 0.147500 0.148770
C189 C 0.719100 0.168900 0.285860
C190 C 0.137500 0.721500 0.512240
C191 C 0.843600 0.469900 0.537950
C192 C 0.156400 0.530100 0.462050
C193 C 0.862500 0.278500 0.487760
C194 C 0.927500 0.364000 0.552290
C195 C 0.280900 0.831100 0.714140
C196 C 0.519200 0.339600 0.151410
C197 C 0.940100 0.239000 0.519970
C198 C 0.303200 0.852500 0.851230
C199 C 0.344800 0.705000 0.643170
C200 C 0.046000 0.347100 0.211900
C201 C 0.160900 0.802600 0.553710
C202 C 0.466300 0.662100 0.756390
C203 C 0.454000 0.652900 0.711900
C204 C 0.383600 0.756400 0.780880
C205 C 0.033700 0.337900 0.256390
C206 C 0.361200 0.735400 0.689440
C207 C 0.339100 0.197400 0.053710
C208 C 0.291300 0.657900 0.258490
C209 C 0.291300 0.842100 0.758490
C210 C 0.343600 0.030100 0.462050
C211 C 0.361200 0.764600 0.189440
C212 C 0.383600 0.743600 0.280880
C213 C 0.155200 0.295000 0.143170
C214 C 0.454000 0.847100 0.211900
C215 C 0.196800 0.147500 0.351230
C216 C 0.466300 0.837900 0.256390
C217 C 0.440100 0.239000 -0.019970
C218 C 0.160900 0.697400 0.053710
C219 C 0.219100 0.168900 0.214140
C220 C 0.344800 0.795000 0.143170
C221 C 0.019200 0.339600 0.348590
C222 C 0.303200 0.647500 0.351230
C223 C 0.280900 0.668900 0.214140
C224 C 0.427500 0.364000 -0.052290
C225 C 0.156400 0.969900 -0.037950
C226 C 0.362500 0.278500 0.012240
C227 C 0.137500 0.778500 0.012240
C228 C 0.072500 0.864000 -0.052290
C229 C 0.343600 0.469900 -0.037950
C230 C 0.480800 0.839600 0.348590
C231 C 0.059900 0.739000 -0.019970
C232 C 0.980800 0.839600 0.151410
N233 N 0.247600 0.729400 0.579060
N234 N 0.264300 0.787500 0.621260
N235 N 0.106800 0.235500 0.325920
N236 N 0.264300 0.712500 0.121260
N237 N 0.247600 0.770600 0.079060
N238 N 0.393200 0.764500 0.825920
N239 N 0.252400 0.229400 0.579060
N240 N 0.606800 0.235500 0.174080
N241 N 0.235700 0.287500 0.621260
N242 N 0.752400 0.229400 0.920940
N243 N 0.735700 0.287500 0.878740
N244 N 0.735700 0.212500 0.378740
N245 N 0.752400 0.270600 0.420940
N246 N 0.606800 0.264500 0.674080
N247 N 0.893200 0.764500 0.674080
N248 N 0.747600 0.770600 0.420940
N249 N 0.764300 0.787500 0.878740
N250 N 0.764300 0.712500 0.378740
N251 N 0.235700 0.212500 0.121260
N252 N 0.747600 0.729400 0.920940
N253 N 0.106800 0.264500 0.825920
N254 N 0.893200 0.735500 0.174080
N255 N 0.393200 0.735500 0.325920
N256 N 0.252400 0.270600 0.079060
O257 O 0.396750 0.427800 0.564310
O258 O 0.199600 0.921100 0.001870
O259 O 0.103250 0.572200 0.064310
O260 O 0.800400 0.421100 0.498130
O261 O 0.896750 0.072200 0.435690
O262 O 0.699600 0.578900 0.998130
O263 O 0.603250 0.927800 0.935690
O264 O 0.699600 0.921100 0.498130
O265 O 0.603250 0.572200 0.435690
O266 O 0.800400 0.078900 0.998130
O267 O 0.896750 0.427800 0.935690
O268 O 0.199600 0.578900 0.501870
O269 O 0.103250 0.927800 0.564310
O270 O 0.300400 0.421100 0.001870
O271 O 0.396750 0.072200 0.064310
O272 O 0.300400 0.078900 0.501870

#END
