
#######################################################################
#
#                 Cambridge Crystallographic Data Centre
#                                CCDC 
#
#######################################################################
#
# If this CIF has been generated from an entry in the Cambridge 
# Structural Database, then it will include bibliographic, chemical, 
# crystal, experimental, refinement or atomic coordinate data resulting 
# from the CCDC's data processing and validation procedures.
#
#######################################################################

data_ABABEM
_symmetry_cell_setting           triclinic
_symmetry_space_group_name_H-M   'P -1'
_symmetry_Int_Tables_number      2
_space_group_name_Hall           '-P 1'
loop_
_symmetry_equiv_pos_site_id
_symmetry_equiv_pos_as_xyz
1 x,y,z
2 -x,-y,-z
_cell_length_a                   7.8400(16)
_cell_length_b                   10.464(2)
_cell_length_c                   10.514(2)
_cell_angle_alpha                63.84(3)
_cell_angle_beta                 79.62(3)
_cell_angle_gamma                89.42(3)
_cell_volume                     759.171
loop_
_atom_site_label
_atom_site_type_symbol
_atom_site_fract_x
_atom_site_fract_y
_atom_site_fract_z
S1 S -0.09731(11) 0.82576(8) 0.04086(8)
O1 O -0.3185(3) 0.5944(3) 0.1791(3)
O2 O 0.2479(3) 0.8734(2) -0.0219(2)
N1 N -0.0292(2) 0.5625(2) 0.1507(2)
N2 N 0.1318(3) 0.6432(2) 0.1083(2)
C1 C 0.2837(3) 0.5721(3) 0.0768(3)
H1 H 0.3892 0.6300 0.0591
H2 H 0.2803 0.5604 -0.0092
C2 C 0.2842(4) 0.4278(3) 0.2034(3)
H3 H 0.3027 0.4404 0.2860
H4 H 0.3789 0.3771 0.1791
C3 C 0.1134(4) 0.3408(3) 0.2418(3)
H5 H 0.1002 0.3205 0.1623
H6 H 0.1137 0.2505 0.3261
C4 C -0.0370(4) 0.4199(3) 0.2726(3)
H7 H -0.1456 0.3669 0.2878
H8 H -0.0326 0.4290 0.3599
C5 C -0.1691(3) 0.6421(3) 0.1356(3)
C6 C 0.1243(4) 0.7859(3) 0.0365(3)
S1 S 1.09731(11) 0.17424(8) 0.95914(8)
O1 O 1.3185(3) 0.4056(3) 0.8209(3)
O2 O 0.7521(3) 0.1266(2) 1.0219(2)
N1 N 1.0292(2) 0.4375(2) 0.8493(2)
N2 N 0.8682(3) 0.3568(2) 0.8917(2)
C1 C 0.7163(3) 0.4279(3) 0.9232(3)
H1 H 0.6108 0.3700 0.9409
H2 H 0.7197 0.4396 1.0092
C2 C 0.7158(4) 0.5722(3) 0.7966(3)
H3 H 0.6973 0.5596 0.7140
H4 H 0.6211 0.6229 0.8209
C3 C 0.8866(4) 0.6592(3) 0.7582(3)
H5 H 0.8998 0.6795 0.8377
H6 H 0.8863 0.7495 0.6739
C4 C 1.0370(4) 0.5801(3) 0.7274(3)
H7 H 1.1456 0.6331 0.7122
H8 H 1.0326 0.5710 0.6401
C5 C 1.1691(3) 0.3579(3) 0.8644(3)
C6 C 0.8757(4) 0.2141(3) 0.9635(3)
S2 S 0.16047(9) 0.00770(8) 0.62686(8)
O3 O 0.3930(3) -0.1856(2) 0.6988(2)
O4 O 0.1494(2) 0.2796(2) 0.5788(2)
N3 N 0.4698(2) 0.0396(2) 0.6615(2)
N4 N 0.3934(3) 0.1675(2) 0.6431(2)
C7 C 0.5149(3) 0.2948(3) 0.5815(3)
H9 H 0.4534 0.3749 0.5837
H10 H 0.5648 0.3187 0.4817
C8 C 0.6568(4) 0.2672(3) 0.6669(3)
H11 H 0.6083 0.2567 0.7629
H12 H 0.7430 0.3483 0.6203
C9 C 0.7431(3) 0.1341(3) 0.6786(3)
H13 H 0.8298 0.1158 0.7384
H14 H 0.8015 0.1481 0.5833
C10 C 0.6102(3) 0.0070(3) 0.7438(3)
H15 H 0.6655 -0.0756 0.7418
H16 H 0.5628 -0.0153 0.8437
C11 C 0.3614(3) -0.0634(3) 0.6686(3)
C12 C 0.2314(3) 0.1752(3) 0.6121(3)
S2 S 0.83953(9) 0.99230(8) 0.37314(8)
O3 O 0.6070(3) 1.1856(2) 0.3012(2)
O4 O 0.8506(2) 0.7204(2) 0.4212(2)
N3 N 0.5302(2) 0.9604(2) 0.3385(2)
N4 N 0.6066(3) 0.8325(2) 0.3569(2)
C7 C 0.4851(3) 0.7052(3) 0.4185(3)
H9 H 0.5466 0.6251 0.4163
H10 H 0.4352 0.6813 0.5183
C8 C 0.3432(4) 0.7328(3) 0.3331(3)
H11 H 0.3917 0.7433 0.2371
H12 H 0.2570 0.6517 0.3797
C9 C 0.2569(3) 0.8659(3) 0.3214(3)
H13 H 0.1702 0.8842 0.2616
H14 H 0.1985 0.8519 0.4167
C10 C 0.3898(3) 0.9930(3) 0.2562(3)
H15 H 0.3345 1.0756 0.2582
H16 H 0.4372 1.0153 0.1563
C11 C 0.6386(3) 1.0634(3) 0.3314(3)
C12 C 0.7686(3) 0.8248(3) 0.3879(3)

#END
