
#######################################################################
#
#                 Cambridge Crystallographic Data Centre
#                                CCDC 
#
#######################################################################
#
# If this CIF has been generated from an entry in the Cambridge 
# Structural Database, then it will include bibliographic, chemical, 
# crystal, experimental, refinement or atomic coordinate data resulting 
# from the CCDC's data processing and validation procedures.
#
#######################################################################

data_ABACAI
_symmetry_cell_setting           triclinic
_symmetry_space_group_name_H-M   'P -1'
_symmetry_Int_Tables_number      2
_space_group_name_Hall           '-P 1'
loop_
_symmetry_equiv_pos_site_id
_symmetry_equiv_pos_as_xyz
1 x,y,z
2 -x,-y,-z
_cell_length_a                   10.803(2)
_cell_length_b                   11.090(2)
_cell_length_c                   11.7230(10)
_cell_angle_alpha                76.48(2)
_cell_angle_beta                 79.630(10)
_cell_angle_gamma                62.65(2)
_cell_volume                     1208.62
loop_
_atom_site_label
_atom_site_type_symbol
_atom_site_fract_x
_atom_site_fract_y
_atom_site_fract_z
N1 N 0.8898(4) 0.9687(4) 0.6293(3)
H1 H 0.9394(42) 1.0261(42) 0.5921(35)
O1 O 1.0174(3) 0.8373(3) 0.4897(3)
C1 C 0.7963(5) 0.9943(5) 0.7236(4)
C2 C 0.7453(5) 1.1189(5) 0.7791(4)
H2 H 0.6824(5) 1.2005(5) 0.7303(4)
H3 H 0.8225(5) 1.1338(5) 0.7931(4)
C3 C 0.6689(6) 1.0828(5) 0.8944(5)
H4 H 0.5840(6) 1.1630(5) 0.9117(5)
H5 H 0.7279(6) 1.0505(5) 0.9588(5)
C4 C 0.6339(5) 0.9683(5) 0.8780(4)
H6 H 0.6492(5) 0.8979(5) 0.9480(4)
H7 H 0.5377(5) 1.0056(5) 0.8597(4)
C5 C 0.7347(4) 0.9110(4) 0.7753(4)
C6 C 0.7741(4) 0.7873(4) 0.7293(4)
C7 C 0.7089(5) 0.6900(5) 0.7738(4)
C8 C 0.5744(5) 0.7308(5) 0.8312(4)
H8 H 0.5242(5) 0.8206(5) 0.8458(4)
C9 C 0.5156(5) 0.6407(6) 0.8662(4)
H9 H 0.4259(5) 0.6698(6) 0.9040(4)
C10 C 0.5888(6) 0.5059(6) 0.8458(4)
H10 H 0.5488(6) 0.4446(6) 0.8692(4)
C11 C 0.7225(6) 0.4646(5) 0.7899(4)
H11 H 0.7729(6) 0.3740(5) 0.7774(4)
C12 C 0.7832(5) 0.5557(5) 0.7519(4)
C13 C 0.9251(5) 0.5113(4) 0.6878(4)
H12 H 0.9482(5) 0.4303(4) 0.6548(4)
H13 H 0.9941(5) 0.4874(4) 0.7421(4)
C14 C 0.9282(5) 0.6273(5) 0.5898(4)
H14 H 1.0232(5) 0.6025(5) 0.5544(4)
H15 H 0.8702(5) 0.6411(5) 0.5293(4)
C15 C 0.8757(4) 0.7586(4) 0.6373(4)
C16 C 0.9339(5) 0.8523(5) 0.5811(4)
N1 N 0.1102(4) 0.0313(4) 0.3707(3)
H1 H 0.0606(42) -0.0261(42) 0.4079(35)
O1 O -0.0174(3) 0.1627(3) 0.5103(3)
C1 C 0.2037(5) 0.0057(5) 0.2764(4)
C2 C 0.2547(5) -0.1189(5) 0.2209(4)
H2 H 0.3176(5) -0.2005(5) 0.2697(4)
H3 H 0.1775(5) -0.1338(5) 0.2069(4)
C3 C 0.3311(6) -0.0828(5) 0.1056(5)
H4 H 0.4160(6) -0.1630(5) 0.0883(5)
H5 H 0.2721(6) -0.0505(5) 0.0412(5)
C4 C 0.3661(5) 0.0317(5) 0.1220(4)
H6 H 0.3508(5) 0.1021(5) 0.0520(4)
H7 H 0.4623(5) -0.0056(5) 0.1403(4)
C5 C 0.2653(4) 0.0890(4) 0.2247(4)
C6 C 0.2259(4) 0.2127(4) 0.2707(4)
C7 C 0.2911(5) 0.3100(5) 0.2262(4)
C8 C 0.4256(5) 0.2692(5) 0.1688(4)
H8 H 0.4758(5) 0.1794(5) 0.1542(4)
C9 C 0.4844(5) 0.3593(6) 0.1338(4)
H9 H 0.5741(5) 0.3302(6) 0.0960(4)
C10 C 0.4112(6) 0.4941(6) 0.1542(4)
H10 H 0.4512(6) 0.5554(6) 0.1308(4)
C11 C 0.2775(6) 0.5354(5) 0.2101(4)
H11 H 0.2271(6) 0.6260(5) 0.2226(4)
C12 C 0.2168(5) 0.4443(5) 0.2481(4)
C13 C 0.0749(5) 0.4887(4) 0.3122(4)
H12 H 0.0518(5) 0.5697(4) 0.3452(4)
H13 H 0.0059(5) 0.5126(4) 0.2579(4)
C14 C 0.0718(5) 0.3727(5) 0.4102(4)
H14 H -0.0232(5) 0.3975(5) 0.4456(4)
H15 H 0.1298(5) 0.3589(5) 0.4707(4)
C15 C 0.1243(4) 0.2414(4) 0.3627(4)
C16 C 0.0661(5) 0.1477(5) 0.4189(4)
O2 O -0.0110(4) 0.8435(3) 1.0181(3)
N2 N 0.1016(4) 0.9363(4) 0.8676(3)
H16 H 0.0554(44) 1.0235(46) 0.8978(36)
C17 C 0.1848(5) 0.9307(5) 0.7660(4)
C18 C 0.2301(5) 1.0405(5) 0.7065(4)
H17 H 0.2676(5) 1.0657(5) 0.7615(4)
H18 H 0.1528(5) 1.1222(5) 0.6714(4)
C19 C 0.3431(6) 0.9734(5) 0.6121(4)
H19 H 0.4348(6) 0.9504(5) 0.6339(4)
H20 H 0.3280(6) 1.0356(5) 0.5371(4)
C20 C 0.3327(5) 0.8411(5) 0.6034(4)
H21 H 0.2930(5) 0.8529(5) 0.5314(4)
H22 H 0.4240(5) 0.7627(5) 0.6054(4)
C21 C 0.2373(4) 0.8215(4) 0.7103(4)
C22 C 0.2062(4) 0.7067(4) 0.7624(4)
C23 C 0.2613(4) 0.5790(5) 0.7108(4)
C24 C 0.3017(5) 0.5748(5) 0.5926(4)
H23 H 0.2952(5) 0.6554(5) 0.5420(4)
C25 C 0.3513(5) 0.4554(6) 0.5467(5)
H24 H 0.3764(5) 0.4560(6) 0.4665(5)
C26 C 0.3630(6) 0.3353(6) 0.6217(5)
H25 H 0.3994(6) 0.2534(6) 0.5926(5)
C27 C 0.3209(5) 0.3366(5) 0.7396(5)
H26 H 0.3273(5) 0.2555(5) 0.7892(5)
C28 C 0.2691(4) 0.4569(5) 0.7858(4)
C29 C 0.2194(5) 0.4595(4) 0.9131(4)
H27 H 0.2940(5) 0.4480(4) 0.9561(4)
H28 H 0.1948(5) 0.3837(4) 0.9452(4)
C30 C 0.0928(5) 0.5953(4) 0.9283(4)
H29 H 0.0136(5) 0.6002(4) 0.8962(4)
H30 H 0.0686(5) 0.6002(4) 1.0114(4)
C31 C 0.1237(5) 0.7136(4) 0.8668(4)
C32 C 0.0650(5) 0.8329(4) 0.9231(4)
O2 O 1.0110(4) 0.1565(3) -0.0181(3)
N2 N 0.8984(4) 0.0637(4) 0.1324(3)
H16 H 0.9446(44) -0.0235(46) 0.1022(36)
C17 C 0.8152(5) 0.0693(5) 0.2340(4)
C18 C 0.7699(5) -0.0405(5) 0.2935(4)
H17 H 0.7324(5) -0.0657(5) 0.2385(4)
H18 H 0.8472(5) -0.1222(5) 0.3286(4)
C19 C 0.6569(6) 0.0266(5) 0.3879(4)
H19 H 0.5652(6) 0.0496(5) 0.3661(4)
H20 H 0.6720(6) -0.0356(5) 0.4629(4)
C20 C 0.6673(5) 0.1589(5) 0.3966(4)
H21 H 0.7070(5) 0.1471(5) 0.4686(4)
H22 H 0.5760(5) 0.2373(5) 0.3946(4)
C21 C 0.7627(4) 0.1785(4) 0.2897(4)
C22 C 0.7938(4) 0.2933(4) 0.2376(4)
C23 C 0.7387(4) 0.4210(5) 0.2892(4)
C24 C 0.6983(5) 0.4252(5) 0.4074(4)
H23 H 0.7048(5) 0.3446(5) 0.4580(4)
C25 C 0.6487(5) 0.5446(6) 0.4533(5)
H24 H 0.6236(5) 0.5440(6) 0.5335(5)
C26 C 0.6370(6) 0.6647(6) 0.3783(5)
H25 H 0.6006(6) 0.7466(6) 0.4074(5)
C27 C 0.6791(5) 0.6634(5) 0.2604(5)
H26 H 0.6727(5) 0.7445(5) 0.2108(5)
C28 C 0.7309(4) 0.5431(5) 0.2142(4)
C29 C 0.7806(5) 0.5405(4) 0.0869(4)
H27 H 0.7060(5) 0.5520(4) 0.0439(4)
H28 H 0.8052(5) 0.6163(4) 0.0548(4)
C30 C 0.9072(5) 0.4047(4) 0.0717(4)
H29 H 0.9864(5) 0.3998(4) 0.1038(4)
H30 H 0.9314(5) 0.3998(4) -0.0114(4)
C31 C 0.8763(5) 0.2864(4) 0.1332(4)
C32 C 0.9350(5) 0.1671(4) 0.0769(4)

#END
