./LADBEX_from_POSCAR.cif_generated_by_CrystalShift
_symmetry_cell_setting triclinic
_symmetry_space_group_name_H-M 'P 1'
loop_
_symmetry_equiv_pos_site_id
_symmetry_equiv_pos_as_xyz
1 x,y,z
_cell_length_a 9.906700
_cell_length_b 13.377900
_cell_length_c 9.890600
_cell_angle_alpha 102.151000
_cell_angle_beta 94.192000
_cell_angle_gamma 87.025000
_cell_volume 1277.117706
loop_
_atom_site_label
_atom_site_type_symbol
_atom_site_fract_x
_atom_site_fract_y
_atom_site_fract_z
H1 H 0.822000 -0.065000 1.034000
H2 H 0.837000 0.443000 0.116000
H3 H 0.851000 0.534000 0.352000
H4 H 0.898000 0.431000 0.520000
H5 H 0.922000 0.257000 0.458000
H6 H 0.826000 -0.211000 0.135000
H7 H 0.899000 -0.371000 0.125000
H8 H 1.123000 -0.401000 0.195000
H9 H 1.274000 -0.281000 0.265000
H10 H 1.211000 -0.120000 0.270000
H11 H 0.751000 0.077000 0.092000
H12 H 0.304000 0.928000 0.054000
H13 H 0.129000 0.733000 0.939000
H14 H 0.163000 0.557000 0.884000
H15 H 0.149000 0.466000 0.648000
H16 H 0.102000 0.569000 0.480000
H17 H 0.078000 0.743000 0.542000
H18 H 0.174000 1.211000 0.865000
H19 H 0.267000 0.072000 0.099000
H20 H 0.585000 -0.141000 0.396000
H21 H 0.652000 -0.297000 0.395000
H22 H 0.609000 -0.422000 0.201000
H23 H 0.528000 -0.381000 0.008000
H24 H 0.474000 -0.223000 0.000000
H25 H 0.607000 0.265000 0.323000
H26 H 0.568000 0.434000 0.371000
H27 H 0.355000 0.517000 0.365000
H28 H 0.173000 0.395000 0.273000
H29 H 0.210000 0.237000 0.218000
H30 H 0.696000 0.072000 0.946000
H31 H 0.101000 1.371000 0.875000
H32 H -0.123000 1.401000 0.805000
H33 H -0.274000 1.281000 0.735000
H34 H -0.211000 1.120000 0.730000
H35 H 0.249000 0.923000 0.908000
H36 H 0.178000 1.065000 -0.034000
H37 H 0.790000 0.763000 0.782000
H38 H 0.827000 0.605000 0.727000
H39 H 0.645000 0.483000 0.635000
H40 H 0.432000 0.566000 0.629000
H41 H 0.393000 0.735000 0.677000
H42 H 0.526000 1.223000 1.000000
H43 H 0.472000 1.381000 0.992000
H44 H 0.391000 1.422000 0.799000
H45 H 0.348000 1.297000 0.605000
H46 H 0.415000 1.141000 0.604000
H47 H 0.733000 0.928000 0.901000
H48 H 0.871000 0.267000 0.061000
C49 C 0.740400 0.623800 0.718700
C50 C 0.633000 0.562600 0.671900
C51 C 0.507200 0.605600 0.659000
C52 C 0.485300 0.712000 0.691400
C53 C 0.593800 0.773700 0.737800
C54 C 0.494700 1.235800 0.924200
C55 C 0.459600 1.337500 0.921800
C56 C 0.407800 1.363500 0.801500
C57 C 0.391500 1.290600 0.682500
C58 C 0.426100 1.188800 0.683200
C59 C 0.479700 1.160200 0.805100
C60 C 0.473400 -0.054600 0.192000
C61 C 0.509900 0.040900 0.267400
C62 C 0.036600 1.040300 0.806100
C63 C 0.083400 0.872300 0.782700
C64 C 0.003000 0.944200 0.727400
C65 C -0.011200 1.144800 0.798100
C66 C -0.142200 1.168100 0.755000
C67 C -0.184500 1.269000 0.755200
C68 C -0.095600 1.346100 0.799400
C69 C 0.035400 1.324600 0.840200
C70 C 0.079600 1.224500 0.840900
C71 C 0.098000 0.759100 0.742900
C72 C 0.092100 0.708900 0.605700
C73 C 0.111800 0.603300 0.571200
C74 C 0.138300 0.548000 0.673000
C75 C 0.146900 0.597800 0.810400
C76 C 0.127000 0.703300 0.845800
C77 C 0.576500 0.886600 0.779600
C78 C 0.490100 0.959100 0.732600
C79 C 0.526600 1.054600 0.808000
C80 C 0.423500 0.113400 0.220400
C81 C 0.520300 -0.160200 0.194900
C82 C 0.277900 0.271000 0.249200
C83 C 0.259600 0.376200 0.281300
C84 C 0.367000 0.437400 0.328100
C85 C 0.492800 0.394400 0.341000
C86 C 0.514700 0.288000 0.308600
C87 C 0.406200 0.226300 0.262200
C88 C 0.505300 -0.235800 0.075800
C89 C 0.573900 -0.188800 0.316800
C90 C 0.608500 -0.290600 0.317500
C91 C 0.963400 -0.040300 0.193900
C92 C 0.916600 0.127700 0.217300
C93 C 0.997000 0.055800 0.272600
C94 C 1.011200 -0.144800 0.201900
C95 C 1.142200 -0.168100 0.245000
C96 C 1.184500 -0.269000 0.244800
C97 C 1.095600 -0.346100 0.200600
C98 C 0.964600 -0.324600 0.159800
C99 C 0.920400 -0.224500 0.159100
C100 C 0.902000 0.240900 0.257100
C101 C 0.907900 0.291100 0.394300
C102 C 0.888200 0.396700 0.428800
C103 C 0.861700 0.452000 0.327000
C104 C 0.853100 0.402200 0.189600
C105 C 0.873000 0.296700 0.154200
C106 C 0.540400 -0.337500 0.078200
C107 C 0.592200 -0.363500 0.198500
C108 C 0.722100 0.729000 0.750800
N109 N 0.840800 0.077300 0.109400
N110 N 0.659000 0.937100 0.881300
N111 N 0.629200 1.038600 0.899400
N112 N 0.131300 1.024600 0.904000
N113 N 0.159200 0.922700 0.890600
N114 N 0.370800 -0.038600 0.100600
N115 N 0.341000 0.062900 0.118700
N116 N 0.868700 -0.024600 0.096000
Br117 Br -0.121030 0.916490 0.573670
Br118 Br 0.350190 0.933160 0.593130
Br119 Br 0.649810 0.066840 0.406870
Br120 Br 1.121030 0.083510 0.426330

#END
