./LADBEZ01_from_POSCAR.cif_generated_by_CrystalShift
_symmetry_cell_setting triclinic
_symmetry_space_group_name_H-M 'P 1'
loop_
_symmetry_equiv_pos_site_id
_symmetry_equiv_pos_as_xyz
1 x,y,z
_cell_length_a 6.604500
_cell_length_b 7.960100
_cell_length_c 11.100400
_cell_angle_alpha 90.000000
_cell_angle_beta 99.625000
_cell_angle_gamma 90.000000
_cell_volume 575.360672
loop_
_atom_site_label
_atom_site_type_symbol
_atom_site_fract_x
_atom_site_fract_y
_atom_site_fract_z
H1 H -0.006000 0.947000 0.312000
H2 H 0.494000 0.053000 0.812000
H3 H 0.841500 0.669500 0.340000
H4 H 0.313000 -0.044000 0.706000
H5 H 0.532300 0.522000 0.296400
H6 H 0.342000 -0.026000 0.510000
H7 H 0.447300 0.715100 0.098400
H8 H 0.446400 0.582800 0.647000
H9 H 0.514900 0.056500 0.353700
H10 H 0.762600 0.722500 0.692000
H11 H 0.812900 0.213400 0.393800
H12 H -0.187000 1.044000 0.206000
H13 H -0.158000 1.026000 0.010000
H14 H 0.014900 0.943500 -0.146300
H15 H 0.947300 0.284900 0.598400
H16 H 0.776000 0.206400 0.753900
H17 H 0.341500 0.330500 -0.160000
H18 H 0.312900 0.786600 -0.106200
H19 H 0.032300 0.478000 -0.203600
H20 H 0.262600 0.277500 0.192000
H21 H 0.276000 0.793600 0.253900
H22 H -0.053600 0.417200 0.147000
C23 C 0.028200 0.400900 0.085200
C24 C -0.037000 0.460200 -0.031900
C25 C 0.534400 0.197500 0.052400
C26 C 0.069800 0.913500 -0.064500
C27 C 0.078600 0.436000 -0.123600
C28 C 0.244900 0.821200 -0.041400
C29 C 0.543000 0.077500 0.646000
C30 C 0.724100 0.174500 0.672100
C31 C 0.262700 0.349500 -0.097060
C32 C 0.823600 0.222000 0.580400
C33 C 0.334000 0.290100 0.019920
C34 C 0.744900 0.178800 0.458600
C35 C 1.034400 0.802500 0.552400
C36 C 0.569800 0.086500 0.435500
C37 C 0.715200 0.683100 0.611500
C38 C 0.528200 0.599100 0.585200
C39 C 0.323600 0.778000 0.080400
C40 C 0.463000 0.539800 0.468100
C41 C 0.578600 0.564000 0.376400
C42 C 0.762700 0.650500 0.402940
C43 C 0.043000 0.922500 0.146000
C44 C 0.224100 0.825500 0.172100
C45 C 0.215200 0.316900 0.111500
C46 C 0.834000 0.709900 0.519920
N47 N 0.472300 0.036700 0.527690
N48 N -0.060700 0.976300 0.231160
N49 N -0.027700 0.963300 0.027690
N50 N 0.439300 0.023700 0.731160
O51 O 0.607500 0.185100 0.163600
O52 O 1.117100 0.860400 0.466390
O53 O 1.107500 0.814900 0.663600
O54 O 0.617100 0.139600 -0.033610
Cl55 Cl 0.232980 0.429300 0.436690
Cl56 Cl -0.267020 0.570700 -0.063310

#END
