./LADBUP_from_POSCAR.cif_generated_by_CrystalShift
_symmetry_cell_setting triclinic
_symmetry_space_group_name_H-M 'P 1'
loop_
_symmetry_equiv_pos_site_id
_symmetry_equiv_pos_as_xyz
1 x,y,z
_cell_length_a 7.972700
_cell_length_b 6.295600
_cell_length_c 24.628600
_cell_angle_alpha 90.000000
_cell_angle_beta 90.580000
_cell_angle_gamma 90.000000
_cell_volume 1236.118261
loop_
_atom_site_label
_atom_site_type_symbol
_atom_site_fract_x
_atom_site_fract_y
_atom_site_fract_z
H1 H 0.112400 0.828100 0.771700
H2 H 1.043900 0.372400 0.166400
H3 H 0.405000 0.232000 0.199500
H4 H 1.037600 -0.126800 0.061000
H5 H -0.043900 0.627600 0.833600
H6 H 0.322000 -0.112000 0.230400
H7 H 0.311000 -0.308000 0.198200
H8 H 0.878700 -0.323500 0.123000
H9 H 0.434200 -0.298100 0.102800
H10 H 0.878700 0.823500 0.623000
H11 H 0.582400 -0.100400 0.039400
H12 H 0.112400 0.671900 0.271700
H13 H -0.043900 0.872400 0.333600
H14 H 0.571400 0.405900 0.140300
H15 H 1.037600 0.626800 0.561000
H16 H -0.037600 0.373200 0.439000
H17 H 0.595000 0.732000 0.300500
H18 H 0.121300 0.176500 0.377000
H19 H -0.037600 1.126800 0.939000
H20 H 0.678000 0.388000 0.269600
H21 H 0.689000 0.192000 0.301800
H22 H 1.043900 0.127600 0.666400
H23 H 0.565800 0.201900 0.397200
H24 H 0.571400 0.094100 0.640300
H25 H 0.417600 0.399600 0.460600
H26 H 0.582400 0.600400 0.539400
H27 H 0.434200 0.798100 0.602800
H28 H 0.428600 0.905900 0.359700
H29 H 0.311000 0.808000 0.698200
H30 H 0.121300 1.323500 0.877000
H31 H 0.595000 0.768000 0.800500
H32 H 0.322000 0.612000 0.730400
H33 H 0.887600 0.328100 0.728300
H34 H 0.678000 1.112000 0.769600
H35 H 0.689000 1.308000 0.801800
H36 H 0.405000 0.268000 0.699500
H37 H 0.565800 1.298100 0.897200
H38 H 0.428600 0.594100 0.859700
H39 H 0.417600 1.100400 0.960600
H40 H 0.887600 0.171900 0.228300
C41 C 0.456600 0.737400 0.867830
C42 C 0.450100 1.037700 0.927270
C43 C 0.244500 1.217300 0.780420
C44 C 0.134900 1.093100 0.818930
C45 C 0.537200 1.154400 0.889730
C46 C 0.415900 0.560500 0.660000
C47 C 0.088300 1.182300 0.868410
C48 C 0.584100 1.060500 0.840000
C49 C -0.005700 1.066800 0.905220
C50 C 0.462800 0.654400 0.610270
C51 C 0.456600 0.762600 0.367830
C52 C 0.549900 0.537700 0.572730
C53 C 0.409300 0.675800 0.415860
C54 C 0.590700 0.324200 0.584140
C55 C 0.543400 0.237400 0.632170
C56 C 0.450100 0.462300 0.427270
C57 C 0.134900 0.406900 0.318930
C58 C 0.244500 0.282700 0.280420
C59 C 0.916600 0.387300 0.694220
C60 C 0.537200 0.345600 0.389730
C61 C 0.088300 0.317700 0.368410
C62 C 0.584100 0.439500 0.340000
C63 C -0.005700 0.433200 0.405220
C64 C -0.051900 0.860600 0.891280
C65 C -0.051900 0.639400 0.391280
C66 C 1.009800 0.268400 0.657870
C67 C 1.051900 0.360600 0.608720
C68 C -0.009800 0.768400 0.842130
C69 C -0.009800 0.731600 0.342130
C70 C 0.543400 0.262600 0.132170
C71 C 0.083400 0.612700 0.305780
C72 C 0.590700 0.175800 0.084140
C73 C 0.865100 -0.093100 0.181070
C74 C 0.755500 -0.217300 0.219580
C75 C 1.005700 0.566800 0.594780
C76 C 0.549900 -0.037700 0.072730
C77 C 0.911700 -0.182300 0.131590
C78 C 0.462800 -0.154400 0.110270
C79 C 1.005700 -0.066800 0.094780
C80 C 0.415900 -0.060500 0.160000
C81 C 1.051900 0.139400 0.108720
C82 C 0.911700 0.682300 0.631590
C83 C 0.755500 0.717300 0.719580
C84 C 0.865100 0.593100 0.681070
C85 C 1.009800 0.231600 0.157870
C86 C 0.083400 0.887300 0.805780
C87 C 0.916600 0.112700 0.194220
C88 C 0.409300 0.824200 0.915860
N89 N 0.456100 0.354900 0.668620
N90 N 0.543900 0.645100 0.331380
N91 N 0.669100 0.338700 0.301060
N92 N 0.330900 -0.161300 0.198940
N93 N 1.146200 0.266300 0.069400
N94 N 0.543900 0.854900 0.831380
N95 N 0.669100 1.161300 0.801060
N96 N 0.456100 0.145100 0.168620
N97 N 0.330900 0.661300 0.698940
N98 N 1.146200 0.233700 0.569400
N99 N -0.146200 0.733700 0.930600
N100 N -0.146200 0.766300 0.430600
O101 O 1.189100 0.052400 0.582770
O102 O 1.177200 0.311900 0.525060
O103 O 0.300200 0.380800 0.239440
O104 O -0.177200 0.688100 0.474940
O105 O 1.189100 0.447600 0.082770
O106 O -0.189100 0.947600 0.417230
O107 O 0.300200 1.119200 0.739440
O108 O 0.274000 1.407600 0.791780
O109 O 0.699800 -0.119200 0.260560
O110 O 0.726000 -0.407600 0.208220
O111 O 0.726000 0.907600 0.708220
O112 O 0.699800 0.619200 0.760560
O113 O 1.177200 0.188100 0.025060
O114 O 0.274000 0.092400 0.291780
O115 O -0.177200 0.811900 0.974940
O116 O -0.189100 0.552400 0.917230
Br117 Br 0.298070 0.653390 0.967321
Br118 Br 0.701930 0.153390 0.532679
Br119 Br 0.701930 0.346610 0.032679
Br120 Br 0.298070 0.846610 0.467321

#END
