./LADCAX_from_POSCAR.cif_generated_by_CrystalShift
_symmetry_cell_setting triclinic
_symmetry_space_group_name_H-M 'P 1'
loop_
_symmetry_equiv_pos_site_id
_symmetry_equiv_pos_as_xyz
1 x,y,z
_cell_length_a 9.957400
_cell_length_b 16.971500
_cell_length_c 18.078700
_cell_angle_alpha 90.000000
_cell_angle_beta 90.000000
_cell_angle_gamma 90.000000
_cell_volume 3055.155925
loop_
_atom_site_label
_atom_site_type_symbol
_atom_site_fract_x
_atom_site_fract_y
_atom_site_fract_z
H1 H 0.606600 0.879900 1.061500
H2 H 0.262800 0.105800 0.232000
H3 H 0.422900 0.202600 0.247300
H4 H 0.364300 0.334600 0.243800
H5 H 0.141600 0.367800 0.217800
H6 H -0.019800 0.270900 0.200400
H7 H 0.459000 0.861700 0.709000
H8 H 0.237200 0.894200 0.732000
H9 H 0.077100 0.797400 0.747300
H10 H 0.258100 0.841000 0.057400
H11 H 0.135700 0.665400 0.743800
H12 H -0.208400 0.825300 -0.088900
H13 H 0.358400 0.632200 0.717800
H14 H -0.163500 1.015300 -0.022700
H15 H 0.519800 0.729100 0.700400
H16 H 0.027400 0.996500 -0.243100
H17 H 0.541000 0.361700 0.791000
H18 H -0.098800 0.800200 0.097400
H19 H 0.762800 0.394200 0.768000
H20 H 0.922900 0.297400 0.752700
H21 H 0.864300 0.165400 0.756200
H22 H 0.641600 0.132200 0.782200
H23 H 0.108200 0.753900 -0.090600
H24 H 0.480200 0.229100 0.799600
H25 H 0.106600 0.620100 -0.061500
H26 H 0.959000 0.638300 0.291000
H27 H 0.206400 1.052000 0.061200
H28 H 0.737200 0.605800 0.268000
H29 H 0.577100 0.702600 0.252700
H30 H 0.635700 0.834600 0.256200
H31 H 0.105800 0.970200 -0.124100
H32 H 0.858400 0.867800 0.282200
H33 H 0.361700 0.806700 0.168600
H34 H 1.019800 0.770900 0.299600
H35 H 0.821400 0.687500 0.453400
H36 H 0.103600 0.948200 0.278800
H37 H 1.103300 0.166500 0.375400
H38 H 0.001600 0.982100 0.167200
H39 H 1.290800 0.353100 0.707000
H40 H -0.191300 1.150200 -0.039800
H41 H 1.191300 0.650200 0.539800
H42 H -0.290800 0.853100 -0.207000
H43 H 0.998400 0.482100 0.332800
H44 H -0.103300 0.666500 0.124600
H45 H 0.896400 0.448200 0.221200
H46 H 0.178600 1.187500 0.046600
H47 H 0.638300 0.306700 0.331400
H48 H 0.894200 0.470200 0.624100
H49 H 0.793600 0.552000 0.438800
H50 H 0.893400 0.120100 0.561500
H51 H 0.891800 0.253900 0.590600
H52 H 1.098800 0.300200 0.402600
H53 H 0.972600 0.496500 0.743100
H54 H 1.163500 0.515300 0.522700
H55 H 1.208400 0.325300 0.588900
H56 H 0.241900 0.159000 0.557400
H57 H 0.741900 0.341000 0.442600
H58 H 0.708400 0.174700 0.411100
H59 H 0.678600 0.312500 0.953400
H60 H 0.663500 -0.015300 0.477300
H61 H 0.396700 0.833500 0.875400
H62 H 0.472600 0.003500 0.256900
H63 H 0.209200 0.646900 1.207000
H64 H 0.598800 0.199800 0.597400
H65 H 0.308700 0.349800 1.039800
H66 H 0.501600 0.517900 0.832800
H67 H 0.603600 0.551800 0.721200
H68 H 0.861700 0.693300 0.831400
H69 H 0.391800 0.246100 0.409400
H70 H 0.605800 0.529800 1.124100
H71 H 0.393400 0.379900 0.438500
H72 H 0.706400 0.448000 0.938800
H73 H 0.293600 -0.052000 0.561200
H74 H 0.041000 0.138300 0.209000
H75 H 0.608200 0.746100 1.090600
H76 H 0.401200 0.699800 0.902600
H77 H 0.394200 0.029800 0.375900
H78 H 0.527400 0.503500 1.243100
H79 H 0.138300 0.193300 0.668600
H80 H 0.336500 0.484700 1.022700
H81 H 0.291600 0.674700 1.088900
H82 H 0.396400 0.051800 0.778800
H83 H 0.758100 0.659000 0.942600
H84 H 0.498400 0.017900 0.667200
H85 H 0.321400 -0.187500 0.546600
H86 H 0.691300 -0.150200 0.460200
H87 H 0.603300 0.333500 0.624600
H88 H 0.790800 0.146900 0.293000
C89 C 0.560000 0.315400 0.581000
C90 C 0.709700 0.123400 0.309600
C91 C 0.390500 -0.152300 0.531700
C92 C 0.610400 -0.130200 0.480600
C93 C 0.106400 0.178500 0.215300
C94 C 0.237200 0.159600 0.229000
C95 C 0.332100 0.217200 0.238600
C96 C 0.298800 0.294800 0.235800
C97 C 0.505500 0.623000 1.018350
C98 C 0.739500 0.627700 0.766100
C99 C 0.505300 0.707970 0.999130
C100 C 0.525700 0.481000 0.981250
C101 C 0.724700 0.638100 0.897500
C102 C 0.426700 0.054900 0.667400
C103 C 0.339100 0.639100 1.119900
C104 C 0.366000 0.074600 0.733800
C105 C 0.407300 0.449900 1.009600
C106 C 0.499400 0.368400 0.533600
C107 C 0.479000 0.538100 1.211400
C108 C 0.212900 0.158500 0.668600
C109 C 0.442800 0.736000 0.935400
C110 C 0.474900 0.053900 0.359200
C111 C 0.615000 0.587800 0.898900
C112 C 0.492500 0.319100 0.998600
C113 C 0.546100 0.567000 0.969480
C114 C 0.565700 0.763500 1.046400
C115 C 0.639300 0.073500 0.264500
C116 C 0.564100 0.843100 1.029600
C117 C 0.544000 0.104000 0.406100
C118 C 0.625600 0.428300 0.959700
C119 C 0.374400 -0.071700 0.540300
C120 C 0.456000 0.604000 1.093900
C121 C 0.360700 0.573500 1.235500
C122 C 0.525100 0.553900 1.140800
C123 C 0.435900 0.343100 0.470400
C124 C 0.787100 0.658500 0.831400
C125 C 0.434300 0.263500 0.453600
C126 C 0.500600 0.868400 0.966400
C127 C 0.634000 0.574600 0.766200
C128 C 0.453900 0.067000 0.530520
C129 C 0.573300 0.554900 0.832600
C130 C 0.507500 -0.180900 0.501400
C131 C 0.389600 0.369800 1.019400
C132 C 0.385000 0.087800 0.601100
C133 C 0.290300 0.623400 1.190400
C134 C 0.557200 0.236000 0.564600
C135 C 0.440000 0.815400 0.919000
C136 C 0.521000 0.038100 0.288600
C137 C 0.609500 0.347700 0.968300
C138 C 0.592700 -0.050100 0.490400
C139 C 0.005500 0.877000 -0.018350
C140 C 0.166700 0.313900 0.221000
C141 C 0.239500 0.872300 0.233900
C142 C 0.070600 0.256600 0.210700
C143 C 0.994500 0.377000 0.518350
C144 C 0.760500 0.372300 0.266100
C145 C 0.994700 0.292030 0.499130
C146 C 0.974300 0.519000 0.481250
C147 C 0.775300 0.361900 0.397500
C148 C 0.660900 0.139100 0.380100
C149 C 1.160900 0.360900 0.619900
C150 C 0.275300 0.138100 0.602500
C151 C 1.092700 0.550100 0.509600
C152 C 0.474300 -0.019000 0.518750
C153 C 1.021000 0.461900 0.711400
C154 C 0.494700 0.207970 0.500870
C155 C 1.057200 0.264000 0.435400
C156 C 0.260500 0.127700 0.733900
C157 C 0.885000 0.412200 0.398900
C158 C 1.007500 0.680900 0.498600
C159 C 0.953900 0.433000 0.469480
C160 C 0.934300 0.236500 0.546400
C161 C 0.494500 0.123000 0.481650
C162 C 0.935900 0.156900 0.529600
C163 C 0.005300 0.792030 0.000870
C164 C 0.874400 0.571700 0.459700
C165 C 0.393600 0.821500 0.715300
C166 C 1.044000 0.396000 0.593900
C167 C 1.139300 0.426500 0.735500
C168 C 0.974900 0.446100 0.640800
C169 C 0.025700 1.019000 0.018750
C170 C 0.712900 0.341500 0.331400
C171 C 0.262800 0.840400 0.729000
C172 C 0.999400 0.131600 0.466400
C173 C 0.866000 0.425400 0.266200
C174 C 0.109500 1.152300 0.031700
C175 C 0.926700 0.445100 0.332600
C176 C -0.060000 0.684600 0.081000
C177 C 1.110400 0.630200 0.519400
C178 C -0.209700 0.876600 -0.190400
C179 C 1.209700 0.376600 0.690400
C180 C -0.110400 1.130200 -0.019400
C181 C 1.060000 0.184600 0.419000
C182 C 0.073300 0.945100 0.167400
C183 C 0.890500 0.652300 0.468300
C184 C 0.134000 0.925400 0.233800
C185 C 0.929400 0.756600 0.289300
C186 C 0.000600 0.631600 0.033600
C187 C 0.833300 0.813900 0.279000
C188 C 0.287100 0.841500 0.168600
C189 C 0.701200 0.794800 0.264200
C190 C 0.025100 0.946100 -0.140800
C191 C 0.667900 0.717200 0.261400
C192 C -0.139300 0.926500 -0.235500
C193 C 0.762800 0.659600 0.271000
C194 C -0.044000 0.896000 -0.093900
C195 C 0.893600 0.678500 0.284700
C196 C 0.125600 1.071700 0.040300
C197 C 0.570600 0.243400 0.789300
C198 C 0.064100 0.656900 -0.029600
C199 C 0.666700 0.186100 0.779000
C200 C 0.065700 0.736500 -0.046400
C201 C 0.798800 0.205200 0.764200
C202 C 0.046100 0.933000 0.030520
C203 C 0.832100 0.282800 0.761400
C204 C -0.007500 1.180900 0.001400
C205 C 0.737200 0.340400 0.771000
C206 C 0.115000 0.912200 0.101100
C207 C 0.606400 0.321500 0.784700
C208 C -0.057200 0.764000 0.064600
C209 C 0.429400 0.743400 0.710700
C210 C -0.021000 0.961900 -0.211400
C211 C 0.333300 0.686100 0.721000
C212 C -0.092700 1.050100 -0.009600
C213 C 0.201200 0.705200 0.735800
C214 C -0.160900 0.860900 -0.119900
C215 C 0.167900 0.782800 0.738600
C216 C 0.224700 0.861900 0.102500
I217 I 0.520980 -0.302556 0.483986
I218 I 0.175290 0.162461 0.834536
I219 I 0.708220 0.053160 0.156520
I220 I 0.508760 0.489172 0.556946
I221 I 1.008760 0.010828 0.443054
I222 I 1.208220 0.446840 0.843480
I223 I 0.675290 0.337539 0.165464
I224 I 1.020980 0.802556 0.516014
I225 I 0.491240 0.989172 0.943054
I226 I -0.008760 0.510828 0.056946
I227 I 0.291780 0.553160 1.343480
I228 I -0.208220 0.946840 -0.343480
I229 I 0.824710 0.662461 0.665464
I230 I 0.324710 0.837539 0.334536
I231 I 0.479020 0.197444 1.016014
I232 I -0.020980 1.302556 -0.016014

#END
