./LADCIE_from_POSCAR.cif_generated_by_CrystalShift
_symmetry_cell_setting triclinic
_symmetry_space_group_name_H-M 'P 1'
loop_
_symmetry_equiv_pos_site_id
_symmetry_equiv_pos_as_xyz
1 x,y,z
_cell_length_a 4.833300
_cell_length_b 9.592300
_cell_length_c 23.790100
_cell_angle_alpha 90.000000
_cell_angle_beta 90.961000
_cell_angle_gamma 90.000000
_cell_volume 1102.812505
loop_
_atom_site_label
_atom_site_type_symbol
_atom_site_fract_x
_atom_site_fract_y
_atom_site_fract_z
H1 H 1.025100 1.123300 1.030700
H2 H -0.025100 0.876700 0.969300
H3 H -0.515000 0.776000 1.047500
H4 H 0.344900 0.043300 0.452100
H5 H 0.025100 1.123300 1.030700
H6 H 0.025100 1.123300 0.030700
H7 H 0.869500 0.050400 0.322800
H8 H 0.515000 1.224000 -0.047500
H9 H 0.693600 0.268300 0.297000
H10 H 0.485000 -0.224000 0.047500
H11 H 1.515000 1.224000 0.952500
H12 H 0.186000 0.426000 0.371500
H13 H -0.025100 0.876700 -0.030700
H14 H -0.515000 0.776000 0.047500
H15 H 0.974900 -0.123300 -0.030700
H16 H 0.232100 0.673900 0.361300
H17 H 0.043500 0.628500 0.308500
H18 H 0.025100 0.123300 1.030700
H19 H 0.250700 0.848300 0.293700
H20 H 0.346600 0.738600 0.247200
H21 H 0.550100 0.777600 0.298600
H22 H 0.974900 0.876700 0.969300
H23 H 0.515000 0.224000 0.952500
H24 H 1.515000 0.224000 -0.047500
H25 H 0.155100 0.543300 0.047900
H26 H -0.025100 -0.123300 0.969300
H27 H -0.515000 -0.224000 1.047500
H28 H -0.369500 0.550400 0.177200
H29 H 1.025100 0.123300 0.030700
H30 H -0.193600 0.768300 0.203000
H31 H 0.025100 0.123300 0.030700
H32 H 0.485000 0.776000 1.047500
H33 H 0.314000 0.926000 0.128500
H34 H 0.515000 0.224000 -0.047500
H35 H 0.485000 -0.224000 1.047500
H36 H -0.025100 -0.123300 -0.030700
H37 H 0.267900 1.173900 0.138700
H38 H 0.456500 1.128500 0.191500
H39 H -0.515000 -0.224000 0.047500
H40 H 0.249300 1.348300 0.206300
H41 H 0.153400 1.238600 0.252800
H42 H -0.050100 1.277600 0.201400
H43 H 1.025100 1.123300 0.030700
H44 H 0.974900 -0.123300 0.969300
H45 H 0.474900 0.623300 0.469300
H46 H 0.655100 0.956700 0.547900
H47 H -0.015000 0.724000 0.547500
H48 H 1.515000 0.224000 0.952500
H49 H 0.130500 0.949600 0.677200
H50 H 0.525100 0.376700 0.530700
H51 H 0.306400 0.731700 0.703000
H52 H 1.015000 0.276000 0.452500
H53 H 1.515000 1.224000 -0.047500
H54 H 0.814000 0.574000 0.628500
H55 H 1.025100 0.123300 1.030700
H56 H 1.050100 -0.277600 0.798600
H57 H 0.846600 -0.238600 0.747200
H58 H 0.767900 0.326100 0.638700
H59 H 0.956500 0.371500 0.691500
H60 H 0.750700 -0.348300 0.793700
H61 H 0.749300 0.151700 0.706300
H62 H 0.653400 0.261400 0.752800
H63 H 0.449900 0.222400 0.701400
H64 H 0.974900 0.876700 -0.030700
H65 H 0.543500 -0.128500 0.808500
H66 H 0.732100 -0.173900 0.861300
H67 H 0.844900 0.456700 0.952100
H68 H 0.686000 0.074000 0.871500
H69 H 0.485000 0.776000 0.047500
H70 H 1.369500 0.449600 0.822800
H71 H 0.515000 1.224000 0.952500
H72 H 1.193600 0.231700 0.797000
C73 C 0.920200 0.219160 0.861640
C74 C 1.229800 0.406420 0.844370
C75 C 1.128400 0.471520 0.891550
C76 C 0.898100 -0.012600 0.816570
C77 C 0.701400 0.909070 0.036320
C78 C 0.736500 -0.145510 0.821320
C79 C 0.918900 0.409730 0.920560
C80 C 0.929400 0.941660 -0.002150
C81 C 0.856500 -0.262760 0.787210
C82 C 0.643500 0.237240 0.712790
C83 C 0.763500 0.354490 0.678680
C84 C 1.298600 1.090930 -0.036320
C85 C 0.798600 0.409070 0.463680
C86 C 0.601900 0.487400 0.683430
C87 C 0.579800 0.719160 0.638360
C88 C 1.070600 0.058340 1.002150
C89 C 0.570600 0.441660 0.502150
C90 C 0.373800 0.778760 0.670850
C91 C 0.201400 0.590930 0.536320
C92 C 0.270200 0.906420 0.655630
C93 C 0.371600 0.971520 0.608450
C94 C 1.298600 0.090930 0.963680
C95 C 0.429400 0.558340 0.497850
C96 C 0.581100 0.909730 0.579440
C97 C -0.298600 -0.090930 0.036320
C98 C 1.070600 1.058340 0.002150
C99 C 0.143500 1.262760 0.212790
C100 C 0.929400 -0.058340 0.997850
C101 C -0.070600 -0.058340 -0.002150
C102 C 0.263500 1.145510 0.178680
C103 C 0.298600 0.090930 -0.036320
C104 C 0.701400 0.909070 1.036320
C105 C 0.101900 1.012600 0.183430
C106 C 0.701400 -0.090930 1.036320
C107 C 0.070600 0.058340 0.002150
C108 C 0.079800 0.780840 0.138360
C109 C -0.298600 -0.090930 1.036320
C110 C -0.126200 0.721240 0.170850
C111 C -0.229800 0.593580 0.155630
C112 C 1.070600 0.058340 0.002150
C113 C -0.070600 -0.058340 0.997850
C114 C -0.128400 0.528480 0.108450
C115 C 0.298600 0.090930 0.963680
C116 C 0.081100 0.590270 0.079440
C117 C 0.929400 0.941660 0.997850
C118 C 1.298600 0.090930 -0.036320
C119 C 0.070600 0.058340 1.002150
C120 C 0.356500 0.762760 0.287210
C121 C -0.298600 0.909070 0.036320
C122 C 0.236500 0.645510 0.321320
C123 C 1.298600 1.090930 0.963680
C124 C 0.929400 -0.058340 -0.002150
C125 C -0.070600 0.941660 -0.002150
C126 C 0.398100 0.512600 0.316570
C127 C 0.298600 1.090930 -0.036320
C128 C 0.420200 0.280840 0.361640
C129 C 0.626200 0.221240 0.329150
C130 C 0.701400 -0.090930 0.036320
C131 C 0.070600 1.058340 0.002150
C132 C 0.729800 0.093580 0.344370
C133 C -0.298600 0.909070 1.036320
C134 C 0.628400 0.028480 0.391550
C135 C 0.418900 0.090270 0.420560
C136 C 0.070600 1.058340 1.002150
C137 C -0.070600 0.941660 0.997850
C138 C 1.070600 1.058340 1.002150
C139 C 0.298600 1.090930 0.963680
C140 C 1.126200 0.278760 0.829150
N141 N 0.305800 0.410180 0.351900
N142 N 0.194200 0.910180 0.148100
N143 N 0.684400 0.785830 0.594040
N144 N 0.694200 0.589820 0.648100
N145 N 0.315600 0.214170 0.405960
N146 N 0.815600 0.285830 0.905960
N147 N 0.805800 0.089820 0.851900
N148 N 0.184400 0.714170 0.094040
O149 O -0.375300 0.989950 0.072150
O150 O -0.405200 0.785840 0.027200
O151 O 0.375300 0.010050 0.927850
O152 O 1.405200 0.214160 -0.027200
O153 O 0.405200 0.214160 0.972800
O154 O 1.375300 0.010050 -0.072150
O155 O -0.375300 -0.010050 1.072150
O156 O -0.405200 -0.214160 1.027200
O157 O 0.375300 0.010050 -0.072150
O158 O 0.594800 -0.214160 1.027200
O159 O 0.405200 0.214160 -0.027200
O160 O 0.624700 -0.010050 1.072150
O161 O -0.375300 -0.010050 0.072150
O162 O -0.405200 -0.214160 0.027200
O163 O 0.624700 -0.010050 0.072150
O164 O 1.405200 0.214160 0.972800
O165 O 0.094800 0.714160 0.527200
O166 O 1.375300 0.010050 0.927850
O167 O 0.875300 0.489950 0.427850
O168 O 0.905200 0.285840 0.472800
O169 O 1.089000 0.003180 0.784630
O170 O 0.594800 0.785840 0.027200
O171 O 0.405200 1.214160 -0.027200
O172 O 0.624700 0.989950 0.072150
O173 O 0.594800 -0.214160 0.027200
O174 O 0.375300 1.010050 -0.072150
O175 O 0.411000 0.503180 0.715370
O176 O 1.405200 1.214160 -0.027200
O177 O -0.405200 0.785840 1.027200
O178 O 1.375300 1.010050 -0.072150
O179 O -0.375300 0.989950 1.072150
O180 O 1.375300 1.010050 0.927850
O181 O -0.089000 0.996820 0.215370
O182 O 0.594800 0.785840 1.027200
O183 O 0.375300 1.010050 0.927850
O184 O 0.624700 0.989950 1.072150
O185 O 0.124700 0.510050 0.572150
O186 O 0.405200 1.214160 0.972800
O187 O 0.589000 0.496820 0.284630
O188 O 1.405200 1.214160 0.972800
Br189 Br 0.220830 1.140736 0.582352
Br190 Br 1.279170 0.640736 0.917648
Br191 Br 0.779170 -0.140736 0.417648
Br192 Br -0.279170 0.359264 0.082352

#END
