
#######################################################################
#
#                 Cambridge Crystallographic Data Centre
#                                CCDC 
#
#######################################################################
#
# If this CIF has been generated from an entry in the Cambridge 
# Structural Database, then it will include bibliographic, chemical, 
# crystal, experimental, refinement or atomic coordinate data resulting 
# from the CCDC's data processing and validation procedures.
#
#######################################################################

data_LADDIF
_symmetry_cell_setting           triclinic
_symmetry_space_group_name_H-M   'P -1'
_symmetry_Int_Tables_number      2
_space_group_name_Hall           '-P 1'
loop_
_symmetry_equiv_pos_site_id
_symmetry_equiv_pos_as_xyz
1 x,y,z
2 -x,-y,-z
_cell_length_a                   4.9878(3)
_cell_length_b                   9.9931(7)
_cell_length_c                   11.4625(8)
_cell_angle_alpha                113.250(5)
_cell_angle_beta                 92.103(5)
_cell_angle_gamma                93.352(5)
_cell_volume                     522.923
loop_
_atom_site_label
_atom_site_type_symbol
_atom_site_fract_x
_atom_site_fract_y
_atom_site_fract_z
Br1 Br 0.78851(9) 0.74834(5) 0.19608(4)
N1 N 0.3377(6) 0.4022(3) 0.2153(3)
C1 C 0.4722(7) 0.3743(4) 0.3052(4)
N2 N 0.3564(6) 0.2573(3) 0.3270(3)
H1 H 0.225(8) 0.218(4) 0.287(4)
C2 C 0.7087(7) 0.4576(4) 0.3700(3)
H2 H 0.8010 0.4365 0.4340
C3 C 0.8040(7) 0.5704(4) 0.3389(3)
H3 H 0.9633 0.6288 0.3815
C4 C 0.6666(7) 0.5980(4) 0.2454(4)
C5 C 0.4315(7) 0.5117(4) 0.1859(4)
H4 H 0.3351 0.5316 0.1223
C6 C 0.4523(7) 0.1938(4) 0.4050(4)
O1 O 0.6655(5) 0.2346(3) 0.4691(3)
C7 C 0.2723(8) 0.0682(4) 0.4044(4)
H5 H 0.2624 0.0742 0.4915
H6 H 0.3449 -0.0239 0.3514
H7 H 0.0918 0.0721 0.3697
Br1 Br 0.21149(9) 0.25166(5) 0.80392(4)
N1 N 0.6623(6) 0.5978(3) 0.7847(3)
C1 C 0.5278(7) 0.6257(4) 0.6948(4)
N2 N 0.6436(6) 0.7427(3) 0.6730(3)
H1 H 0.775(8) 0.782(4) 0.713(4)
C2 C 0.2913(7) 0.5424(4) 0.6300(3)
H2 H 0.1990 0.5635 0.5660
C3 C 0.1960(7) 0.4296(4) 0.6611(3)
H3 H 0.0367 0.3712 0.6185
C4 C 0.3334(7) 0.4020(4) 0.7546(4)
C5 C 0.5685(7) 0.4883(4) 0.8141(4)
H4 H 0.6649 0.4684 0.8777
C6 C 0.5477(7) 0.8062(4) 0.5950(4)
O1 O 0.3345(5) 0.7654(3) 0.5309(3)
C7 C 0.7277(8) 0.9318(4) 0.5956(4)
H5 H 0.7376 0.9258 0.5085
H6 H 0.6551 1.0239 0.6486
H7 H 0.9082 0.9279 0.6303
C8 C 0.7998(7) 0.1421(4) 0.0790(3)
O2 O 0.8892(5) 0.2611(3) 0.0656(3)
H8 H 1.008(8) 0.295(5) 0.109(4)
O3 O 0.9015(5) 0.0972(3) 0.1530(2)
C9 C 0.5536(7) 0.0672(4) -0.0083(3)
H9 H 0.4115 0.1364 0.0087
H10 H 0.5997 0.0399 -0.0977
C8A C 0.2002(7) -0.1421(4) -0.0790(3)
O2A O 0.1108(5) -0.2611(3) -0.0656(3)
H8A H -0.008(8) -0.295(5) -0.109(4)
O3A O 0.0985(5) -0.0972(3) -0.1530(2)
C9A C 0.4464(7) -0.0672(4) 0.0083(3)
H9A H 0.5885 -0.1364 -0.0087
H10A H 0.4003 -0.0399 0.0977
C8 C 0.7998(7) 0.1421(4) 1.0790(3)
O2 O 0.8892(5) 0.2611(3) 1.0656(3)
H8 H 1.008(8) 0.295(5) 1.109(4)
O3 O 0.9015(5) 0.0972(3) 1.1530(2)
C9 C 0.5536(7) 0.0672(4) 0.9917(3)
H9 H 0.4115 0.1364 1.0087
H10 H 0.5997 0.0399 0.9023
C8A C 0.2002(7) -0.1421(4) 0.9210(3)
O2A O 0.1108(5) -0.2611(3) 0.9344(3)
H8A H -0.008(8) -0.295(5) 0.891(4)
O3A O 0.0985(5) -0.0972(3) 0.8470(2)
C9A C 0.4464(7) -0.0672(4) 1.0083(3)
H9A H 0.5885 -0.1364 0.9913
H10A H 0.4003 -0.0399 1.0977
C8 C 0.7998(7) 1.1421(4) 0.0790(3)
O2 O 0.8892(5) 1.2611(3) 0.0656(3)
H8 H 1.008(8) 1.295(5) 0.109(4)
O3 O 0.9015(5) 1.0972(3) 0.1530(2)
C9 C 0.5536(7) 1.0672(4) -0.0083(3)
H9 H 0.4115 1.1364 0.0087
H10 H 0.5997 1.0399 -0.0977
C8A C 0.2002(7) 0.8579(4) -0.0790(3)
O2A O 0.1108(5) 0.7389(3) -0.0656(3)
H8A H -0.008(8) 0.705(5) -0.109(4)
O3A O 0.0985(5) 0.9028(3) -0.1530(2)
C9A C 0.4464(7) 0.9328(4) 0.0083(3)
H9A H 0.5885 0.8636 -0.0087
H10A H 0.4003 0.9601 0.0977
C8 C 0.7998(7) 1.1421(4) 1.0790(3)
O2 O 0.8892(5) 1.2611(3) 1.0656(3)
H8 H 1.008(8) 1.295(5) 1.109(4)
O3 O 0.9015(5) 1.0972(3) 1.1530(2)
C9 C 0.5536(7) 1.0672(4) 0.9917(3)
H9 H 0.4115 1.1364 1.0087
H10 H 0.5997 1.0399 0.9023
C8A C 0.2002(7) 0.8579(4) 0.9210(3)
O2A O 0.1108(5) 0.7389(3) 0.9344(3)
H8A H -0.008(8) 0.705(5) 0.891(4)
O3A O 0.0985(5) 0.9028(3) 0.8470(2)
C9A C 0.4464(7) 0.9328(4) 1.0083(3)
H9A H 0.5885 0.8636 0.9913
H10A H 0.4003 0.9601 1.0977

#END
