./LADFIG_from_POSCAR.cif_generated_by_CrystalShift
_symmetry_cell_setting triclinic
_symmetry_space_group_name_H-M 'P 1'
loop_
_symmetry_equiv_pos_site_id
_symmetry_equiv_pos_as_xyz
1 x,y,z
_cell_length_a 13.826000
_cell_length_b 6.922000
_cell_length_c 11.639000
_cell_angle_alpha 90.000000
_cell_angle_beta 107.307000
_cell_angle_gamma 90.000000
_cell_volume 1063.461729
loop_
_atom_site_label
_atom_site_type_symbol
_atom_site_fract_x
_atom_site_fract_y
_atom_site_fract_z
H1 H 0.504500 0.887400 0.721700
H2 H 0.453700 0.937600 0.582500
H3 H 0.566600 1.007900 0.649800
H4 H 0.508400 0.613500 0.601600
H5 H 0.572200 0.734700 0.531100
H6 H 0.824300 -0.025100 0.777600
H7 H 0.874400 0.147900 0.724000
H8 H 0.918400 0.429100 0.474300
H9 H 0.966700 0.249300 0.424500
H10 H 0.909300 0.216200 0.523600
H11 H 0.753900 0.123600 0.684200
H12 H 0.740100 0.474400 0.421300
H13 H 0.725800 0.263600 0.470400
H14 H 0.662800 0.324700 0.336500
H15 H 0.662800 0.175300 0.836500
H16 H 0.753900 0.376400 0.184200
H17 H 0.874400 0.352100 0.224000
H18 H 0.824300 0.525100 0.277600
H19 H 0.725800 0.236400 0.970400
H20 H 0.740100 0.025600 0.921300
H21 H 0.572200 -0.234700 0.031100
H22 H 0.508400 -0.113500 0.101600
H23 H 0.909300 0.283800 1.023600
H24 H 0.566600 -0.507900 0.149800
H25 H 0.453700 -0.437600 0.082500
H26 H 0.504500 -0.387400 0.221700
H27 H 0.033300 0.750700 0.575500
H28 H 0.966700 0.250700 0.924500
H29 H 0.918400 0.070900 0.974300
H30 H 0.081600 0.570900 0.525700
H31 H 0.495500 1.387400 0.778300
H32 H 0.546300 1.437600 0.917500
H33 H 0.433400 1.507900 0.850200
H34 H 0.081600 0.929100 0.025700
H35 H 0.033300 0.749300 0.075500
H36 H 0.090700 0.716200 -0.023600
H37 H 0.491600 1.113500 0.898400
H38 H 0.259900 0.974400 0.078700
H39 H 0.274200 0.763600 0.029600
H40 H 0.337200 0.824700 0.163500
H41 H 0.427800 1.234700 0.968900
H42 H 0.246100 0.876400 0.315800
H43 H 0.125600 0.852100 0.276000
H44 H 0.175700 1.025100 0.222400
H45 H 0.175700 0.474900 0.722400
H46 H 0.125600 0.647900 0.776000
H47 H 0.427800 0.265300 0.468900
H48 H 0.491600 0.386500 0.398400
H49 H 0.246100 0.623600 0.815800
H50 H 0.433400 -0.007900 0.350200
H51 H 0.546300 0.062400 0.417500
H52 H 0.495500 0.112600 0.278300
H53 H 0.090700 0.783800 0.476400
H54 H 0.337200 0.675300 0.663500
H55 H 0.274200 0.736400 0.529600
H56 H 0.259900 0.525600 0.578700
B57 B 0.208200 0.539600 0.183600
B58 B 0.791800 0.460400 0.816400
B59 B 0.208200 0.960400 0.683600
B60 B 0.791800 0.039600 0.316400
C61 C 0.517200 0.904100 0.643800
C62 C 0.558100 0.719400 0.609200
C63 C 0.272300 0.662100 0.600500
C64 C 0.685700 0.491700 0.710300
C65 C 0.910200 0.291900 0.452800
C66 C 0.727700 0.337900 0.399500
C67 C 0.183600 0.609800 0.749100
C68 C 0.482800 0.095900 0.356200
C69 C 0.441900 0.280600 0.390800
C70 C 0.314300 0.508300 0.289700
C71 C 0.314300 0.991700 0.789700
C72 C 0.441900 1.219400 0.890800
C73 C 0.183600 0.890200 0.249100
C74 C 0.272300 0.837900 0.100500
C75 C 0.482800 1.404100 0.856200
C76 C 0.089800 0.791900 0.047200
C77 C 0.816400 0.109800 0.750900
C78 C 0.816400 0.390200 0.250900
C79 C 0.685700 0.008300 0.210300
C80 C 0.558100 -0.219400 0.109200
C81 C 0.727700 0.162100 0.899500
C82 C 0.089800 0.708100 0.547200
C83 C 0.517200 -0.404100 0.143800
C84 C 0.910200 0.208100 0.952800
N85 N 0.188700 0.737300 0.646200
N86 N 0.811300 0.262700 0.353800
N87 N 0.188700 0.762700 0.146200
N88 N 0.811300 0.237300 0.853800
O89 O 0.651470 -0.175900 0.204500
O90 O 0.639410 0.369200 0.639600
O91 O 0.348530 1.175900 0.795500
O92 O 0.360590 0.630800 0.360400
O93 O 0.348530 0.324100 0.295500
O94 O 0.639410 0.130800 0.139600
O95 O 0.360590 0.869200 0.860400
O96 O 0.651470 0.675900 0.704500
Br97 Br 0.205060 1.117470 0.536120
Br98 Br 0.205060 0.382530 0.036120
Br99 Br 0.902430 -0.056010 0.248020
Br100 Br 0.097570 0.443990 0.251980
Br101 Br 0.794940 -0.117470 0.463880
Br102 Br 0.794940 0.617470 0.963880
Br103 Br 0.097570 1.056010 0.751980
Br104 Br 0.902430 0.556010 0.748020

#END
