
#######################################################################
#
#                 Cambridge Crystallographic Data Centre
#                                CCDC 
#
#######################################################################
#
# If this CIF has been generated from an entry in the Cambridge 
# Structural Database, then it will include bibliographic, chemical, 
# crystal, experimental, refinement or atomic coordinate data resulting 
# from the CCDC's data processing and validation procedures.
#
#######################################################################

data_LADKOR
_symmetry_cell_setting           orthorhombic
_symmetry_space_group_name_H-M   'P 21 21 21'
_symmetry_Int_Tables_number      19
_space_group_name_Hall           'P 2ac 2ab'
loop_
_symmetry_equiv_pos_site_id
_symmetry_equiv_pos_as_xyz
1 x,y,z
2 1/2-x,-y,1/2+z
3 1/2+x,1/2-y,-z
4 -x,1/2+y,1/2-z
_cell_length_a                   6.5629(3)
_cell_length_b                   8.7937(3)
_cell_length_c                   34.4800(19)
_cell_angle_alpha                90
_cell_angle_beta                 90
_cell_angle_gamma                90
_cell_volume                     1989.92
loop_
_atom_site_label
_atom_site_type_symbol
_atom_site_fract_x
_atom_site_fract_y
_atom_site_fract_z
O1 O 0.3735(4) 1.3145(3) 0.12019(8)
H1 H 0.407(6) 1.418(4) 0.1240(10)
O2 O 0.5510(5) 0.5963(3) 0.12746(8)
O3 O 0.8443(4) 0.4737(3) 0.12034(8)
H2 H 0.752(8) 0.394(6) 0.1122(15)
O4 O 0.6268(5) 0.5719(3) 0.20998(9)
O5 O 0.7299(4) 0.7688(3) 0.24482(7)
N1 N 0.5553(5) 1.2606(3) 0.10307(9)
C1 C 0.9276(6) 1.0047(4) 0.14771(10)
H3 H 1.0555 0.9924 0.134
H4 H 0.8746 1.1048 0.1416
C2 C 0.9674(6) 0.9954(4) 0.19081(11)
H5 H 0.8409 1.011 0.2048
H6 H 1.0617 1.075 0.1983
C3 C 1.0559(6) 0.8418(4) 0.20140(12)
H7 H 1.0743 0.8378 0.2293
H8 H 1.1894 0.8327 0.1896
C4 C 0.9266(6) 0.7055(4) 0.18899(10)
C5 C 0.8652(5) 0.7245(3) 0.14510(9)
H9 H 0.9934 0.716 0.1307
C6 C 0.7361(7) 0.5944(4) 0.13075(10)
C7 C 0.5316(6) 1.1310(4) 0.08815(10)
H10 H 0.4039 1.0857 0.0897
C8 C 0.6975(5) 1.0470(4) 0.06817(10)
C9 C 0.7374(5) 0.8873(3) 0.08799(9)
H11 H 0.609 0.8321 0.0845
C10 C 0.7750(5) 0.8832(3) 0.13312(10)
C11 C 0.8909(6) 0.8012(4) 0.06140(10)
H12 H 0.9429 0.7141 0.0755
H13 H 0.8176 0.763 0.039
C12 C 1.0714(6) 0.8950(4) 0.04712(11)
H14 H 1.1462 0.8379 0.0277
H15 H 1.1628 0.9157 0.0686
C13 C 0.9977(6) 1.0449(4) 0.02963(12)
H16 H 1.1092 1.1009 0.0173
C14 C 0.8941(6) 1.1392(4) 0.06104(11)
H17 H 0.8639 1.2412 0.052
H18 H 0.9771 1.1452 0.0843
C15 C 0.6284(6) 1.0208(4) 0.02514(10)
H19 H 0.555 0.9255 0.0227
H20 H 0.5408 1.1029 0.0165
C16 C 0.8231(6) 1.0169(4) 0.00165(12)
C17 C 0.8387(9) 0.9966(5) -0.03605(13)
H21 H 0.7222 0.9829 -0.051
H22 H 0.9664 0.9961 -0.0478
C18 C 1.0609(7) 0.5612(5) 0.19349(13)
H23 H 1.1002 0.5499 0.2202
H24 H 1.1806 0.5712 0.1777
H25 H 0.985 0.4735 0.1854
C19 C 0.7445(6) 0.6750(4) 0.21488(11)
C20 C 0.5690(5) 0.9120(4) 0.15395(11)
H26 H 0.5878 0.9039 0.1815
H27 H 0.471 0.838 0.1456
H28 H 0.5207 1.0121 0.1477
C21 C 0.5644(6) 0.7406(5) 0.27183(12)
H29 H 0.4366 0.7467 0.2584
H30 H 0.5676 0.8154 0.2921
H31 H 0.5794 0.641 0.2829
O1 O 1.1265(4) -0.3145(3) 0.62019(8)
H1 H 1.093(6) -0.418(4) 0.6240(10)
O2 O 0.9490(5) 0.4037(3) 0.62746(8)
O3 O 0.6557(4) 0.5263(3) 0.62034(8)
H2 H 0.748(8) 0.606(6) 0.6122(15)
O4 O 0.8732(5) 0.4281(3) 0.70998(9)
O5 O 0.7701(4) 0.2312(3) 0.74482(7)
N1 N 0.9447(5) -0.2606(3) 0.60307(9)
C1 C 0.5724(6) -0.0047(4) 0.64771(10)
H3 H 0.4445 0.0076 0.634
H4 H 0.6254 -0.1048 0.6416
C2 C 0.5326(6) 0.0046(4) 0.69081(11)
H5 H 0.6591 -0.011 0.7048
H6 H 0.4383 -0.075 0.6983
C3 C 0.4441(6) 0.1582(4) 0.70140(12)
H7 H 0.4257 0.1622 0.7293
H8 H 0.3106 0.1673 0.6896
C4 C 0.5734(6) 0.2945(4) 0.68899(10)
C5 C 0.6348(5) 0.2755(3) 0.64510(9)
H9 H 0.5066 0.284 0.6307
C6 C 0.7639(7) 0.4056(4) 0.63075(10)
C7 C 0.9684(6) -0.1310(4) 0.58815(10)
H10 H 1.0961 -0.0857 0.5897
C8 C 0.8025(5) -0.0470(4) 0.56817(10)
C9 C 0.7626(5) 0.1127(3) 0.58799(9)
H11 H 0.891 0.1679 0.5845
C10 C 0.7250(5) 0.1168(3) 0.63312(10)
C11 C 0.6091(6) 0.1988(4) 0.56140(10)
H12 H 0.5571 0.2859 0.5755
H13 H 0.6824 0.237 0.539
C12 C 0.4286(6) 0.1050(4) 0.54712(11)
H14 H 0.3538 0.1621 0.5277
H15 H 0.3372 0.0843 0.5686
C13 C 0.5023(6) -0.0449(4) 0.52963(12)
H16 H 0.3908 -0.1009 0.5173
C14 C 0.6059(6) -0.1392(4) 0.56104(11)
H17 H 0.6361 -0.2412 0.552
H18 H 0.5229 -0.1452 0.5843
C15 C 0.8716(6) -0.0208(4) 0.52514(10)
H19 H 0.945 0.0745 0.5227
H20 H 0.9592 -0.1029 0.5165
C16 C 0.6769(6) -0.0169(4) 0.50165(12)
C17 C 0.6613(9) 0.0034(5) 0.46395(13)
H21 H 0.7778 0.0171 0.449
H22 H 0.5336 0.0039 0.4522
C18 C 0.4391(7) 0.4388(5) 0.69349(13)
H23 H 0.3998 0.4501 0.7202
H24 H 0.3194 0.4288 0.6777
H25 H 0.515 0.5265 0.6854
C19 C 0.7555(6) 0.3250(4) 0.71488(11)
C20 C 0.9310(5) 0.0880(4) 0.65395(11)
H26 H 0.9122 0.0961 0.6815
H27 H 1.029 0.162 0.6456
H28 H 0.9793 -0.0121 0.6477
C21 C 0.9356(6) 0.2594(5) 0.77183(12)
H29 H 1.0634 0.2533 0.7584
H30 H 0.9324 0.1846 0.7921
H31 H 0.9206 0.359 0.7829
O1 O -0.1265(4) 0.1855(3) 0.87981(8)
H1 H -0.093(6) 0.082(4) 0.8760(10)
O2 O 0.0510(5) 0.9037(3) 0.87254(8)
O3 O 0.3443(4) 1.0263(3) 0.87966(8)
H2 H 0.252(8) 1.106(6) 0.8878(15)
O4 O 0.1268(5) 0.9281(3) 0.79002(9)
O5 O 0.2299(4) 0.7312(3) 0.75518(7)
N1 N 0.0553(5) 0.2394(3) 0.89693(9)
C1 C 0.4276(6) 0.4953(4) 0.85229(10)
H3 H 0.5555 0.5076 0.866
H4 H 0.3746 0.3952 0.8584
C2 C 0.4674(6) 0.5046(4) 0.80919(11)
H5 H 0.3409 0.489 0.7952
H6 H 0.5617 0.425 0.8017
C3 C 0.5559(6) 0.6582(4) 0.79860(12)
H7 H 0.5743 0.6622 0.7707
H8 H 0.6894 0.6673 0.8104
C4 C 0.4266(6) 0.7945(4) 0.81101(10)
C5 C 0.3652(5) 0.7755(3) 0.85490(9)
H9 H 0.4934 0.784 0.8693
C6 C 0.2361(7) 0.9056(4) 0.86925(10)
C7 C 0.0316(6) 0.3690(4) 0.91185(10)
H10 H -0.0961 0.4143 0.9103
C8 C 0.1975(5) 0.4530(4) 0.93183(10)
C9 C 0.2374(5) 0.6127(3) 0.91201(9)
H11 H 0.109 0.6679 0.9155
C10 C 0.2750(5) 0.6168(3) 0.86688(10)
C11 C 0.3909(6) 0.6988(4) 0.93860(10)
H12 H 0.4429 0.7859 0.9245
H13 H 0.3176 0.737 0.961
C12 C 0.5714(6) 0.6050(4) 0.95288(11)
H14 H 0.6462 0.6621 0.9723
H15 H 0.6628 0.5843 0.9314
C13 C 0.4977(6) 0.4551(4) 0.97037(12)
H16 H 0.6092 0.3991 0.9827
C14 C 0.3941(6) 0.3608(4) 0.93896(11)
H17 H 0.3639 0.2588 0.948
H18 H 0.4771 0.3548 0.9157
C15 C 0.1284(6) 0.4792(4) 0.97486(10)
H19 H 0.055 0.5745 0.9773
H20 H 0.0408 0.3971 0.9835
C16 C 0.3231(6) 0.4831(4) 0.99835(12)
C17 C 0.3387(9) 0.5034(5) 1.03605(13)
H21 H 0.2222 0.5171 1.051
H22 H 0.4664 0.5039 1.0478
C18 C 0.5609(7) 0.9388(5) 0.80651(13)
H23 H 0.6002 0.9501 0.7798
H24 H 0.6806 0.9288 0.8223
H25 H 0.485 1.0265 0.8146
C19 C 0.2445(6) 0.8250(4) 0.78512(11)
C20 C 0.0690(5) 0.5880(4) 0.84605(11)
H26 H 0.0878 0.5961 0.8185
H27 H -0.029 0.662 0.8544
H28 H 0.0207 0.4879 0.8523
C21 C 0.0644(6) 0.7594(5) 0.72817(12)
H29 H -0.0634 0.7533 0.7416
H30 H 0.0676 0.6846 0.7079
H31 H 0.0794 0.859 0.7171
O1 O 0.6265(4) 0.8145(3) 0.37981(8)
H1 H 0.593(6) 0.918(4) 0.3760(10)
O2 O 0.4490(5) 0.0963(3) 0.37254(8)
O3 O 0.1557(4) -0.0263(3) 0.37966(8)
H2 H 0.248(8) -0.106(6) 0.3878(15)
O4 O 0.3732(5) 0.0719(3) 0.29002(9)
O5 O 0.2701(4) 0.2688(3) 0.25518(7)
N1 N 0.4447(5) 0.7606(3) 0.39693(9)
C1 C 0.0724(6) 0.5047(4) 0.35229(10)
H3 H -0.0555 0.4924 0.366
H4 H 0.1254 0.6048 0.3584
C2 C 0.0326(6) 0.4954(4) 0.30919(11)
H5 H 0.1591 0.511 0.2952
H6 H -0.0617 0.575 0.3017
C3 C -0.0559(6) 0.3418(4) 0.29860(12)
H7 H -0.0743 0.3378 0.2707
H8 H -0.1894 0.3327 0.3104
C4 C 0.0734(6) 0.2055(4) 0.31101(10)
C5 C 0.1348(5) 0.2245(3) 0.35490(9)
H9 H 0.0066 0.216 0.3693
C6 C 0.2639(7) 0.0944(4) 0.36925(10)
C7 C 0.4684(6) 0.6310(4) 0.41185(10)
H10 H 0.5961 0.5857 0.4103
C8 C 0.3025(5) 0.5470(4) 0.43183(10)
C9 C 0.2626(5) 0.3873(3) 0.41201(9)
H11 H 0.391 0.3321 0.4155
C10 C 0.2250(5) 0.3832(3) 0.36688(10)
C11 C 0.1091(6) 0.3012(4) 0.43860(10)
H12 H 0.0571 0.2141 0.4245
H13 H 0.1824 0.263 0.461
C12 C -0.0714(6) 0.3950(4) 0.45288(11)
H14 H -0.1462 0.3379 0.4723
H15 H -0.1628 0.4157 0.4314
C13 C 0.0023(6) 0.5449(4) 0.47037(12)
H16 H -0.1092 0.6009 0.4827
C14 C 0.1059(6) 0.6392(4) 0.43896(11)
H17 H 0.1361 0.7412 0.448
H18 H 0.0229 0.6452 0.4157
C15 C 0.3716(6) 0.5208(4) 0.47486(10)
H19 H 0.445 0.4255 0.4773
H20 H 0.4592 0.6029 0.4835
C16 C 0.1769(6) 0.5169(4) 0.49835(12)
C17 C 0.1613(9) 0.4966(5) 0.53605(13)
H21 H 0.2778 0.4829 0.551
H22 H 0.0336 0.4961 0.5478
C18 C -0.0609(7) 0.0612(5) 0.30651(13)
H23 H -0.1002 0.0499 0.2798
H24 H -0.1806 0.0712 0.3223
H25 H 0.015 -0.0265 0.3146
C19 C 0.2555(6) 0.1750(4) 0.28512(11)
C20 C 0.4310(5) 0.4120(4) 0.34605(11)
H26 H 0.4122 0.4039 0.3185
H27 H 0.529 0.338 0.3544
H28 H 0.4793 0.5121 0.3523
C21 C 0.4356(6) 0.2406(5) 0.22817(12)
H29 H 0.5634 0.2467 0.2416
H30 H 0.4324 0.3154 0.2079
H31 H 0.4206 0.141 0.2171

#END
