./LADLUX_from_POSCAR.cif_generated_by_CrystalShift
_symmetry_cell_setting triclinic
_symmetry_space_group_name_H-M 'P 1'
loop_
_symmetry_equiv_pos_site_id
_symmetry_equiv_pos_as_xyz
1 x,y,z
_cell_length_a 7.540000
_cell_length_b 10.788000
_cell_length_c 16.084000
_cell_angle_alpha 103.090000
_cell_angle_beta 90.020000
_cell_angle_gamma 110.460000
_cell_volume 1189.373135
loop_
_atom_site_label
_atom_site_type_symbol
_atom_site_fract_x
_atom_site_fract_y
_atom_site_fract_z
H1 H 0.883000 0.017000 0.643800
H2 H 0.652000 -0.197000 0.397600
H3 H 0.627000 0.003000 0.364500
H4 H 0.117000 0.983000 0.356200
H5 H 0.236000 1.196000 0.465800
H6 H 0.348000 1.197000 0.602400
H7 H 0.373000 0.997000 0.635500
H8 H 0.135000 0.013000 0.143700
H9 H 0.036000 -0.191000 0.031300
H10 H 0.164000 -0.200000 -0.101800
H11 H 0.366000 0.009000 -0.137100
H12 H 0.865000 0.987000 0.856300
H13 H 0.964000 1.191000 0.968700
H14 H 0.836000 1.200000 1.101800
H15 H 0.634000 0.991000 1.137100
H16 H 0.764000 -0.196000 0.534200
C17 C 0.385000 0.699000 1.085200
C18 C 0.244000 0.563000 1.069900
C19 C 0.393000 0.785000 1.166900
C20 C 0.821000 0.761000 0.750700
C21 C 0.678000 0.683000 0.800800
C22 C 0.626000 0.732000 0.876200
C23 C 0.695000 0.867000 0.935100
C24 C 0.683000 0.435000 0.429300
C25 C 0.612000 0.214000 0.332600
C26 C 0.680000 0.304000 0.415900
C27 C 1.058000 0.239000 0.748900
C28 C 1.049000 0.459000 0.740700
C29 C 0.515000 0.263000 -0.019500
C30 C 0.376000 0.130000 -0.013000
C31 C 0.320000 0.010000 -0.078700
C32 C 0.201000 -0.111000 -0.058400
C33 C 0.130000 -0.105000 0.020800
C34 C 0.182000 0.012000 0.085500
C35 C 0.305000 0.133000 0.064900
C36 C 0.374000 0.268000 0.123800
C37 C 0.322000 0.317000 0.199200
C38 C 0.179000 0.239000 0.249300
C39 C 0.411000 0.460000 0.242700
C40 C 0.615000 0.301000 -0.085200
C41 C 0.756000 0.437000 -0.069900
C42 C 0.607000 0.215000 -0.166900
C43 C 0.818000 0.988000 0.914500
C44 C 0.870000 1.105000 0.979200
C45 C 0.799000 1.111000 1.058400
C46 C 0.680000 0.990000 1.078700
C47 C 0.999000 0.315000 0.702200
C48 C 0.891000 0.271000 0.622400
C49 C 0.825000 0.132000 0.566200
C50 C 0.831000 0.014000 0.585900
C51 C 0.764000 -0.109000 0.522100
C52 C 0.254000 0.738000 0.521200
C53 C 0.248000 0.869000 0.514300
C54 C 0.317000 0.992000 0.578100
C55 C 0.308000 1.109000 0.557100
C56 C 0.236000 1.109000 0.477900
C57 C 0.169000 0.986000 0.414100
C58 C 0.175000 0.868000 0.433800
C59 C 0.109000 0.729000 0.377600
C60 C 0.001000 0.685000 0.297800
C61 C -0.049000 0.541000 0.259300
C62 C -0.058000 0.761000 0.251100
C63 C 0.320000 0.696000 0.584100
C64 C 0.388000 0.786000 0.667400
C65 C 0.317000 0.565000 0.570700
C66 C 0.624000 0.870000 1.013000
C67 C 0.485000 0.737000 1.019500
C68 C 0.692000 -0.109000 0.442900
C69 C 0.683000 0.008000 0.421900
C70 C 0.752000 0.131000 0.485700
C71 C 0.746000 0.262000 0.478800
C72 C 0.589000 0.540000 0.757300
N73 N 0.552000 0.156000 0.264400
N74 N 0.689000 0.541000 0.442500
N75 N 1.088000 0.574000 0.771300
N76 N 0.517000 0.427000 0.727600
N77 N 0.396000 0.846000 1.235400
N78 N 0.137000 0.456000 1.056200
N79 N 0.311000 0.459000 0.557500
N80 N 0.448000 0.844000 0.735600
N81 N -0.101000 0.818000 0.211300
N82 N -0.088000 0.426000 0.228700
N83 N 0.923000 0.818000 0.710200
N84 N 0.863000 0.544000 -0.056200
N85 N 0.604000 0.154000 -0.235400
N86 N 0.077000 0.182000 0.289800
N87 N 0.483000 0.573000 0.272400
N88 N 1.101000 0.182000 0.788700
S89 S 0.836600 0.381900 0.577300
S90 S 0.163400 0.618100 0.422700
S91 S 0.545700 0.382300 0.076700
S92 S 0.454300 0.617700 0.923300

#END
