
#######################################################################
#
#                 Cambridge Crystallographic Data Centre
#                                CCDC 
#
#######################################################################
#
# If this CIF has been generated from an entry in the Cambridge 
# Structural Database, then it will include bibliographic, chemical, 
# crystal, experimental, refinement or atomic coordinate data resulting 
# from the CCDC's data processing and validation procedures.
#
#######################################################################

data_LADLAG
_symmetry_cell_setting           triclinic
_symmetry_space_group_name_H-M   'P -1'
_symmetry_Int_Tables_number      2
_space_group_name_Hall           '-P 1'
loop_
_symmetry_equiv_pos_site_id
_symmetry_equiv_pos_as_xyz
1 x,y,z
2 -x,-y,-z
_cell_length_a                   7.9103(7)
_cell_length_b                   8.2020(4)
_cell_length_c                   10.8545(9)
_cell_angle_alpha                79.807(6)
_cell_angle_beta                 69.688(8)
_cell_angle_gamma                87.445(6)
_cell_volume                     649.918
loop_
_atom_site_label
_atom_site_type_symbol
_atom_site_fract_x
_atom_site_fract_y
_atom_site_fract_z
O1 O 0.1405(2) 0.16259(16) 0.36720(15)
O2 O 0.2732(2) 0.16902(18) 0.07999(16)
O3 O 0.4048(2) -0.04585(17) 0.15133(16)
N1 N -0.0121(2) 0.41264(18) 0.35923(16)
N2 N 0.3884(2) 0.1056(2) 0.12346(17)
C1 C -0.1875(3) 0.4035(2) 0.4486(2)
C2 C -0.2492(3) 0.5629(2) 0.4422(2)
C3 C -0.1095(3) 0.6734(2) 0.3468(2)
C4 C 0.0353(3) 0.5761(2) 0.2984(2)
C5 C 0.2220(3) 0.5783(2) 0.21579(19)
C6 C 0.2865(3) 0.4217(2) 0.22747(19)
C7 C 0.1372(3) 0.3096(2) 0.3243(2)
C8 C -0.2758(3) 0.2430(3) 0.5259(2)
C9 C -0.1205(4) 0.8577(3) 0.3114(3)
C10 C 0.4719(3) 0.3679(2) 0.17413(19)
C11 C 0.5226(3) 0.2132(2) 0.13602(19)
C12 C 0.6974(3) 0.1579(3) 0.1003(2)
C13 C 0.8338(3) 0.2615(3) 0.0967(2)
C14 C 0.7902(3) 0.4181(3) 0.1289(2)
C15 C 0.6144(3) 0.4690(3) 0.1683(2)
H1 H -0.3661 0.5927 0.4938
H2 H 0.2893 0.6734 0.1612
H3 H -0.3883 0.2616 0.5955
H4 H -0.1980 0.1824 0.5688
H5 H -0.3016 0.1794 0.4685
H6 H -0.0161 0.9027 0.2357
H7 H -0.1239 0.9101 0.3850
H8 H -0.2261 0.8875 0.2900
H9 H 0.7251 0.0526 0.0760
H10 H 0.9551 0.2262 0.0719
H11 H 0.8819 0.4885 0.1256
H12 H 0.5853 0.5733 0.1954
O1 O 0.8595(2) 0.83741(16) 0.63280(15)
O2 O 0.7268(2) 0.83098(18) 0.92001(16)
O3 O 0.5952(2) 1.04585(17) 0.84867(16)
N1 N 1.0121(2) 0.58736(18) 0.64077(16)
N2 N 0.6116(2) 0.8944(2) 0.87654(17)
C1 C 1.1875(3) 0.5965(2) 0.5514(2)
C2 C 1.2492(3) 0.4371(2) 0.5578(2)
C3 C 1.1095(3) 0.3266(2) 0.6532(2)
C4 C 0.9647(3) 0.4239(2) 0.7016(2)
C5 C 0.7780(3) 0.4217(2) 0.78421(19)
C6 C 0.7135(3) 0.5783(2) 0.77253(19)
C7 C 0.8628(3) 0.6904(2) 0.6757(2)
C8 C 1.2758(3) 0.7570(3) 0.4741(2)
C9 C 1.1205(4) 0.1423(3) 0.6886(3)
C10 C 0.5281(3) 0.6321(2) 0.82587(19)
C11 C 0.4774(3) 0.7868(2) 0.86398(19)
C12 C 0.3026(3) 0.8421(3) 0.8997(2)
C13 C 0.1662(3) 0.7385(3) 0.9033(2)
C14 C 0.2098(3) 0.5819(3) 0.8711(2)
C15 C 0.3856(3) 0.5310(3) 0.8317(2)
H1 H 1.3661 0.4073 0.5062
H2 H 0.7107 0.3266 0.8388
H3 H 1.3883 0.7384 0.4045
H4 H 1.1980 0.8176 0.4312
H5 H 1.3016 0.8206 0.5315
H6 H 1.0161 0.0973 0.7643
H7 H 1.1239 0.0899 0.6150
H8 H 1.2261 0.1125 0.7100
H9 H 0.2749 0.9474 0.9240
H10 H 0.0449 0.7738 0.9281
H11 H 0.1181 0.5115 0.8744
H12 H 0.4147 0.4267 0.8046

#END
