./LADVAN01_from_POSCAR.cif_generated_by_CrystalShift
_symmetry_cell_setting triclinic
_symmetry_space_group_name_H-M 'P 1'
loop_
_symmetry_equiv_pos_site_id
_symmetry_equiv_pos_as_xyz
1 x,y,z
_cell_length_a 12.080000
_cell_length_b 3.954000
_cell_length_c 31.596000
_cell_angle_alpha 90.000000
_cell_angle_beta 92.050000
_cell_angle_gamma 90.000000
_cell_volume 1508.195578
loop_
_atom_site_label
_atom_site_type_symbol
_atom_site_fract_x
_atom_site_fract_y
_atom_site_fract_z
H1 H 0.594000 1.578000 1.232100
H2 H 0.784000 1.594000 1.219100
H3 H 0.540000 1.143000 1.119600
H4 H 0.853000 1.387000 1.155200
H5 H 0.960000 0.357000 0.880400
H6 H 1.031000 0.150000 0.818300
H7 H 0.906000 -0.078000 0.767900
H8 H 0.716000 -0.094000 0.780900
H9 H 0.647000 0.113000 0.844800
H10 H 0.594000 1.578000 0.232100
H11 H 0.469000 1.350000 0.181700
H12 H 0.853000 -0.387000 0.655200
H13 H 0.784000 -0.594000 0.719100
H14 H 0.594000 -0.578000 0.732100
H15 H 0.469000 -0.350000 0.681700
H16 H 0.540000 -0.143000 0.619600
H17 H 0.784000 1.594000 0.219100
H18 H 0.540000 1.143000 0.119600
H19 H 0.853000 1.387000 0.155200
H20 H 0.960000 0.357000 -0.119600
H21 H 1.031000 0.150000 -0.181700
H22 H 0.906000 -0.078000 -0.232100
H23 H 0.716000 -0.094000 -0.219100
H24 H 0.647000 0.113000 -0.155200
H25 H 0.094000 1.078000 1.232100
H26 H 0.647000 0.887000 0.344800
H27 H -0.031000 0.850000 1.181700
H28 H 0.960000 0.643000 0.380400
H29 H 0.284000 1.094000 1.219100
H30 H 0.716000 1.094000 0.280900
H31 H 1.031000 0.850000 0.318300
H32 H 0.906000 1.078000 0.267900
H33 H 0.040000 0.643000 1.119600
H34 H 0.353000 0.887000 1.155200
H35 H 0.460000 -0.143000 0.880400
H36 H 0.531000 -0.350000 0.818300
H37 H 0.406000 -0.578000 0.767900
H38 H 0.216000 -0.594000 0.780900
H39 H 0.147000 -0.387000 0.844800
H40 H 0.094000 1.078000 0.232100
H41 H -0.031000 0.850000 0.181700
H42 H 0.284000 1.094000 0.219100
H43 H 0.040000 0.643000 0.119600
H44 H 0.353000 0.113000 0.655200
H45 H 0.284000 -0.094000 0.719100
H46 H 0.094000 -0.078000 0.732100
H47 H -0.031000 0.150000 0.681700
H48 H 0.040000 0.357000 0.619600
H49 H 0.353000 0.887000 0.155200
H50 H 0.460000 -0.143000 -0.119600
H51 H 0.531000 -0.350000 -0.181700
H52 H 0.406000 -0.578000 -0.232100
H53 H 0.216000 -0.594000 -0.219100
H54 H 0.147000 -0.387000 -0.155200
H55 H 0.406000 1.578000 0.267900
H56 H 0.531000 1.350000 0.318300
H57 H 0.216000 1.594000 0.280900
H58 H 0.147000 1.387000 0.344800
H59 H 0.460000 1.143000 0.380400
H60 H 0.469000 1.350000 1.181700
C61 C 0.377700 1.492800 0.293690
C62 C 0.266300 1.498600 0.300620
C63 C 0.411400 1.228800 0.361010
C64 C 0.226400 1.372600 0.337850
C65 C 0.622300 1.492800 1.206310
C66 C 0.549700 1.358200 1.176290
C67 C 0.758800 0.174700 0.518780
C68 C 0.241200 0.174700 -0.018780
C69 C 0.253700 -0.101500 -0.092180
C70 C 0.299000 -0.235800 -0.131340
C71 C 0.226400 -0.372600 -0.162150
C72 C 0.266300 -0.498600 -0.199380
C73 C 0.377700 -0.492800 -0.206310
C74 C 0.450300 -0.358200 -0.176290
C75 C 0.411400 -0.228800 -0.138990
C76 C 0.299000 1.235800 0.368660
C77 C 0.253700 1.101500 0.407820
C78 C 0.733700 1.498600 1.199380
C79 C 0.588600 1.228800 1.138990
C80 C 0.773600 1.372600 1.162150
C81 C 0.258800 0.325300 0.018780
C82 C 0.701000 1.235800 1.131340
C83 C 0.746300 1.101500 1.092180
C84 C 0.758800 0.825300 1.018780
C85 C 0.246300 0.601500 0.092180
C86 C 0.201000 0.735800 0.131340
C87 C 0.273600 0.872600 0.162150
C88 C 0.088600 0.728800 0.138990
C89 C 0.233700 0.998600 0.199380
C90 C 0.241200 0.825300 0.481220
C91 C 0.049700 0.858200 0.176290
C92 C 0.088600 0.271200 0.638990
C93 C 0.122300 0.992800 0.206310
C94 C 0.049700 0.141800 0.676290
C95 C 0.122300 0.007200 0.706310
C96 C 0.233700 0.001400 0.699380
C97 C 0.746300 -0.101500 0.592180
C98 C 0.701000 -0.235800 0.631340
C99 C 0.773600 -0.372600 0.662150
C100 C 0.241200 0.174700 0.981220
C101 C 0.253700 -0.101500 0.907820
C102 C 0.299000 -0.235800 0.868660
C103 C 0.226400 -0.372600 0.837850
C104 C 0.266300 -0.498600 0.800620
C105 C 0.377700 -0.492800 0.793690
C106 C 0.450300 -0.358200 0.823710
C107 C 0.411400 -0.228800 0.861010
C108 C 0.273600 0.127400 0.662150
C109 C 0.201000 0.264200 0.631340
C110 C 0.246300 0.398500 0.592180
C111 C 0.258800 0.674700 0.518780
C112 C 0.733700 -0.498600 0.699380
C113 C 0.258800 0.325300 1.018780
C114 C 0.622300 -0.492800 0.706310
C115 C 0.911400 0.271200 0.861010
C116 C 0.950300 0.141800 0.823710
C117 C 0.246300 0.601500 1.092180
C118 C 0.201000 0.735800 1.131340
C119 C 0.273600 0.872600 1.162150
C120 C 0.088600 0.728800 1.138990
C121 C 0.233700 0.998600 1.199380
C122 C 0.877700 0.007200 0.793690
C123 C 0.049700 0.858200 1.176290
C124 C 0.766300 0.001400 0.800620
C125 C 0.122300 0.992800 1.206310
C126 C 0.877700 0.992800 0.293690
C127 C 0.950300 0.858200 0.323710
C128 C 0.766300 0.998600 0.300620
C129 C 0.726400 0.127400 0.837850
C130 C 0.799000 0.264200 0.868660
C131 C 0.753700 0.398500 0.907820
C132 C 0.741200 0.674700 -0.018780
C133 C 0.753700 0.398500 -0.092180
C134 C 0.799000 0.264200 -0.131340
C135 C 0.726400 0.127400 -0.162150
C136 C 0.766300 0.001400 -0.199380
C137 C 0.877700 0.007200 -0.206310
C138 C 0.950300 0.141800 -0.176290
C139 C 0.911400 0.271200 -0.138990
C140 C 0.911400 0.728800 0.361010
C141 C 0.726400 0.872600 0.337850
C142 C 0.799000 0.735800 0.368660
C143 C 0.753700 0.601500 0.407820
C144 C 0.741200 0.674700 0.981220
C145 C 0.758800 0.825300 0.018780
C146 C 0.549700 -0.358200 0.676290
C147 C 0.588600 -0.228800 0.638990
C148 C 0.741200 0.325300 0.481220
C149 C 0.746300 1.101500 0.092180
C150 C 0.701000 1.235800 0.131340
C151 C 0.773600 1.372600 0.162150
C152 C 0.588600 1.228800 0.138990
C153 C 0.733700 1.498600 0.199380
C154 C 0.622300 1.492800 0.206310
C155 C 0.549700 1.358200 0.176290
C156 C 0.450300 1.358200 0.323710
N157 N 0.850200 -0.110300 0.585310
N158 N 0.850200 1.110300 0.085310
N159 N 0.149800 -0.110300 -0.085310
N160 N 0.149800 1.110300 0.414690
N161 N 0.850200 1.110300 1.085310
N162 N 0.350200 0.610300 0.085310
N163 N 0.649800 0.389700 0.914690
N164 N 0.649800 0.610300 0.414690
N165 N 0.649800 0.389700 -0.085310
N166 N 0.149800 -0.110300 0.914690
N167 N 0.350200 0.389700 0.585310
N168 N 0.350200 0.610300 1.085310
S169 S 0.153790 0.570700 0.553280
S170 S 0.389860 0.546700 0.539420
S171 S 0.153790 0.429300 1.053280
S172 S 0.389860 0.453300 1.039420
S173 S 0.610140 0.546700 -0.039420
S174 S 0.846210 0.570700 -0.053280
S175 S 0.346210 0.070700 0.946720
S176 S 0.110140 0.046700 0.960580
S177 S 0.846210 0.570700 0.946720
S178 S 0.889860 0.953300 1.039420
S179 S 0.653790 0.929300 1.053280
S180 S 0.610140 0.546700 0.960580
S181 S 0.153790 0.429300 0.053280
S182 S 0.389860 0.453300 0.039420
S183 S 0.110140 0.953300 0.460580
S184 S 0.346210 0.929300 0.446720
S185 S 0.889860 0.953300 0.039420
S186 S 0.653790 0.929300 0.053280
S187 S 0.346210 0.070700 -0.053280
S188 S 0.846210 0.429300 0.446720
S189 S 0.110140 0.046700 -0.039420
S190 S 0.653790 0.070700 0.553280
S191 S 0.610140 0.453300 0.460580
S192 S 0.889860 0.046700 0.539420

#END
