
#######################################################################
#
#                 Cambridge Crystallographic Data Centre
#                                CCDC 
#
#######################################################################
#
# If this CIF has been generated from an entry in the Cambridge 
# Structural Database, then it will include bibliographic, chemical, 
# crystal, experimental, refinement or atomic coordinate data resulting 
# from the CCDC's data processing and validation procedures.
#
#######################################################################

data_LAFDED
_symmetry_cell_setting           monoclinic
_symmetry_space_group_name_H-M   'P 21/n'
_symmetry_Int_Tables_number      14
_space_group_name_Hall           '-P 2yn'
loop_
_symmetry_equiv_pos_site_id
_symmetry_equiv_pos_as_xyz
1 x,y,z
2 1/2-x,1/2+y,1/2-z
3 -x,-y,-z
4 1/2+x,1/2-y,1/2+z
_cell_length_a                   8.1331(4)
_cell_length_b                   20.6938(11)
_cell_length_c                   8.3496(5)
_cell_angle_alpha                90
_cell_angle_beta                 109.930(2)
_cell_angle_gamma                90
_cell_volume                     1321.11
loop_
_atom_site_label
_atom_site_type_symbol
_atom_site_fract_x
_atom_site_fract_y
_atom_site_fract_z
Br1 Br 0.35950(4) 0.207849(13) 0.97002(4)
Br1 Br 0.14050(4) 0.707849(13) 0.52998(4)
Br1 Br 0.64050(4) 0.792151(13) 0.02998(4)
Br1 Br 0.85950(4) 0.292151(13) 0.47002(4)
C1 C 0.5438(3) 0.53127(10) 0.5322(3)
N1 N 0.7057(2) 0.64704(8) 0.6500(2)
C2 C 0.7067(4) 0.54567(13) 0.5264(4)
C3 C 0.7867(4) 0.71146(11) 0.7048(3)
C4 C 0.7041(4) 0.76222(12) 0.5727(4)
C5 C 0.7858(4) 0.82762(12) 0.6261(4)
C6 C 0.4664(4) 0.57700(12) 0.6019(4)
O1 O 0.6407(3) 0.98939(9) 0.2739(3)
C7 C 0.5497(4) 0.63426(13) 0.6606(4)
C8 C 0.7849(4) 0.60335(13) 0.5854(4)
O2 O 0.7489(4) 1.05519(10) 0.4905(3)
C9 C 0.7064(5) 0.87934(13) 0.4948(4)
C10 C 0.7769(5) 0.94521(14) 0.5518(4)
C11 C 0.7133(4) 0.99751(13) 0.4227(4)
H1 H 0.350(4) 0.5720(12) 0.609(3)
H2 H 0.504(4) 0.6647(13) 0.703(3)
H3 H 0.760(3) 0.5193(12) 0.483(3)
H4 H 0.895(4) 0.6151(12) 0.587(3)
H5 H 0.902(3) 0.7063(9) 0.717(3)
H6 H 0.777(3) 0.7217(9) 0.814(3)
H7 H 0.715(3) 0.7502(11) 0.464(3)
H8 H 0.911(4) 0.8265(13) 0.654(4)
H9 H 0.778(3) 0.8405(11) 0.732(3)
H10 H 0.721(3) 0.8694(12) 0.386(4)
H11 H 0.583(3) 0.7641(11) 0.556(3)
H12 H 0.583(4) 0.8817(14) 0.462(4)
H13 H 0.914(5) 0.9433(16) 0.605(4)
H14 H 0.733(6) 1.084(2) 0.411(5)
H15 H 0.752(4) 0.9561(15) 0.646(4)
C1B C 0.4562(3) 0.46873(10) 0.4678(3)
N1B N 0.2943(2) 0.35296(8) 0.3500(2)
C2B C 0.2933(4) 0.45433(13) 0.4736(4)
C3B C 0.2133(4) 0.28854(11) 0.2952(3)
C4B C 0.2959(4) 0.23778(12) 0.4273(4)
C5B C 0.2142(4) 0.17238(12) 0.3739(4)
C6B C 0.5336(4) 0.42300(12) 0.3981(4)
O1B O 0.3593(3) 0.01061(9) 0.7261(3)
C7B C 0.4503(4) 0.36574(13) 0.3394(4)
C8B C 0.2151(4) 0.39665(13) 0.4146(4)
O2B O 0.2511(4) -0.05519(10) 0.5095(3)
C9B C 0.2936(5) 0.12066(13) 0.5052(4)
C10B C 0.2231(5) 0.05479(14) 0.4482(4)
C11B C 0.2867(4) 0.00249(13) 0.5773(4)
H1B H 0.650(4) 0.4280(12) 0.391(3)
H2B H 0.496(4) 0.3353(13) 0.297(3)
H3B H 0.240(3) 0.4807(12) 0.517(3)
H4B H 0.105(4) 0.3849(12) 0.413(3)
H5B H 0.098(3) 0.2937(9) 0.283(3)
H6B H 0.223(3) 0.2783(9) 0.186(3)
H7B H 0.285(3) 0.2498(11) 0.536(3)
H8B H 0.089(4) 0.1735(13) 0.346(4)
H9B H 0.222(3) 0.1595(11) 0.268(3)
H10B H 0.279(3) 0.1306(12) 0.614(4)
H11B H 0.417(3) 0.2359(11) 0.444(3)
H12B H 0.417(4) 0.1183(14) 0.538(4)
H13B H 0.086(5) 0.0567(16) 0.395(4)
H14B H 0.267(6) -0.084(2) 0.589(5)
H15B H 0.248(4) 0.0439(15) 0.354(4)
C1 C -0.0438(3) 0.03127(10) -0.0322(3)
N1 N -0.2057(2) 0.14704(8) -0.1500(2)
C2 C -0.2067(4) 0.04567(13) -0.0264(4)
C3 C -0.2867(4) 0.21146(11) -0.2048(3)
C4 C -0.2041(4) 0.26222(12) -0.0727(4)
C5 C -0.2858(4) 0.32762(12) -0.1261(4)
C6 C 0.0336(4) 0.07700(12) -0.1019(4)
O1 O -0.1407(3) 0.48939(9) 0.2261(3)
C7 C -0.0497(4) 0.13426(13) -0.1606(4)
C8 C -0.2849(4) 0.10335(13) -0.0854(4)
O2 O -0.2489(4) 0.55519(10) 0.0095(3)
C9 C -0.2064(5) 0.37934(13) 0.0052(4)
C10 C -0.2769(5) 0.44521(14) -0.0518(4)
C11 C -0.2133(4) 0.49751(13) 0.0773(4)
H1 H 0.150(4) 0.0720(12) -0.109(3)
H2 H -0.004(4) 0.1647(13) -0.203(3)
H3 H -0.260(3) 0.0193(12) 0.017(3)
H4 H -0.395(4) 0.1151(12) -0.087(3)
H5 H -0.402(3) 0.2063(9) -0.217(3)
H6 H -0.277(3) 0.2217(9) -0.314(3)
H7 H -0.215(3) 0.2502(11) 0.036(3)
H8 H -0.411(4) 0.3265(13) -0.154(4)
H9 H -0.278(3) 0.3405(11) -0.232(3)
H10 H -0.221(3) 0.3694(12) 0.114(4)
H11 H -0.083(3) 0.2641(11) -0.056(3)
H12 H -0.083(4) 0.3817(14) 0.038(4)
H13 H -0.414(5) 0.4433(16) -0.105(4)
H14 H -0.233(6) 0.584(2) 0.089(5)
H15 H -0.252(4) 0.4561(15) -0.146(4)
C1B C 0.0438(3) -0.03127(10) 0.0322(3)
N1B N 0.2057(2) -0.14704(8) 0.1500(2)
C2B C 0.2067(4) -0.04567(13) 0.0264(4)
C3B C 0.2867(4) -0.21146(11) 0.2048(3)
C4B C 0.2041(4) -0.26222(12) 0.0727(4)
C5B C 0.2858(4) -0.32762(12) 0.1261(4)
C6B C -0.0336(4) -0.07700(12) 0.1019(4)
O1B O 0.1407(3) -0.48939(9) -0.2261(3)
C7B C 0.0497(4) -0.13426(13) 0.1606(4)
C8B C 0.2849(4) -0.10335(13) 0.0854(4)
O2B O 0.2489(4) -0.55519(10) -0.0095(3)
C9B C 0.2064(5) -0.37934(13) -0.0052(4)
C10B C 0.2769(5) -0.44521(14) 0.0518(4)
C11B C 0.2133(4) -0.49751(13) -0.0773(4)
H1B H -0.150(4) -0.0720(12) 0.109(3)
H2B H 0.004(4) -0.1647(13) 0.203(3)
H3B H 0.260(3) -0.0193(12) -0.017(3)
H4B H 0.395(4) -0.1151(12) 0.087(3)
H5B H 0.402(3) -0.2063(9) 0.217(3)
H6B H 0.277(3) -0.2217(9) 0.314(3)
H7B H 0.215(3) -0.2502(11) -0.036(3)
H8B H 0.411(4) -0.3265(13) 0.154(4)
H9B H 0.278(3) -0.3405(11) 0.232(3)
H10B H 0.221(3) -0.3694(12) -0.114(4)
H11B H 0.083(3) -0.2641(11) 0.056(3)
H12B H 0.083(4) -0.3817(14) -0.038(4)
H13B H 0.414(5) -0.4433(16) 0.105(4)
H14B H 0.233(6) -0.584(2) -0.089(5)
H15B H 0.252(4) -0.4561(15) 0.146(4)
C1 C -0.0438(3) 0.03127(10) 0.9678(3)
N1 N -0.2057(2) 0.14704(8) 0.8500(2)
C2 C -0.2067(4) 0.04567(13) 0.9736(4)
C3 C -0.2867(4) 0.21146(11) 0.7952(3)
C4 C -0.2041(4) 0.26222(12) 0.9273(4)
C5 C -0.2858(4) 0.32762(12) 0.8739(4)
C6 C 0.0336(4) 0.07700(12) 0.8981(4)
O1 O -0.1407(3) 0.48939(9) 1.2261(3)
C7 C -0.0497(4) 0.13426(13) 0.8394(4)
C8 C -0.2849(4) 0.10335(13) 0.9146(4)
O2 O -0.2489(4) 0.55519(10) 1.0095(3)
C9 C -0.2064(5) 0.37934(13) 1.0052(4)
C10 C -0.2769(5) 0.44521(14) 0.9482(4)
C11 C -0.2133(4) 0.49751(13) 1.0773(4)
H1 H 0.150(4) 0.0720(12) 0.891(3)
H2 H -0.004(4) 0.1647(13) 0.797(3)
H3 H -0.260(3) 0.0193(12) 1.017(3)
H4 H -0.395(4) 0.1151(12) 0.913(3)
H5 H -0.402(3) 0.2063(9) 0.783(3)
H6 H -0.277(3) 0.2217(9) 0.686(3)
H7 H -0.215(3) 0.2502(11) 1.036(3)
H8 H -0.411(4) 0.3265(13) 0.846(4)
H9 H -0.278(3) 0.3405(11) 0.768(3)
H10 H -0.221(3) 0.3694(12) 1.114(4)
H11 H -0.083(3) 0.2641(11) 0.944(3)
H12 H -0.083(4) 0.3817(14) 1.038(4)
H13 H -0.414(5) 0.4433(16) 0.895(4)
H14 H -0.233(6) 0.584(2) 1.089(5)
H15 H -0.252(4) 0.4561(15) 0.854(4)
C1B C 0.0438(3) -0.03127(10) 1.0322(3)
N1B N 0.2057(2) -0.14704(8) 1.1500(2)
C2B C 0.2067(4) -0.04567(13) 1.0264(4)
C3B C 0.2867(4) -0.21146(11) 1.2048(3)
C4B C 0.2041(4) -0.26222(12) 1.0727(4)
C5B C 0.2858(4) -0.32762(12) 1.1261(4)
C6B C -0.0336(4) -0.07700(12) 1.1019(4)
O1B O 0.1407(3) -0.48939(9) 0.7739(3)
C7B C 0.0497(4) -0.13426(13) 1.1606(4)
C8B C 0.2849(4) -0.10335(13) 1.0854(4)
O2B O 0.2489(4) -0.55519(10) 0.9905(3)
C9B C 0.2064(5) -0.37934(13) 0.9948(4)
C10B C 0.2769(5) -0.44521(14) 1.0518(4)
C11B C 0.2133(4) -0.49751(13) 0.9227(4)
H1B H -0.150(4) -0.0720(12) 1.109(3)
H2B H 0.004(4) -0.1647(13) 1.203(3)
H3B H 0.260(3) -0.0193(12) 0.983(3)
H4B H 0.395(4) -0.1151(12) 1.087(3)
H5B H 0.402(3) -0.2063(9) 1.217(3)
H6B H 0.277(3) -0.2217(9) 1.314(3)
H7B H 0.215(3) -0.2502(11) 0.964(3)
H8B H 0.411(4) -0.3265(13) 1.154(4)
H9B H 0.278(3) -0.3405(11) 1.232(3)
H10B H 0.221(3) -0.3694(12) 0.886(4)
H11B H 0.083(3) -0.2641(11) 1.056(3)
H12B H 0.083(4) -0.3817(14) 0.962(4)
H13B H 0.414(5) -0.4433(16) 1.105(4)
H14B H 0.233(6) -0.584(2) 0.911(5)
H15B H 0.252(4) -0.4561(15) 1.146(4)
C1 C -0.0438(3) 1.03127(10) -0.0322(3)
N1 N -0.2057(2) 1.14704(8) -0.1500(2)
C2 C -0.2067(4) 1.04567(13) -0.0264(4)
C3 C -0.2867(4) 1.21146(11) -0.2048(3)
C4 C -0.2041(4) 1.26222(12) -0.0727(4)
C5 C -0.2858(4) 1.32762(12) -0.1261(4)
C6 C 0.0336(4) 1.07700(12) -0.1019(4)
O1 O -0.1407(3) 1.48939(9) 0.2261(3)
C7 C -0.0497(4) 1.13426(13) -0.1606(4)
C8 C -0.2849(4) 1.10335(13) -0.0854(4)
O2 O -0.2489(4) 1.55519(10) 0.0095(3)
C9 C -0.2064(5) 1.37934(13) 0.0052(4)
C10 C -0.2769(5) 1.44521(14) -0.0518(4)
C11 C -0.2133(4) 1.49751(13) 0.0773(4)
H1 H 0.150(4) 1.0720(12) -0.109(3)
H2 H -0.004(4) 1.1647(13) -0.203(3)
H3 H -0.260(3) 1.0193(12) 0.017(3)
H4 H -0.395(4) 1.1151(12) -0.087(3)
H5 H -0.402(3) 1.2063(9) -0.217(3)
H6 H -0.277(3) 1.2217(9) -0.314(3)
H7 H -0.215(3) 1.2502(11) 0.036(3)
H8 H -0.411(4) 1.3265(13) -0.154(4)
H9 H -0.278(3) 1.3405(11) -0.232(3)
H10 H -0.221(3) 1.3694(12) 0.114(4)
H11 H -0.083(3) 1.2641(11) -0.056(3)
H12 H -0.083(4) 1.3817(14) 0.038(4)
H13 H -0.414(5) 1.4433(16) -0.105(4)
H14 H -0.233(6) 1.584(2) 0.089(5)
H15 H -0.252(4) 1.4561(15) -0.146(4)
C1B C 0.0438(3) 0.96873(10) 0.0322(3)
N1B N 0.2057(2) 0.85296(8) 0.1500(2)
C2B C 0.2067(4) 0.95433(13) 0.0264(4)
C3B C 0.2867(4) 0.78854(11) 0.2048(3)
C4B C 0.2041(4) 0.73778(12) 0.0727(4)
C5B C 0.2858(4) 0.67238(12) 0.1261(4)
C6B C -0.0336(4) 0.92300(12) 0.1019(4)
O1B O 0.1407(3) 0.51061(9) -0.2261(3)
C7B C 0.0497(4) 0.86574(13) 0.1606(4)
C8B C 0.2849(4) 0.89665(13) 0.0854(4)
O2B O 0.2489(4) 0.44481(10) -0.0095(3)
C9B C 0.2064(5) 0.62066(13) -0.0052(4)
C10B C 0.2769(5) 0.55479(14) 0.0518(4)
C11B C 0.2133(4) 0.50249(13) -0.0773(4)
H1B H -0.150(4) 0.9280(12) 0.109(3)
H2B H 0.004(4) 0.8353(13) 0.203(3)
H3B H 0.260(3) 0.9807(12) -0.017(3)
H4B H 0.395(4) 0.8849(12) 0.087(3)
H5B H 0.402(3) 0.7937(9) 0.217(3)
H6B H 0.277(3) 0.7783(9) 0.314(3)
H7B H 0.215(3) 0.7498(11) -0.036(3)
H8B H 0.411(4) 0.6735(13) 0.154(4)
H9B H 0.278(3) 0.6595(11) 0.232(3)
H10B H 0.221(3) 0.6306(12) -0.114(4)
H11B H 0.083(3) 0.7359(11) 0.056(3)
H12B H 0.083(4) 0.6183(14) -0.038(4)
H13B H 0.414(5) 0.5567(16) 0.105(4)
H14B H 0.233(6) 0.416(2) -0.089(5)
H15B H 0.252(4) 0.5439(15) 0.146(4)
C1 C -0.0438(3) 1.03127(10) 0.9678(3)
N1 N -0.2057(2) 1.14704(8) 0.8500(2)
C2 C -0.2067(4) 1.04567(13) 0.9736(4)
C3 C -0.2867(4) 1.21146(11) 0.7952(3)
C4 C -0.2041(4) 1.26222(12) 0.9273(4)
C5 C -0.2858(4) 1.32762(12) 0.8739(4)
C6 C 0.0336(4) 1.07700(12) 0.8981(4)
O1 O -0.1407(3) 1.48939(9) 1.2261(3)
C7 C -0.0497(4) 1.13426(13) 0.8394(4)
C8 C -0.2849(4) 1.10335(13) 0.9146(4)
O2 O -0.2489(4) 1.55519(10) 1.0095(3)
C9 C -0.2064(5) 1.37934(13) 1.0052(4)
C10 C -0.2769(5) 1.44521(14) 0.9482(4)
C11 C -0.2133(4) 1.49751(13) 1.0773(4)
H1 H 0.150(4) 1.0720(12) 0.891(3)
H2 H -0.004(4) 1.1647(13) 0.797(3)
H3 H -0.260(3) 1.0193(12) 1.017(3)
H4 H -0.395(4) 1.1151(12) 0.913(3)
H5 H -0.402(3) 1.2063(9) 0.783(3)
H6 H -0.277(3) 1.2217(9) 0.686(3)
H7 H -0.215(3) 1.2502(11) 1.036(3)
H8 H -0.411(4) 1.3265(13) 0.846(4)
H9 H -0.278(3) 1.3405(11) 0.768(3)
H10 H -0.221(3) 1.3694(12) 1.114(4)
H11 H -0.083(3) 1.2641(11) 0.944(3)
H12 H -0.083(4) 1.3817(14) 1.038(4)
H13 H -0.414(5) 1.4433(16) 0.895(4)
H14 H -0.233(6) 1.584(2) 1.089(5)
H15 H -0.252(4) 1.4561(15) 0.854(4)
C1B C 0.0438(3) 0.96873(10) 1.0322(3)
N1B N 0.2057(2) 0.85296(8) 1.1500(2)
C2B C 0.2067(4) 0.95433(13) 1.0264(4)
C3B C 0.2867(4) 0.78854(11) 1.2048(3)
C4B C 0.2041(4) 0.73778(12) 1.0727(4)
C5B C 0.2858(4) 0.67238(12) 1.1261(4)
C6B C -0.0336(4) 0.92300(12) 1.1019(4)
O1B O 0.1407(3) 0.51061(9) 0.7739(3)
C7B C 0.0497(4) 0.86574(13) 1.1606(4)
C8B C 0.2849(4) 0.89665(13) 1.0854(4)
O2B O 0.2489(4) 0.44481(10) 0.9905(3)
C9B C 0.2064(5) 0.62066(13) 0.9948(4)
C10B C 0.2769(5) 0.55479(14) 1.0518(4)
C11B C 0.2133(4) 0.50249(13) 0.9227(4)
H1B H -0.150(4) 0.9280(12) 1.109(3)
H2B H 0.004(4) 0.8353(13) 1.203(3)
H3B H 0.260(3) 0.9807(12) 0.983(3)
H4B H 0.395(4) 0.8849(12) 1.087(3)
H5B H 0.402(3) 0.7937(9) 1.217(3)
H6B H 0.277(3) 0.7783(9) 1.314(3)
H7B H 0.215(3) 0.7498(11) 0.964(3)
H8B H 0.411(4) 0.6735(13) 1.154(4)
H9B H 0.278(3) 0.6595(11) 1.232(3)
H10B H 0.221(3) 0.6306(12) 0.886(4)
H11B H 0.083(3) 0.7359(11) 1.056(3)
H12B H 0.083(4) 0.6183(14) 0.962(4)
H13B H 0.414(5) 0.5567(16) 1.105(4)
H14B H 0.233(6) 0.416(2) 0.911(5)
H15B H 0.252(4) 0.5439(15) 1.146(4)
C1 C 0.9562(3) 0.03127(10) -0.0322(3)
N1 N 0.7943(2) 0.14704(8) -0.1500(2)
C2 C 0.7933(4) 0.04567(13) -0.0264(4)
C3 C 0.7133(4) 0.21146(11) -0.2048(3)
C4 C 0.7959(4) 0.26222(12) -0.0727(4)
C5 C 0.7142(4) 0.32762(12) -0.1261(4)
C6 C 1.0336(4) 0.07700(12) -0.1019(4)
O1 O 0.8593(3) 0.48939(9) 0.2261(3)
C7 C 0.9503(4) 0.13426(13) -0.1606(4)
C8 C 0.7151(4) 0.10335(13) -0.0854(4)
O2 O 0.7511(4) 0.55519(10) 0.0095(3)
C9 C 0.7936(5) 0.37934(13) 0.0052(4)
C10 C 0.7231(5) 0.44521(14) -0.0518(4)
C11 C 0.7867(4) 0.49751(13) 0.0773(4)
H1 H 1.150(4) 0.0720(12) -0.109(3)
H2 H 0.996(4) 0.1647(13) -0.203(3)
H3 H 0.740(3) 0.0193(12) 0.017(3)
H4 H 0.605(4) 0.1151(12) -0.087(3)
H5 H 0.598(3) 0.2063(9) -0.217(3)
H6 H 0.723(3) 0.2217(9) -0.314(3)
H7 H 0.785(3) 0.2502(11) 0.036(3)
H8 H 0.589(4) 0.3265(13) -0.154(4)
H9 H 0.722(3) 0.3405(11) -0.232(3)
H10 H 0.779(3) 0.3694(12) 0.114(4)
H11 H 0.917(3) 0.2641(11) -0.056(3)
H12 H 0.917(4) 0.3817(14) 0.038(4)
H13 H 0.586(5) 0.4433(16) -0.105(4)
H14 H 0.767(6) 0.584(2) 0.089(5)
H15 H 0.748(4) 0.4561(15) -0.146(4)
C1B C 1.0438(3) -0.03127(10) 0.0322(3)
N1B N 1.2057(2) -0.14704(8) 0.1500(2)
C2B C 1.2067(4) -0.04567(13) 0.0264(4)
C3B C 1.2867(4) -0.21146(11) 0.2048(3)
C4B C 1.2041(4) -0.26222(12) 0.0727(4)
C5B C 1.2858(4) -0.32762(12) 0.1261(4)
C6B C 0.9664(4) -0.07700(12) 0.1019(4)
O1B O 1.1407(3) -0.48939(9) -0.2261(3)
C7B C 1.0497(4) -0.13426(13) 0.1606(4)
C8B C 1.2849(4) -0.10335(13) 0.0854(4)
O2B O 1.2489(4) -0.55519(10) -0.0095(3)
C9B C 1.2064(5) -0.37934(13) -0.0052(4)
C10B C 1.2769(5) -0.44521(14) 0.0518(4)
C11B C 1.2133(4) -0.49751(13) -0.0773(4)
H1B H 0.850(4) -0.0720(12) 0.109(3)
H2B H 1.004(4) -0.1647(13) 0.203(3)
H3B H 1.260(3) -0.0193(12) -0.017(3)
H4B H 1.395(4) -0.1151(12) 0.087(3)
H5B H 1.402(3) -0.2063(9) 0.217(3)
H6B H 1.277(3) -0.2217(9) 0.314(3)
H7B H 1.215(3) -0.2502(11) -0.036(3)
H8B H 1.411(4) -0.3265(13) 0.154(4)
H9B H 1.278(3) -0.3405(11) 0.232(3)
H10B H 1.221(3) -0.3694(12) -0.114(4)
H11B H 1.083(3) -0.2641(11) 0.056(3)
H12B H 1.083(4) -0.3817(14) -0.038(4)
H13B H 1.414(5) -0.4433(16) 0.105(4)
H14B H 1.233(6) -0.584(2) -0.089(5)
H15B H 1.252(4) -0.4561(15) 0.146(4)
C1 C 0.9562(3) 0.03127(10) 0.9678(3)
N1 N 0.7943(2) 0.14704(8) 0.8500(2)
C2 C 0.7933(4) 0.04567(13) 0.9736(4)
C3 C 0.7133(4) 0.21146(11) 0.7952(3)
C4 C 0.7959(4) 0.26222(12) 0.9273(4)
C5 C 0.7142(4) 0.32762(12) 0.8739(4)
C6 C 1.0336(4) 0.07700(12) 0.8981(4)
O1 O 0.8593(3) 0.48939(9) 1.2261(3)
C7 C 0.9503(4) 0.13426(13) 0.8394(4)
C8 C 0.7151(4) 0.10335(13) 0.9146(4)
O2 O 0.7511(4) 0.55519(10) 1.0095(3)
C9 C 0.7936(5) 0.37934(13) 1.0052(4)
C10 C 0.7231(5) 0.44521(14) 0.9482(4)
C11 C 0.7867(4) 0.49751(13) 1.0773(4)
H1 H 1.150(4) 0.0720(12) 0.891(3)
H2 H 0.996(4) 0.1647(13) 0.797(3)
H3 H 0.740(3) 0.0193(12) 1.017(3)
H4 H 0.605(4) 0.1151(12) 0.913(3)
H5 H 0.598(3) 0.2063(9) 0.783(3)
H6 H 0.723(3) 0.2217(9) 0.686(3)
H7 H 0.785(3) 0.2502(11) 1.036(3)
H8 H 0.589(4) 0.3265(13) 0.846(4)
H9 H 0.722(3) 0.3405(11) 0.768(3)
H10 H 0.779(3) 0.3694(12) 1.114(4)
H11 H 0.917(3) 0.2641(11) 0.944(3)
H12 H 0.917(4) 0.3817(14) 1.038(4)
H13 H 0.586(5) 0.4433(16) 0.895(4)
H14 H 0.767(6) 0.584(2) 1.089(5)
H15 H 0.748(4) 0.4561(15) 0.854(4)
C1B C 1.0438(3) -0.03127(10) 1.0322(3)
N1B N 1.2057(2) -0.14704(8) 1.1500(2)
C2B C 1.2067(4) -0.04567(13) 1.0264(4)
C3B C 1.2867(4) -0.21146(11) 1.2048(3)
C4B C 1.2041(4) -0.26222(12) 1.0727(4)
C5B C 1.2858(4) -0.32762(12) 1.1261(4)
C6B C 0.9664(4) -0.07700(12) 1.1019(4)
O1B O 1.1407(3) -0.48939(9) 0.7739(3)
C7B C 1.0497(4) -0.13426(13) 1.1606(4)
C8B C 1.2849(4) -0.10335(13) 1.0854(4)
O2B O 1.2489(4) -0.55519(10) 0.9905(3)
C9B C 1.2064(5) -0.37934(13) 0.9948(4)
C10B C 1.2769(5) -0.44521(14) 1.0518(4)
C11B C 1.2133(4) -0.49751(13) 0.9227(4)
H1B H 0.850(4) -0.0720(12) 1.109(3)
H2B H 1.004(4) -0.1647(13) 1.203(3)
H3B H 1.260(3) -0.0193(12) 0.983(3)
H4B H 1.395(4) -0.1151(12) 1.087(3)
H5B H 1.402(3) -0.2063(9) 1.217(3)
H6B H 1.277(3) -0.2217(9) 1.314(3)
H7B H 1.215(3) -0.2502(11) 0.964(3)
H8B H 1.411(4) -0.3265(13) 1.154(4)
H9B H 1.278(3) -0.3405(11) 1.232(3)
H10B H 1.221(3) -0.3694(12) 0.886(4)
H11B H 1.083(3) -0.2641(11) 1.056(3)
H12B H 1.083(4) -0.3817(14) 0.962(4)
H13B H 1.414(5) -0.4433(16) 1.105(4)
H14B H 1.233(6) -0.584(2) 0.911(5)
H15B H 1.252(4) -0.4561(15) 1.146(4)
C1 C 0.9562(3) 1.03127(10) -0.0322(3)
N1 N 0.7943(2) 1.14704(8) -0.1500(2)
C2 C 0.7933(4) 1.04567(13) -0.0264(4)
C3 C 0.7133(4) 1.21146(11) -0.2048(3)
C4 C 0.7959(4) 1.26222(12) -0.0727(4)
C5 C 0.7142(4) 1.32762(12) -0.1261(4)
C6 C 1.0336(4) 1.07700(12) -0.1019(4)
O1 O 0.8593(3) 1.48939(9) 0.2261(3)
C7 C 0.9503(4) 1.13426(13) -0.1606(4)
C8 C 0.7151(4) 1.10335(13) -0.0854(4)
O2 O 0.7511(4) 1.55519(10) 0.0095(3)
C9 C 0.7936(5) 1.37934(13) 0.0052(4)
C10 C 0.7231(5) 1.44521(14) -0.0518(4)
C11 C 0.7867(4) 1.49751(13) 0.0773(4)
H1 H 1.150(4) 1.0720(12) -0.109(3)
H2 H 0.996(4) 1.1647(13) -0.203(3)
H3 H 0.740(3) 1.0193(12) 0.017(3)
H4 H 0.605(4) 1.1151(12) -0.087(3)
H5 H 0.598(3) 1.2063(9) -0.217(3)
H6 H 0.723(3) 1.2217(9) -0.314(3)
H7 H 0.785(3) 1.2502(11) 0.036(3)
H8 H 0.589(4) 1.3265(13) -0.154(4)
H9 H 0.722(3) 1.3405(11) -0.232(3)
H10 H 0.779(3) 1.3694(12) 0.114(4)
H11 H 0.917(3) 1.2641(11) -0.056(3)
H12 H 0.917(4) 1.3817(14) 0.038(4)
H13 H 0.586(5) 1.4433(16) -0.105(4)
H14 H 0.767(6) 1.584(2) 0.089(5)
H15 H 0.748(4) 1.4561(15) -0.146(4)
C1B C 1.0438(3) 0.96873(10) 0.0322(3)
N1B N 1.2057(2) 0.85296(8) 0.1500(2)
C2B C 1.2067(4) 0.95433(13) 0.0264(4)
C3B C 1.2867(4) 0.78854(11) 0.2048(3)
C4B C 1.2041(4) 0.73778(12) 0.0727(4)
C5B C 1.2858(4) 0.67238(12) 0.1261(4)
C6B C 0.9664(4) 0.92300(12) 0.1019(4)
O1B O 1.1407(3) 0.51061(9) -0.2261(3)
C7B C 1.0497(4) 0.86574(13) 0.1606(4)
C8B C 1.2849(4) 0.89665(13) 0.0854(4)
O2B O 1.2489(4) 0.44481(10) -0.0095(3)
C9B C 1.2064(5) 0.62066(13) -0.0052(4)
C10B C 1.2769(5) 0.55479(14) 0.0518(4)
C11B C 1.2133(4) 0.50249(13) -0.0773(4)
H1B H 0.850(4) 0.9280(12) 0.109(3)
H2B H 1.004(4) 0.8353(13) 0.203(3)
H3B H 1.260(3) 0.9807(12) -0.017(3)
H4B H 1.395(4) 0.8849(12) 0.087(3)
H5B H 1.402(3) 0.7937(9) 0.217(3)
H6B H 1.277(3) 0.7783(9) 0.314(3)
H7B H 1.215(3) 0.7498(11) -0.036(3)
H8B H 1.411(4) 0.6735(13) 0.154(4)
H9B H 1.278(3) 0.6595(11) 0.232(3)
H10B H 1.221(3) 0.6306(12) -0.114(4)
H11B H 1.083(3) 0.7359(11) 0.056(3)
H12B H 1.083(4) 0.6183(14) -0.038(4)
H13B H 1.414(5) 0.5567(16) 0.105(4)
H14B H 1.233(6) 0.416(2) -0.089(5)
H15B H 1.252(4) 0.5439(15) 0.146(4)
C1 C 0.9562(3) 1.03127(10) 0.9678(3)
N1 N 0.7943(2) 1.14704(8) 0.8500(2)
C2 C 0.7933(4) 1.04567(13) 0.9736(4)
C3 C 0.7133(4) 1.21146(11) 0.7952(3)
C4 C 0.7959(4) 1.26222(12) 0.9273(4)
C5 C 0.7142(4) 1.32762(12) 0.8739(4)
C6 C 1.0336(4) 1.07700(12) 0.8981(4)
O1 O 0.8593(3) 1.48939(9) 1.2261(3)
C7 C 0.9503(4) 1.13426(13) 0.8394(4)
C8 C 0.7151(4) 1.10335(13) 0.9146(4)
O2 O 0.7511(4) 1.55519(10) 1.0095(3)
C9 C 0.7936(5) 1.37934(13) 1.0052(4)
C10 C 0.7231(5) 1.44521(14) 0.9482(4)
C11 C 0.7867(4) 1.49751(13) 1.0773(4)
H1 H 1.150(4) 1.0720(12) 0.891(3)
H2 H 0.996(4) 1.1647(13) 0.797(3)
H3 H 0.740(3) 1.0193(12) 1.017(3)
H4 H 0.605(4) 1.1151(12) 0.913(3)
H5 H 0.598(3) 1.2063(9) 0.783(3)
H6 H 0.723(3) 1.2217(9) 0.686(3)
H7 H 0.785(3) 1.2502(11) 1.036(3)
H8 H 0.589(4) 1.3265(13) 0.846(4)
H9 H 0.722(3) 1.3405(11) 0.768(3)
H10 H 0.779(3) 1.3694(12) 1.114(4)
H11 H 0.917(3) 1.2641(11) 0.944(3)
H12 H 0.917(4) 1.3817(14) 1.038(4)
H13 H 0.586(5) 1.4433(16) 0.895(4)
H14 H 0.767(6) 1.584(2) 1.089(5)
H15 H 0.748(4) 1.4561(15) 0.854(4)
C1B C 1.0438(3) 0.96873(10) 1.0322(3)
N1B N 1.2057(2) 0.85296(8) 1.1500(2)
C2B C 1.2067(4) 0.95433(13) 1.0264(4)
C3B C 1.2867(4) 0.78854(11) 1.2048(3)
C4B C 1.2041(4) 0.73778(12) 1.0727(4)
C5B C 1.2858(4) 0.67238(12) 1.1261(4)
C6B C 0.9664(4) 0.92300(12) 1.1019(4)
O1B O 1.1407(3) 0.51061(9) 0.7739(3)
C7B C 1.0497(4) 0.86574(13) 1.1606(4)
C8B C 1.2849(4) 0.89665(13) 1.0854(4)
O2B O 1.2489(4) 0.44481(10) 0.9905(3)
C9B C 1.2064(5) 0.62066(13) 0.9948(4)
C10B C 1.2769(5) 0.55479(14) 1.0518(4)
C11B C 1.2133(4) 0.50249(13) 0.9227(4)
H1B H 0.850(4) 0.9280(12) 1.109(3)
H2B H 1.004(4) 0.8353(13) 1.203(3)
H3B H 1.260(3) 0.9807(12) 0.983(3)
H4B H 1.395(4) 0.8849(12) 1.087(3)
H5B H 1.402(3) 0.7937(9) 1.217(3)
H6B H 1.277(3) 0.7783(9) 1.314(3)
H7B H 1.215(3) 0.7498(11) 0.964(3)
H8B H 1.411(4) 0.6735(13) 1.154(4)
H9B H 1.278(3) 0.6595(11) 1.232(3)
H10B H 1.221(3) 0.6306(12) 0.886(4)
H11B H 1.083(3) 0.7359(11) 1.056(3)
H12B H 1.083(4) 0.6183(14) 0.962(4)
H13B H 1.414(5) 0.5567(16) 1.105(4)
H14B H 1.233(6) 0.416(2) 0.911(5)
H15B H 1.252(4) 0.5439(15) 1.146(4)
O3 O 0.6842(5) 0.15585(13) 0.2970(5)
H16 H 0.610(5) 0.169(2) 0.220(5)
H17 H 0.736(5) 0.1826(19) 0.342(5)
O3 O 0.8158(5) 0.65585(13) 0.2030(5)
H16 H 0.890(5) 0.669(2) 0.280(5)
H17 H 0.764(5) 0.6826(19) 0.158(5)
O3 O 0.3158(5) 0.84415(13) 0.7030(5)
H16 H 0.390(5) 0.831(2) 0.780(5)
H17 H 0.264(5) 0.8174(19) 0.658(5)
O3 O 0.1842(5) 0.34415(13) 0.7970(5)
H16 H 0.110(5) 0.331(2) 0.720(5)
H17 H 0.236(5) 0.3174(19) 0.842(5)

#END
