./LAFDED_from_POSCAR.cif_generated_by_CrystalShift
_symmetry_cell_setting triclinic
_symmetry_space_group_name_H-M 'P 1'
loop_
_symmetry_equiv_pos_site_id
_symmetry_equiv_pos_as_xyz
1 x,y,z
_cell_length_a 8.133100
_cell_length_b 20.693800
_cell_length_c 8.349600
_cell_angle_alpha 90.000000
_cell_angle_beta 109.930000
_cell_angle_gamma 90.000000
_cell_volume 1321.114925
loop_
_atom_site_label
_atom_site_type_symbol
_atom_site_fract_x
_atom_site_fract_y
_atom_site_fract_z
H1 H 0.236000 0.317400 0.842000
H2 H 0.110000 0.331000 0.720000
H3 H 0.264000 0.817400 0.658000
H4 H 0.390000 0.831000 0.780000
H5 H 1.233000 0.416000 -0.089000
H6 H 0.764000 0.682600 0.158000
H7 H 1.414000 0.556700 0.105000
H8 H 1.083000 0.618300 -0.038000
H9 H 1.083000 0.735900 0.056000
H10 H 1.221000 0.630600 -0.114000
H11 H 1.278000 0.659500 0.232000
H12 H 0.890000 0.669000 0.280000
H13 H 1.411000 0.673500 0.154000
H14 H 1.215000 0.749800 -0.036000
H15 H 0.736000 0.182600 0.342000
H16 H 1.277000 0.778300 0.314000
H17 H 1.402000 0.793700 0.217000
H18 H 1.395000 0.884900 0.087000
H19 H 0.350000 0.572000 0.609000
H20 H 0.504000 0.664700 0.703000
H21 H 0.760000 0.519300 0.483000
H22 H 0.895000 0.615100 0.587000
H23 H 0.902000 0.706300 0.717000
H24 H 0.777000 0.721700 0.814000
H25 H 0.715000 0.750200 0.464000
H26 H 0.911000 0.826500 0.654000
H27 H 0.778000 0.840500 0.732000
H28 H 0.721000 0.869400 0.386000
H29 H 0.583000 0.764100 0.556000
H30 H 0.583000 0.881700 0.462000
H31 H 0.914000 0.943300 0.605000
H32 H 0.733000 1.084000 0.411000
H33 H 0.752000 0.956100 0.646000
H34 H 1.260000 0.980700 -0.017000
H35 H 0.610000 0.169000 0.220000
H36 H 1.004000 0.835300 0.203000
H37 H 0.850000 0.928000 0.109000
H38 H 0.748000 1.456100 -0.146000
H39 H 0.767000 1.584000 0.089000
H40 H 0.586000 1.443300 -0.105000
H41 H 1.252000 0.543900 1.146000
H42 H 0.917000 1.381700 0.038000
H43 H 0.917000 1.264100 -0.056000
H44 H 1.233000 0.416000 0.911000
H45 H 0.779000 1.369400 0.114000
H46 H 0.722000 1.340500 -0.232000
H47 H 0.589000 1.326500 -0.154000
H48 H 0.650000 0.428000 0.391000
H49 H 0.496000 0.335300 0.297000
H50 H 0.240000 0.480700 0.517000
H51 H 0.105000 0.384900 0.413000
H52 H 0.098000 0.293700 0.283000
H53 H 0.223000 0.278300 0.186000
H54 H 0.285000 0.249800 0.536000
H55 H 0.089000 0.173500 0.346000
H56 H 0.222000 0.159500 0.268000
H57 H 0.279000 0.130600 0.614000
H58 H 0.417000 0.235900 0.444000
H59 H 0.417000 0.118300 0.538000
H60 H 0.086000 0.056700 0.395000
H61 H 0.267000 -0.084000 0.589000
H62 H 0.248000 0.043900 0.354000
H63 H 0.785000 1.250200 0.036000
H64 H 1.414000 0.556700 1.105000
H65 H 0.723000 1.221700 -0.314000
H66 H 0.598000 1.206300 -0.217000
H67 H 0.605000 1.115100 -0.087000
H68 H 0.740000 1.019300 0.017000
H69 H 0.996000 1.164700 -0.203000
H70 H 1.083000 0.618300 0.962000
H71 H 1.150000 1.072000 -0.109000
H72 H 1.150000 1.072000 0.891000
H73 H 1.083000 0.735900 1.056000
H74 H 0.996000 1.164700 0.797000
H75 H 0.740000 1.019300 1.017000
H76 H 1.252000 -0.456100 1.146000
H77 H 0.150000 0.072000 -0.109000
H78 H -0.004000 0.164700 -0.203000
H79 H -0.260000 0.019300 0.017000
H80 H -0.395000 0.115100 -0.087000
H81 H -0.402000 0.206300 -0.217000
H82 H -0.277000 0.221700 -0.314000
H83 H -0.215000 0.250200 0.036000
H84 H -0.411000 0.326500 -0.154000
H85 H -0.278000 0.340500 -0.232000
H86 H -0.221000 0.369400 0.114000
H87 H -0.083000 0.264100 -0.056000
H88 H -0.083000 0.381700 0.038000
H89 H -0.414000 0.443300 -0.105000
H90 H -0.233000 0.584000 0.089000
H91 H -0.252000 0.456100 -0.146000
H92 H 1.233000 -0.584000 0.911000
H93 H 1.221000 0.630600 0.886000
H94 H 1.414000 -0.443300 1.105000
H95 H 1.083000 -0.381700 0.962000
H96 H 1.083000 -0.264100 1.056000
H97 H 1.221000 -0.369400 0.886000
H98 H 1.278000 -0.340500 1.232000
H99 H 1.278000 0.659500 1.232000
H100 H 1.411000 -0.326500 1.154000
H101 H 1.215000 -0.250200 0.964000
H102 H 1.411000 0.673500 1.154000
H103 H 1.277000 -0.221700 1.314000
H104 H 1.402000 -0.206300 1.217000
H105 H 1.395000 -0.115100 1.087000
H106 H -0.150000 -0.072000 0.109000
H107 H 0.004000 -0.164700 0.203000
H108 H 0.260000 -0.019300 -0.017000
H109 H 0.395000 -0.115100 0.087000
H110 H 0.402000 -0.206300 0.217000
H111 H 0.277000 -0.221700 0.314000
H112 H 0.215000 -0.250200 -0.036000
H113 H 0.411000 -0.326500 0.154000
H114 H 0.278000 -0.340500 0.232000
H115 H 0.221000 -0.369400 -0.114000
H116 H 0.083000 -0.264100 0.056000
H117 H 0.083000 -0.381700 -0.038000
H118 H 0.414000 -0.443300 0.105000
H119 H 0.233000 -0.584000 -0.089000
H120 H 0.252000 -0.456100 0.146000
H121 H 1.260000 -0.019300 0.983000
H122 H 1.215000 0.749800 0.964000
H123 H 1.004000 -0.164700 1.203000
H124 H 0.850000 -0.072000 1.109000
H125 H 0.605000 1.115100 0.913000
H126 H 0.598000 1.206300 0.783000
H127 H 0.723000 1.221700 0.686000
H128 H 1.277000 0.778300 1.314000
H129 H 0.748000 0.456100 0.854000
H130 H 0.767000 0.584000 1.089000
H131 H 1.402000 0.793700 1.217000
H132 H 0.586000 0.443300 0.895000
H133 H 0.917000 0.381700 1.038000
H134 H 0.917000 0.264100 0.944000
H135 H 0.150000 0.072000 0.891000
H136 H -0.004000 0.164700 0.797000
H137 H -0.260000 0.019300 1.017000
H138 H -0.395000 0.115100 0.913000
H139 H -0.402000 0.206300 0.783000
H140 H -0.277000 0.221700 0.686000
H141 H -0.215000 0.250200 1.036000
H142 H -0.411000 0.326500 0.846000
H143 H -0.278000 0.340500 0.768000
H144 H -0.221000 0.369400 1.114000
H145 H -0.083000 0.264100 0.944000
H146 H -0.083000 0.381700 1.038000
H147 H -0.414000 0.443300 0.895000
H148 H -0.233000 0.584000 1.089000
H149 H -0.252000 0.456100 0.854000
H150 H 0.779000 0.369400 1.114000
H151 H 1.395000 0.884900 1.087000
H152 H 0.722000 0.340500 0.768000
H153 H 0.589000 0.326500 0.846000
H154 H 0.785000 0.250200 1.036000
H155 H 0.723000 0.221700 0.686000
H156 H 0.598000 0.206300 0.783000
H157 H 1.260000 0.980700 0.983000
H158 H 0.605000 0.115100 0.913000
H159 H 0.740000 0.019300 1.017000
H160 H 1.004000 0.835300 1.203000
H161 H 0.996000 0.164700 0.797000
H162 H 1.150000 0.072000 0.891000
H163 H 0.785000 1.250200 1.036000
H164 H -0.150000 -0.072000 1.109000
H165 H 0.004000 -0.164700 1.203000
H166 H 0.260000 -0.019300 0.983000
H167 H 0.395000 -0.115100 1.087000
H168 H 0.402000 -0.206300 1.217000
H169 H 0.277000 -0.221700 1.314000
H170 H 0.215000 -0.250200 0.964000
H171 H 0.411000 -0.326500 1.154000
H172 H 0.278000 -0.340500 1.232000
H173 H 0.221000 -0.369400 0.886000
H174 H 0.083000 -0.264100 1.056000
H175 H 0.083000 -0.381700 0.962000
H176 H 0.414000 -0.443300 1.105000
H177 H 0.233000 -0.584000 0.911000
H178 H 0.252000 -0.456100 1.146000
H179 H 0.589000 1.326500 0.846000
H180 H 0.850000 0.928000 1.109000
H181 H 0.722000 1.340500 0.768000
H182 H 1.252000 -0.456100 0.146000
H183 H 1.233000 -0.584000 -0.089000
H184 H 1.414000 -0.443300 0.105000
H185 H 1.083000 -0.381700 -0.038000
H186 H 1.083000 -0.264100 0.056000
H187 H 1.221000 -0.369400 -0.114000
H188 H 1.278000 -0.340500 0.232000
H189 H 1.411000 -0.326500 0.154000
H190 H 1.215000 -0.250200 -0.036000
H191 H 1.277000 -0.221700 0.314000
H192 H 1.402000 -0.206300 0.217000
H193 H 0.150000 1.072000 -0.109000
H194 H -0.004000 1.164700 -0.203000
H195 H -0.260000 1.019300 0.017000
H196 H -0.395000 1.115100 -0.087000
H197 H -0.402000 1.206300 -0.217000
H198 H -0.277000 1.221700 -0.314000
H199 H -0.215000 1.250200 0.036000
H200 H -0.411000 1.326500 -0.154000
H201 H -0.278000 1.340500 -0.232000
H202 H -0.221000 1.369400 0.114000
H203 H -0.083000 1.264100 -0.056000
H204 H -0.083000 1.381700 0.038000
H205 H -0.414000 1.443300 -0.105000
H206 H -0.233000 1.584000 0.089000
H207 H -0.252000 1.456100 -0.146000
H208 H 1.395000 -0.115100 0.087000
H209 H 1.260000 -0.019300 -0.017000
H210 H 1.004000 -0.164700 0.203000
H211 H 0.850000 -0.072000 0.109000
H212 H 0.779000 1.369400 1.114000
H213 H 0.917000 1.264100 0.944000
H214 H 0.917000 1.381700 1.038000
H215 H 0.748000 0.456100 -0.146000
H216 H 0.767000 0.584000 0.089000
H217 H 0.586000 0.443300 -0.105000
H218 H 0.917000 0.381700 0.038000
H219 H 0.917000 0.264100 -0.056000
H220 H 0.779000 0.369400 0.114000
H221 H 0.722000 0.340500 -0.232000
H222 H -0.150000 0.928000 0.109000
H223 H 0.004000 0.835300 0.203000
H224 H 0.260000 0.980700 -0.017000
H225 H 0.395000 0.884900 0.087000
H226 H 0.402000 0.793700 0.217000
H227 H 0.277000 0.778300 0.314000
H228 H 0.215000 0.749800 -0.036000
H229 H 0.411000 0.673500 0.154000
H230 H 0.278000 0.659500 0.232000
H231 H 0.221000 0.630600 -0.114000
H232 H 0.083000 0.735900 0.056000
H233 H 0.083000 0.618300 -0.038000
H234 H 0.414000 0.556700 0.105000
H235 H 0.233000 0.416000 -0.089000
H236 H 0.252000 0.543900 0.146000
H237 H 0.589000 0.326500 -0.154000
H238 H 0.785000 0.250200 0.036000
H239 H 0.723000 0.221700 -0.314000
H240 H 0.598000 0.206300 -0.217000
H241 H 0.605000 0.115100 -0.087000
H242 H 0.740000 0.019300 0.017000
H243 H 0.996000 0.164700 -0.203000
H244 H 1.150000 0.072000 -0.109000
H245 H 0.586000 1.443300 0.895000
H246 H 0.767000 1.584000 1.089000
H247 H 0.748000 1.456100 0.854000
H248 H 0.252000 0.543900 1.146000
H249 H 0.233000 0.416000 0.911000
H250 H 0.414000 0.556700 1.105000
H251 H 0.150000 1.072000 0.891000
H252 H -0.004000 1.164700 0.797000
H253 H -0.260000 1.019300 1.017000
H254 H -0.395000 1.115100 0.913000
H255 H -0.402000 1.206300 0.783000
H256 H -0.277000 1.221700 0.686000
H257 H -0.215000 1.250200 1.036000
H258 H -0.411000 1.326500 0.846000
H259 H -0.278000 1.340500 0.768000
H260 H -0.221000 1.369400 1.114000
H261 H -0.083000 1.264100 0.944000
H262 H -0.083000 1.381700 1.038000
H263 H -0.414000 1.443300 0.895000
H264 H -0.233000 1.584000 1.089000
H265 H -0.252000 1.456100 0.854000
H266 H 0.083000 0.618300 0.962000
H267 H 0.083000 0.735900 1.056000
H268 H 0.221000 0.630600 0.886000
H269 H 0.278000 0.659500 1.232000
H270 H 0.411000 0.673500 1.154000
H271 H 0.215000 0.749800 0.964000
H272 H 0.277000 0.778300 1.314000
H273 H 0.402000 0.793700 1.217000
H274 H 0.395000 0.884900 1.087000
H275 H 0.260000 0.980700 0.983000
H276 H 0.004000 0.835300 1.203000
H277 H -0.150000 0.928000 1.109000
H278 H 1.252000 0.543900 0.146000
C279 C 0.213300 0.502490 0.922700
C280 C 0.206400 0.620660 0.994800
C281 C 1.043800 0.968730 1.032200
C282 C 0.284900 0.896650 1.085400
C283 C 0.049700 0.865740 1.160600
C284 C 1.206700 0.954330 1.026400
C285 C -0.033600 0.923000 1.101900
C286 C 0.285800 0.672380 1.126100
C287 C 0.204100 0.737780 1.072700
C288 C 0.286700 0.788540 1.204800
C289 C 0.206700 0.954330 1.026400
C290 C 1.286700 0.788540 1.204800
C291 C 0.043800 0.968730 1.032200
C292 C -0.213300 1.497510 1.077300
C293 C -0.276900 1.445210 0.948200
C294 C -0.206400 1.379340 1.005200
C295 C 0.956200 0.031270 -0.032200
C296 C 1.204100 0.737780 1.072700
C297 C 0.793300 0.045670 -0.026400
C298 C 0.713300 0.211460 -0.204800
C299 C 0.795900 0.262220 -0.072700
C300 C 0.714200 0.327620 -0.126100
C301 C 1.033600 0.077000 -0.101900
C302 C -0.284900 1.103350 0.914600
C303 C 0.950300 0.134260 -0.160600
C304 C 0.715100 0.103350 -0.085400
C305 C -0.049700 1.134260 0.839400
C306 C 0.793600 0.379340 0.005200
C307 C 0.723100 0.445210 -0.051800
C308 C 0.786700 0.497510 0.077300
C309 C 1.285800 0.672380 1.126100
C310 C 0.033600 1.077000 0.898100
C311 C -0.285800 1.327620 0.873900
C312 C -0.204100 1.262220 0.927300
C313 C -0.286700 1.211460 0.795200
C314 C -0.206700 1.045670 0.973600
C315 C 0.966400 0.923000 1.101900
C316 C -0.043800 1.031270 0.967800
C317 C 0.213300 0.502490 -0.077300
C318 C 0.276900 0.554790 0.051800
C319 C 0.206400 0.620660 -0.005200
C320 C 1.049700 0.865740 1.160600
C321 C 0.284900 0.896650 0.085400
C322 C 0.049700 0.865740 0.160600
C323 C 1.284900 0.896650 1.085400
C324 C 1.043800 -0.031270 0.032200
C325 C -0.033600 0.923000 0.101900
C326 C 1.206700 -0.045670 0.026400
C327 C 1.286700 -0.211460 0.204800
C328 C 1.204100 -0.262220 0.072700
C329 C 1.285800 -0.327620 0.126100
C330 C 0.966400 -0.077000 0.101900
C331 C 0.285800 0.672380 0.126100
C332 C 1.049700 -0.134260 0.160600
C333 C 1.284900 -0.103350 0.085400
C334 C 0.204100 0.737780 0.072700
C335 C 1.206400 -0.379340 -0.005200
C336 C 1.276900 -0.445210 0.051800
C337 C 1.213300 -0.497510 -0.077300
C338 C 0.286700 0.788540 0.204800
C339 C 0.206700 0.954330 0.026400
C340 C 1.206400 0.620660 0.994800
C341 C 0.043800 0.968730 0.032200
C342 C -0.213300 1.497510 0.077300
C343 C -0.276900 1.445210 -0.051800
C344 C -0.206400 1.379340 0.005200
C345 C 1.276900 0.554790 1.051800
C346 C -0.284900 1.103350 -0.085400
C347 C -0.049700 1.134260 -0.160600
C348 C 1.213300 0.502490 0.922700
C349 C 0.033600 1.077000 -0.101900
C350 C -0.285800 1.327620 -0.126100
C351 C -0.204100 1.262220 -0.072700
C352 C -0.286700 1.211460 -0.204800
C353 C 0.956200 0.031270 0.967800
C354 C -0.206700 1.045670 -0.026400
C355 C 0.793300 0.045670 0.973600
C356 C 0.713300 0.211460 0.795200
C357 C 0.795900 0.262220 0.927300
C358 C 0.714200 0.327620 0.873900
C359 C 1.033600 0.077000 0.898100
C360 C -0.043800 1.031270 -0.032200
C361 C 0.950300 0.134260 0.839400
C362 C 0.715100 0.103350 0.914600
C363 C 0.213300 -0.497510 0.922700
C364 C 0.793600 0.379340 1.005200
C365 C 0.723100 0.445210 0.948200
C366 C 0.786700 0.497510 1.077300
C367 C 0.276900 -0.445210 1.051800
C368 C 0.206400 -0.379340 0.994800
C369 C 0.284900 -0.103350 1.085400
C370 C 0.049700 -0.134260 1.160600
C371 C -0.033600 -0.077000 1.101900
C372 C 0.285800 -0.327620 1.126100
C373 C 0.204100 -0.262220 1.072700
C374 C 0.286700 -0.211460 1.204800
C375 C 0.206700 -0.045670 1.026400
C376 C 0.043800 -0.031270 1.032200
C377 C -0.213300 0.497510 1.077300
C378 C -0.276900 0.445210 0.948200
C379 C -0.206400 0.379340 1.005200
C380 C -0.284900 0.103350 0.914600
C381 C -0.049700 0.134260 0.839400
C382 C 1.043800 -0.031270 1.032200
C383 C 0.033600 0.077000 0.898100
C384 C 1.206700 -0.045670 1.026400
C385 C 1.286700 -0.211460 1.204800
C386 C 1.204100 -0.262220 1.072700
C387 C 1.285800 -0.327620 1.126100
C388 C 0.966400 -0.077000 1.101900
C389 C -0.285800 0.327620 0.873900
C390 C 1.049700 -0.134260 1.160600
C391 C 1.284900 -0.103350 1.085400
C392 C -0.204100 0.262220 0.927300
C393 C 1.206400 -0.379340 0.994800
C394 C 1.276900 -0.445210 1.051800
C395 C 1.213300 -0.497510 0.922700
C396 C -0.286700 0.211460 0.795200
C397 C -0.206700 0.045670 0.973600
C398 C -0.043800 0.031270 0.967800
C399 C 0.213300 -0.497510 -0.077300
C400 C 0.276900 -0.445210 0.051800
C401 C 0.206400 -0.379340 -0.005200
C402 C 0.284900 -0.103350 0.085400
C403 C 0.049700 -0.134260 0.160600
C404 C -0.033600 -0.077000 0.101900
C405 C 0.285800 -0.327620 0.126100
C406 C 0.204100 -0.262220 0.072700
C407 C 0.286700 -0.211460 0.204800
C408 C 0.206700 -0.045670 0.026400
C409 C 0.043800 -0.031270 0.032200
C410 C -0.213300 0.497510 0.077300
C411 C 0.956200 1.031270 -0.032200
C412 C -0.276900 0.445210 -0.051800
C413 C 0.793300 1.045670 -0.026400
C414 C 0.713300 1.211460 -0.204800
C415 C 0.795900 1.262220 -0.072700
C416 C 0.714200 1.327620 -0.126100
C417 C 1.033600 1.077000 -0.101900
C418 C -0.206400 0.379340 0.005200
C419 C 0.950300 1.134260 -0.160600
C420 C 0.715100 1.103350 -0.085400
C421 C -0.284900 0.103350 -0.085400
C422 C 0.793600 1.379340 0.005200
C423 C 0.723100 1.445210 -0.051800
C424 C 0.786700 1.497510 0.077300
C425 C -0.049700 0.134260 -0.160600
C426 C 0.033600 0.077000 -0.101900
C427 C -0.285800 0.327620 -0.126100
C428 C -0.204100 0.262220 -0.072700
C429 C -0.286700 0.211460 -0.204800
C430 C -0.206700 0.045670 -0.026400
C431 C -0.043800 0.031270 -0.032200
C432 C 0.286700 0.002490 0.577300
C433 C 0.223100 0.054790 0.448200
C434 C 0.293600 0.120660 0.505200
C435 C 0.215100 0.396650 0.414600
C436 C 0.450300 0.365740 0.339400
C437 C 0.533600 0.423000 0.398100
C438 C 0.214200 0.172380 0.373900
C439 C 0.295900 0.237780 0.427300
C440 C 1.043800 0.968730 0.032200
C441 C 0.786700 1.497510 1.077300
C442 C 1.206700 0.954330 0.026400
C443 C 1.286700 0.788540 0.204800
C444 C 1.204100 0.737780 0.072700
C445 C 1.285800 0.672380 0.126100
C446 C 0.966400 0.923000 0.101900
C447 C 0.723100 1.445210 0.948200
C448 C 1.049700 0.865740 0.160600
C449 C 1.284900 0.896650 0.085400
C450 C 0.793600 1.379340 1.005200
C451 C 1.206400 0.620660 -0.005200
C452 C 1.276900 0.554790 0.051800
C453 C 1.213300 0.502490 -0.077300
C454 C 0.213300 0.288540 0.295200
C455 C 0.293300 0.454330 0.473600
C456 C 0.456200 0.468730 0.467800
C457 C 0.713300 0.997510 0.422700
C458 C 0.776900 0.945210 0.551800
C459 C 0.706400 0.879340 0.494800
C460 C 0.784900 0.603350 0.585400
C461 C 0.549700 0.634260 0.660600
C462 C 0.466400 0.577000 0.601900
C463 C 0.785800 0.827620 0.626100
C464 C 0.704100 0.762220 0.572700
C465 C 0.786700 0.711460 0.704800
C466 C 0.706700 0.545670 0.526400
C467 C 0.543800 0.531270 0.532200
C468 C 0.276900 0.554790 1.051800
C469 C 0.956200 1.031270 0.967800
C470 C 0.715100 1.103350 0.914600
C471 C 0.793300 1.045670 0.973600
C472 C 0.713300 1.211460 0.795200
C473 C 0.795900 1.262220 0.927300
C474 C 0.714200 1.327620 0.873900
C475 C 1.033600 1.077000 0.898100
C476 C 0.950300 1.134260 0.839400
N477 N 0.705700 0.647040 0.650000
N478 N 0.794300 1.147040 0.850000
N479 N -0.205700 0.147040 -0.150000
N480 N 0.205700 -0.147040 0.150000
N481 N -0.205700 0.147040 0.850000
N482 N 1.205700 0.852960 0.150000
N483 N 0.205700 -0.147040 1.150000
N484 N -0.205700 1.147040 -0.150000
N485 N 0.794300 1.147040 -0.150000
N486 N 0.205700 0.852960 0.150000
N487 N -0.205700 1.147040 0.850000
N488 N 1.205700 -0.147040 1.150000
N489 N 0.294300 0.352960 0.350000
N490 N 0.205700 0.852960 1.150000
N491 N 0.794300 0.147040 0.850000
N492 N 1.205700 0.852960 1.150000
N493 N 0.794300 0.147040 -0.150000
N494 N 1.205700 -0.147040 0.150000
O495 O 0.751100 0.555190 0.009500
O496 O 0.859300 0.489390 0.226100
O497 O 1.140700 -0.489390 -0.226100
O498 O 0.248900 0.444810 0.990500
O499 O 1.248900 -0.555190 -0.009500
O500 O 0.140700 0.510610 0.773900
O501 O 0.859300 0.489390 1.226100
O502 O -0.248900 1.555190 1.009500
O503 O 0.751100 0.555190 1.009500
O504 O 1.140700 -0.489390 0.773900
O505 O 1.140700 0.510610 0.773900
O506 O 0.248900 0.444810 -0.009500
O507 O 0.140700 0.510610 -0.226100
O508 O 1.248900 0.444810 0.990500
O509 O 1.248900 -0.555190 0.990500
O510 O -0.248900 1.555190 0.009500
O511 O -0.140700 1.489390 0.226100
O512 O 0.859300 1.489390 0.226100
O513 O 0.248900 -0.555190 0.990500
O514 O 0.140700 -0.489390 0.773900
O515 O 0.751100 1.555190 0.009500
O516 O -0.248900 0.555190 1.009500
O517 O -0.140700 0.489390 1.226100
O518 O 1.140700 0.510610 -0.226100
O519 O 0.248900 -0.555190 -0.009500
O520 O 0.140700 -0.489390 -0.226100
O521 O 1.248900 0.444810 -0.009500
O522 O -0.248900 0.555190 0.009500
O523 O -0.140700 0.489390 0.226100
O524 O 0.751100 1.555190 1.009500
O525 O 0.251100 -0.055190 0.509500
O526 O 0.359300 0.010610 0.726100
O527 O 0.684200 0.155850 0.297000
O528 O -0.140700 1.489390 1.226100
O529 O 0.748900 1.055190 0.490500
O530 O 0.815800 0.655850 0.203000
O531 O 0.640700 0.989390 0.273900
O532 O 0.859300 1.489390 1.226100
O533 O 0.315800 0.844150 0.703000
O534 O 0.184200 0.344150 0.797000
Br535 Br 0.859500 0.292151 0.470020
Br536 Br 0.140500 0.707849 0.529980
Br537 Br 0.359500 0.207849 0.970020
Br538 Br 0.640500 0.792151 0.029980

#END
