./LAFHAD_from_POSCAR.cif_generated_by_CrystalShift
_symmetry_cell_setting triclinic
_symmetry_space_group_name_H-M 'P 1'
loop_
_symmetry_equiv_pos_site_id
_symmetry_equiv_pos_as_xyz
1 x,y,z
_cell_length_a 18.000500
_cell_length_b 5.999900
_cell_length_c 7.548000
_cell_angle_alpha 90.000000
_cell_angle_beta 93.505000
_cell_angle_gamma 90.000000
_cell_volume 813.668212
loop_
_atom_site_label
_atom_site_type_symbol
_atom_site_fract_x
_atom_site_fract_y
_atom_site_fract_z
H1 H 1.046900 0.709000 0.272000
H2 H 1.473200 0.431000 0.292000
H3 H 1.324900 0.850000 0.486000
H4 H 1.446500 0.756000 0.433000
H5 H 1.376900 0.179000 0.211000
H6 H 1.255600 0.269000 0.270000
H7 H 0.953100 0.291000 0.728000
H8 H 0.921100 0.728000 0.333000
H9 H 0.526800 0.569000 0.708000
H10 H 0.675100 0.150000 0.514000
H11 H 0.553500 0.244000 0.567000
H12 H 0.623100 0.821000 0.789000
H13 H 0.255600 0.231000 -0.230000
H14 H 0.376900 0.321000 -0.289000
H15 H 0.446500 -0.256000 -0.067000
H16 H 0.324900 -0.350000 -0.014000
H17 H 0.473200 0.069000 -0.208000
H18 H 0.078900 0.228000 0.167000
H19 H 0.046900 -0.209000 -0.228000
H20 H 0.744400 0.731000 0.730000
H21 H 0.046900 0.709000 0.272000
H22 H 0.078900 0.272000 0.667000
H23 H 0.473200 0.431000 0.292000
H24 H 0.324900 0.850000 0.486000
H25 H 0.446500 0.756000 0.433000
H26 H 0.376900 0.179000 0.211000
H27 H 0.255600 0.269000 0.270000
H28 H -0.046900 0.291000 0.728000
H29 H -0.078900 0.728000 0.333000
H30 H -0.473200 0.569000 0.708000
H31 H -0.324900 0.150000 0.514000
H32 H -0.255600 -0.231000 0.230000
H33 H -0.376900 -0.321000 0.289000
H34 H -0.446500 0.256000 0.067000
H35 H -0.324900 0.350000 0.014000
H36 H -0.473200 -0.069000 0.208000
H37 H -0.078900 -0.228000 -0.167000
H38 H -0.046900 0.209000 0.228000
H39 H -0.446500 0.244000 0.567000
H40 H -0.376900 0.821000 0.789000
H41 H -0.255600 0.731000 0.730000
H42 H 0.953100 1.209000 1.228000
H43 H 0.921100 0.772000 0.833000
H44 H 0.526800 0.931000 1.208000
H45 H 0.675100 1.350000 1.014000
H46 H 0.553500 1.256000 1.067000
H47 H 0.623100 0.679000 1.289000
H48 H 0.744400 0.769000 1.230000
H49 H 1.046900 0.791000 0.772000
H50 H 1.078900 1.228000 1.167000
H51 H 0.255600 0.231000 0.770000
H52 H 0.376900 0.321000 0.711000
H53 H 0.446500 -0.256000 0.933000
H54 H 0.324900 -0.350000 0.986000
H55 H 0.473200 0.069000 0.792000
H56 H 0.078900 0.228000 1.167000
H57 H 0.046900 -0.209000 0.772000
H58 H 1.473200 1.069000 0.792000
H59 H 1.324900 0.650000 0.986000
H60 H 1.446500 0.744000 0.933000
H61 H 1.376900 1.321000 0.711000
H62 H 1.255600 1.231000 0.770000
H63 H 0.953100 1.209000 0.228000
H64 H 0.921100 0.772000 -0.167000
H65 H 0.526800 0.931000 0.208000
H66 H 0.675100 1.350000 0.014000
H67 H 0.553500 1.256000 0.067000
H68 H 0.623100 0.679000 0.289000
H69 H 0.744400 0.769000 0.230000
H70 H -0.255600 -0.231000 1.230000
H71 H -0.376900 -0.321000 1.289000
H72 H -0.446500 0.256000 1.067000
H73 H -0.324900 0.350000 1.014000
H74 H -0.473200 -0.069000 1.208000
H75 H -0.078900 -0.228000 0.833000
H76 H -0.046900 0.209000 1.228000
H77 H 1.046900 0.791000 -0.228000
H78 H 1.078900 1.228000 0.167000
H79 H 1.473200 1.069000 -0.208000
H80 H 1.324900 0.650000 -0.014000
H81 H 1.446500 0.744000 -0.067000
H82 H 1.376900 1.321000 -0.289000
H83 H 1.255600 1.231000 -0.230000
H84 H 0.953100 0.209000 1.228000
H85 H 0.921100 -0.228000 0.833000
H86 H 0.526800 -0.069000 1.208000
H87 H 0.675100 0.350000 1.014000
H88 H 0.553500 0.256000 1.067000
H89 H 0.255600 1.231000 -0.230000
H90 H 0.376900 1.321000 -0.289000
H91 H 0.446500 0.744000 -0.067000
H92 H 0.324900 0.650000 -0.014000
H93 H 0.473200 1.069000 -0.208000
H94 H 0.078900 1.228000 0.167000
H95 H 0.046900 0.791000 -0.228000
H96 H 0.623100 -0.321000 1.289000
H97 H 0.744400 -0.231000 1.230000
H98 H 1.046900 -0.209000 0.772000
H99 H 1.078900 0.228000 1.167000
H100 H 1.473200 0.069000 0.792000
H101 H 1.324900 -0.350000 0.986000
H102 H 1.446500 -0.256000 0.933000
H103 H 1.376900 0.321000 0.711000
H104 H 1.255600 0.231000 0.770000
H105 H 0.953100 0.209000 0.228000
H106 H 0.921100 -0.228000 -0.167000
H107 H 0.526800 -0.069000 0.208000
H108 H -0.255600 0.769000 0.230000
H109 H -0.376900 0.679000 0.289000
H110 H -0.446500 1.256000 0.067000
H111 H -0.324900 1.350000 0.014000
H112 H -0.473200 0.931000 0.208000
H113 H -0.078900 0.772000 -0.167000
H114 H -0.046900 1.209000 0.228000
H115 H 0.675100 0.350000 0.014000
H116 H 0.553500 0.256000 0.067000
H117 H 0.623100 -0.321000 0.289000
H118 H 0.744400 -0.231000 0.230000
H119 H 1.046900 -0.209000 -0.228000
H120 H 1.078900 0.228000 0.167000
H121 H 1.473200 0.069000 -0.208000
H122 H 1.324900 -0.350000 -0.014000
H123 H 1.446500 -0.256000 -0.067000
H124 H 1.376900 0.321000 -0.289000
H125 H 1.255600 0.231000 -0.230000
H126 H -0.046900 1.209000 1.228000
H127 H 0.255600 1.231000 0.770000
H128 H 0.376900 1.321000 0.711000
H129 H 0.446500 0.744000 0.933000
H130 H 0.324900 0.650000 0.986000
H131 H 0.473200 1.069000 0.792000
H132 H 0.078900 1.228000 1.167000
H133 H 0.046900 0.791000 0.772000
H134 H -0.078900 0.772000 0.833000
H135 H -0.473200 0.931000 1.208000
H136 H -0.324900 1.350000 1.014000
H137 H -0.446500 1.256000 1.067000
H138 H -0.376900 0.679000 1.289000
H139 H -0.255600 0.769000 1.230000
H140 H 1.078900 0.272000 0.667000
C141 C -0.293490 0.863700 1.197600
C142 C -0.366240 0.814100 1.233000
C143 C -0.423170 0.961700 1.182200
C144 C -0.407030 1.158800 1.098700
C145 C -0.334020 1.212400 1.065200
C146 C -0.198170 1.109200 1.076400
C147 C -0.027820 1.126800 1.136300
C148 C -0.046910 0.859600 0.899300
C149 C -0.075060 0.987700 1.033300
C150 C 0.075060 0.012300 -0.033300
C151 C 0.046910 0.140400 0.100700
C152 C 0.334020 0.787600 0.934800
C153 C 0.027820 -0.126800 -0.136300
C154 C 0.198170 -0.109200 -0.076400
C155 C 1.075060 0.012300 -0.033300
C156 C 1.046910 0.140400 0.100700
C157 C 1.027820 -0.126800 -0.136300
C158 C 1.198170 -0.109200 -0.076400
C159 C 1.276660 -0.064200 -0.113600
C160 C 1.293490 0.136300 -0.197600
C161 C 1.366240 0.185900 -0.233000
C162 C 1.423170 0.038300 -0.182200
C163 C 1.407030 -0.158800 -0.098700
C164 C 1.334020 -0.212400 -0.065200
C165 C 0.407030 0.841200 0.901300
C166 C 0.423170 1.038300 0.817800
C167 C 0.366240 1.185900 0.767000
C168 C 0.293490 1.136300 0.802400
C169 C 0.276660 0.935800 0.886400
C170 C 0.198170 0.890800 0.923600
C171 C 0.027820 0.873200 0.863700
C172 C 1.334020 0.712400 0.434800
C173 C 1.407030 0.658800 0.401300
C174 C 0.924940 -0.012300 0.033300
C175 C 0.953090 -0.140400 -0.100700
C176 C 0.972180 0.126800 0.136300
C177 C 0.801830 0.109200 0.076400
C178 C 0.723340 0.064200 0.113600
C179 C 0.706510 -0.136300 0.197600
C180 C 0.633760 -0.185900 0.233000
C181 C 0.576830 -0.038300 0.182200
C182 C 0.592970 0.158800 0.098700
C183 C 0.665980 0.212400 0.065200
C184 C 0.046910 1.140400 1.100700
C185 C 0.075060 1.012300 0.966700
C186 C 1.423170 0.461700 0.317800
C187 C 1.366240 0.314100 0.267000
C188 C -0.334020 1.212400 0.065200
C189 C -0.407030 1.158800 0.098700
C190 C -0.423170 0.961700 0.182200
C191 C 1.293490 0.363700 0.302400
C192 C 1.276660 0.564200 0.386400
C193 C 1.075060 0.012300 0.966700
C194 C 1.046910 0.140400 1.100700
C195 C 1.027820 -0.126800 0.863700
C196 C 1.198170 -0.109200 0.923600
C197 C 1.276660 -0.064200 0.886400
C198 C 1.293490 0.136300 0.802400
C199 C 1.366240 0.185900 0.767000
C200 C 1.423170 0.038300 0.817800
C201 C 1.407030 -0.158800 0.901300
C202 C 1.334020 -0.212400 0.934800
C203 C -0.366240 0.814100 0.233000
C204 C -0.293490 0.863700 0.197600
C205 C -0.276660 1.064200 0.113600
C206 C -0.198170 1.109200 0.076400
C207 C -0.027820 1.126800 0.136300
C208 C -0.046910 0.859600 -0.100700
C209 C -0.075060 0.987700 0.033300
C210 C 1.198170 0.609200 0.423600
C211 C 1.027820 0.626800 0.363700
C212 C 0.924940 -0.012300 1.033300
C213 C 0.953090 -0.140400 0.899300
C214 C 0.972180 0.126800 1.136300
C215 C 0.801830 0.109200 1.076400
C216 C 0.723340 0.064200 1.113600
C217 C 0.706510 -0.136300 1.197600
C218 C 0.633760 -0.185900 1.233000
C219 C 0.576830 -0.038300 1.182200
C220 C 0.592970 0.158800 1.098700
C221 C 0.665980 0.212400 1.065200
C222 C 1.046910 0.359600 0.600700
C223 C 1.075060 0.487700 0.466700
C224 C 0.334020 0.787600 -0.065200
C225 C 0.407030 0.841200 -0.098700
C226 C 0.423170 1.038300 -0.182200
C227 C 0.366240 1.185900 -0.233000
C228 C 0.293490 1.136300 -0.197600
C229 C 0.276660 -0.064200 -0.113600
C230 C 0.293490 0.136300 -0.197600
C231 C 1.075060 1.012300 -0.033300
C232 C 1.046910 1.140400 0.100700
C233 C 1.027820 0.873200 -0.136300
C234 C 1.198170 0.890800 -0.076400
C235 C 1.276660 0.935800 -0.113600
C236 C 1.293490 1.136300 -0.197600
C237 C 1.366240 1.185900 -0.233000
C238 C 1.423170 1.038300 -0.182200
C239 C 1.407030 0.841200 -0.098700
C240 C 1.334020 0.787600 -0.065200
C241 C 0.276660 0.935800 -0.113600
C242 C 0.198170 0.890800 -0.076400
C243 C 0.027820 0.873200 -0.136300
C244 C 0.046910 1.140400 0.100700
C245 C 0.075060 1.012300 -0.033300
C246 C 0.366240 0.185900 -0.233000
C247 C 0.423170 0.038300 -0.182200
C248 C 0.407030 -0.158800 -0.098700
C249 C 0.334020 -0.212400 -0.065200
C250 C 0.924940 0.987700 0.033300
C251 C 0.953090 0.859600 -0.100700
C252 C 0.972180 1.126800 0.136300
C253 C 0.801830 1.109200 0.076400
C254 C 0.723340 1.064200 0.113600
C255 C 0.706510 0.863700 0.197600
C256 C 0.633760 0.814100 0.233000
C257 C 0.576830 0.961700 0.182200
C258 C 0.592970 1.158800 0.098700
C259 C 0.665980 1.212400 0.065200
C260 C -0.334020 0.212400 1.065200
C261 C -0.407030 0.158800 1.098700
C262 C -0.423170 -0.038300 1.182200
C263 C -0.366240 -0.185900 1.233000
C264 C -0.293490 -0.136300 1.197600
C265 C -0.276660 0.064200 1.113600
C266 C -0.198170 0.109200 1.076400
C267 C 0.665980 0.287600 0.565200
C268 C 0.592970 0.341200 0.598700
C269 C 1.075060 1.012300 0.966700
C270 C 1.046910 1.140400 1.100700
C271 C 1.027820 0.873200 0.863700
C272 C 1.198170 0.890800 0.923600
C273 C 1.276660 0.935800 0.886400
C274 C 1.293490 1.136300 0.802400
C275 C 1.366240 1.185900 0.767000
C276 C 1.423170 1.038300 0.817800
C277 C 1.407030 0.841200 0.901300
C278 C 1.334020 0.787600 0.934800
C279 C -0.027820 0.126800 1.136300
C280 C -0.046910 -0.140400 0.899300
C281 C -0.075060 -0.012300 1.033300
C282 C 0.576830 0.538300 0.682200
C283 C 0.633760 0.685900 0.733000
C284 C 0.334020 -0.212400 0.934800
C285 C 0.407030 -0.158800 0.901300
C286 C 0.706510 0.636300 0.697600
C287 C 0.723340 0.435800 0.613600
C288 C 0.924940 0.987700 1.033300
C289 C 0.953090 0.859600 0.899300
C290 C 0.972180 1.126800 1.136300
C291 C 0.801830 1.109200 1.076400
C292 C 0.723340 1.064200 1.113600
C293 C 0.706510 0.863700 1.197600
C294 C 0.633760 0.814100 1.233000
C295 C 0.576830 0.961700 1.182200
C296 C 0.592970 1.158800 1.098700
C297 C 0.665980 1.212400 1.065200
C298 C 0.423170 0.038300 0.817800
C299 C 0.366240 0.185900 0.767000
C300 C 0.293490 0.136300 0.802400
C301 C 0.276660 -0.064200 0.886400
C302 C 0.198170 -0.109200 0.923600
C303 C 0.027820 -0.126800 0.863700
C304 C 0.046910 0.140400 1.100700
C305 C 0.801830 0.390800 0.576400
C306 C 0.972180 0.373200 0.636300
C307 C -0.075060 0.512300 0.533300
C308 C -0.046910 0.640400 0.399300
C309 C -0.027820 0.373200 0.636300
C310 C -0.198170 0.390800 0.576400
C311 C -0.276660 0.435800 0.613600
C312 C -0.293490 0.636300 0.697600
C313 C -0.366240 0.685900 0.733000
C314 C -0.423170 0.538300 0.682200
C315 C -0.407030 0.341200 0.598700
C316 C -0.334020 0.287600 0.565200
C317 C 0.075060 0.012300 0.966700
C318 C 0.953090 0.640400 0.399300
C319 C 0.924940 0.512300 0.533300
C320 C -0.334020 0.212400 0.065200
C321 C -0.407030 0.158800 0.098700
C322 C -0.423170 -0.038300 0.182200
C323 C -0.366240 -0.185900 0.233000
C324 C -0.075060 -0.012300 0.033300
C325 C -0.046910 -0.140400 -0.100700
C326 C 0.075060 0.487700 0.466700
C327 C 0.046910 0.359600 0.600700
C328 C 0.027820 0.626800 0.363700
C329 C 0.198170 0.609200 0.423600
C330 C 0.276660 0.564200 0.386400
C331 C 0.293490 0.363700 0.302400
C332 C 0.366240 0.314100 0.267000
C333 C 0.423170 0.461700 0.317800
C334 C 0.407030 0.658800 0.401300
C335 C 0.334020 0.712400 0.434800
C336 C -0.293490 -0.136300 0.197600
C337 C -0.276660 0.064200 0.113600
C338 C -0.198170 0.109200 0.076400
C339 C -0.027820 0.126800 0.136300
C340 C -0.276660 1.064200 1.113600
N341 N 0.151090 0.044100 -0.065100
N342 N -0.151090 -0.044100 0.065100
N343 N -0.151090 0.955900 1.065100
N344 N 0.848910 0.544100 0.565100
N345 N 1.151090 0.044100 -0.065100
N346 N 0.151090 0.044100 0.934900
N347 N -0.151090 0.544100 0.565100
N348 N 0.848910 -0.044100 0.065100
N349 N 0.848910 0.955900 1.065100
N350 N 0.151090 1.044100 0.934900
N351 N 1.151090 0.044100 0.934900
N352 N -0.151090 -0.044100 1.065100
N353 N 1.151090 1.044100 0.934900
N354 N 0.848910 -0.044100 1.065100
N355 N -0.151090 0.955900 0.065100
N356 N 0.848910 0.955900 0.065100
N357 N 1.151090 0.455900 0.434900
N358 N 1.151090 1.044100 -0.065100
N359 N 0.151090 1.044100 -0.065100
N360 N 0.151090 0.455900 0.434900
Cl361 Cl 1.176850 0.604550 -0.046930
Cl362 Cl 1.176850 0.895450 0.453070
Cl363 Cl 0.823150 1.395450 0.046930
Cl364 Cl -0.176850 1.395450 0.046930
Cl365 Cl -0.176850 0.395450 0.046930
Cl366 Cl 1.176850 0.604550 0.953070
Cl367 Cl 0.823150 0.395450 1.046930
Cl368 Cl -0.176850 0.395450 1.046930
Cl369 Cl 1.176850 -0.395450 0.953070
Cl370 Cl 0.176850 0.604550 0.953070
Cl371 Cl 0.823150 1.395450 1.046930
Cl372 Cl -0.176850 0.104550 0.546930
Cl373 Cl 0.823150 0.395450 0.046930
Cl374 Cl 0.176850 -0.395450 0.953070
Cl375 Cl 1.176850 -0.395450 -0.046930
Cl376 Cl -0.176850 1.395450 1.046930
Cl377 Cl 0.823150 0.104550 0.546930
Cl378 Cl 0.176850 0.895450 0.453070
Cl379 Cl 0.176850 0.604550 -0.046930
Cl380 Cl 0.176850 -0.395450 -0.046930

#END
