
#######################################################################
#
#                 Cambridge Crystallographic Data Centre
#                                CCDC 
#
#######################################################################
#
# If this CIF has been generated from an entry in the Cambridge 
# Structural Database, then it will include bibliographic, chemical, 
# crystal, experimental, refinement or atomic coordinate data resulting 
# from the CCDC's data processing and validation procedures.
#
#######################################################################

data_LABBAS
_symmetry_cell_setting           monoclinic
_symmetry_space_group_name_H-M   'P 21/a'
_symmetry_Int_Tables_number      14
_space_group_name_Hall           '-P 2yab'
loop_
_symmetry_equiv_pos_site_id
_symmetry_equiv_pos_as_xyz
1 x,y,z
2 1/2+x,1/2-y,z
3 -x,-y,-z
4 1/2-x,1/2+y,-z
_cell_length_a                   9.074(1)
_cell_length_b                   20.222(2)
_cell_length_c                   16.503(2)
_cell_angle_alpha                90
_cell_angle_beta                 104.87(2)
_cell_angle_gamma                90
_cell_volume                     2926.8
loop_
_atom_site_label
_atom_site_type_symbol
_atom_site_fract_x
_atom_site_fract_y
_atom_site_fract_z
S1 S 0.23537(5) 0.38899(2) 0.19033(3)
S2 S -0.06191(5) 0.31885(2) 0.08336(3)
S3 S -0.28010(5) 0.33821(2) -0.08989(3)
C1 C 0.36592(19) 0.34474(8) 0.33828(11)
C2 C -0.13693(19) 0.24914(8) 0.02625(11)
C3 C -0.44705(19) 0.24620(8) -0.17491(12)
C4 C 0.26758(18) 0.29330(8) 0.29616(11)
C5 C 0.18932(19) 0.31016(8) 0.21612(11)
C6 C -0.41968(19) 0.31311(8) -0.17630(12)
C7 C -0.4672(2) 0.48108(8) -0.29335(12)
C8 C -0.4735(2) 0.36431(8) -0.23510(12)
C9 C -0.25496(19) 0.25854(8) -0.05066(11)
C10 C -0.2530(2) 0.09793(9) -0.11593(15)
C11 C 0.4573(2) 0.34131(10) 0.42744(12)
C12 C -0.35349(19) 0.21481(8) -0.10252(12)
C13 C 0.35916(19) 0.39984(8) 0.28782(11)
C14 C -0.3604(2) 0.14240(8) -0.08244(14)
C15 C 0.3618(3) 0.35615(11) 0.49016(15)
C16 C 0.07643(19) 0.27380(8) 0.15348(11)
C17 C -0.4833(2) 0.41740(9) -0.26894(12)
C18 C 0.43057(19) 0.46254(8) 0.30163(11)
C19 C 0.2537(2) 0.22652(8) 0.33397(13)
C20 C 0.3362(3) 0.10605(9) 0.33819(16)
C21 C -0.0597(2) 0.19420(9) 0.06322(12)
C22 C 0.3688(2) 0.17658(8) 0.31673(14)
C23 C -0.2521(3) 0.02755(10) -0.08398(18)
C24 C -0.5069(3) 0.20556(11) -0.32478(14)
C25 C 0.0587(2) 0.20796(9) 0.13444(13)
C26 C 0.2008(3) 0.43944(16) 0.54229(19)
C27 C -0.6776(3) 0.10953(12) -0.3883(2)
C28 C -0.5611(2) 0.21263(10) -0.24511(13)
C29 C -0.6287(3) 0.17894(11) -0.39940(16)
C30 C 0.3222(3) 0.42800(11) 0.49364(16)
C31 C 0.4408(3) 0.05666(11) 0.31181(19)
C32 C -0.1373(4) -0.01685(13) -0.1099(2)
H1 H 0.147(2) 0.2097(8) 0.3084(12)
H2 H 0.2673(19) 0.2302(8) 0.3926(13)
H3 H -0.467(2) 0.1267(9) -0.1051(12)
H4 H -0.338(2) 0.1365(9) -0.0228(14)
H5 H 0.365(2) 0.1777(8) 0.2561(13)
H6 H 0.471(2) 0.1897(9) 0.3498(13)
H7 H -0.079(2) 0.1515(10) 0.0407(13)
H8 H -0.587(2) 0.1698(11) -0.2267(14)
H9 H -0.150(2) 0.1164(9) -0.0977(13)
H10 H 0.121(2) 0.1764(10) 0.1661(13)
H11 H -0.656(2) 0.2359(10) -0.2567(13)
H12 H 0.545(2) 0.3704(10) 0.4345(13)
H13 H -0.279(2) 0.0981(9) -0.1747(15)
H14 H 0.345(3) 0.1021(10) 0.3978(16)
H15 H -0.418(3) 0.1774(11) -0.3114(15)
H16 H 0.228(3) 0.0957(10) 0.3098(14)
H17 H 0.498(2) 0.2975(11) 0.4402(13)
H18 H -0.361(3) 0.0078(11) -0.1032(15)
H19 H 0.551(3) 0.0656(12) 0.3420(17)
H20 H 0.237(3) 0.4212(12) 0.6017(19)
H21 H 0.250(3) 0.3440(12) 0.4836(17)
H22 H -0.581(3) 0.1793(11) -0.4469(18)
H23 H 0.434(3) 0.0599(11) 0.2520(17)
H24 H -0.467(3) 0.2468(12) -0.3399(16)
H25 H 0.425(3) 0.4535(12) 0.5202(16)
H26 H -0.716(3) 0.2096(13) -0.4100(17)
H27 H -0.231(2) 0.0275(10) -0.0251(16)
H28 H -0.160(3) -0.0185(13) -0.176(2)
H29 H -0.584(3) 0.0814(13) -0.3714(17)
H30 H -0.029(3) 0.0008(13) -0.0895(18)
H31 H 0.111(4) 0.4190(14) 0.5191(19)
H32 H -0.719(4) 0.1056(14) -0.343(2)
H33 H -0.750(3) 0.0929(13) -0.4385(19)
H34 H 0.284(3) 0.4474(13) 0.4290(19)
H35 H -0.138(4) -0.0601(17) -0.087(2)
H36 H 0.174(4) 0.4863(17) 0.545(2)
H37 H 0.419(3) 0.3420(12) 0.5477(18)
H38 H 0.419(3) 0.0110(13) 0.3228(17)
C7B C 0.4672(2) 0.51892(8) 0.29335(12)
C17B C 0.4833(2) 0.58260(9) 0.26894(12)
C8B C 0.4735(2) 0.63569(8) 0.23510(12)
C6B C 0.41968(19) 0.68689(8) 0.17630(12)
S3B S 0.28010(5) 0.66179(2) 0.08989(3)
C9B C 0.25496(19) 0.74146(8) 0.05066(11)
C2B C 0.13693(19) 0.75086(8) -0.02625(11)
S2B S 0.06191(5) 0.68115(2) -0.08336(3)
C16B C -0.07643(19) 0.72620(8) -0.15348(11)
C5B C -0.18932(19) 0.68984(8) -0.21612(11)
S1B S -0.23537(5) 0.61101(2) -0.19033(3)
C13B C -0.35916(19) 0.60016(8) -0.28782(11)
C1B C -0.36592(19) 0.65526(8) -0.33828(11)
C4B C -0.26758(18) 0.70670(8) -0.29616(11)
C19B C -0.2537(2) 0.77348(8) -0.33397(13)
C22B C -0.3688(2) 0.82342(8) -0.31673(14)
C20B C -0.3362(3) 0.89395(9) -0.33819(16)
C31B C -0.4408(3) 0.94334(11) -0.31181(19)
H19B H -0.551(3) 0.9344(12) -0.3420(17)
H23B H -0.434(3) 0.9401(11) -0.2520(17)
H38B H -0.419(3) 0.9890(13) -0.3228(17)
H14B H -0.345(3) 0.8979(10) -0.3978(16)
H16B H -0.228(3) 0.9043(10) -0.3098(14)
H5B H -0.365(2) 0.8223(8) -0.2561(13)
H6B H -0.471(2) 0.8103(9) -0.3498(13)
H1B H -0.147(2) 0.7903(8) -0.3084(12)
H2B H -0.2673(19) 0.7698(8) -0.3926(13)
C11B C -0.4573(2) 0.65869(10) -0.42744(12)
C15B C -0.3618(3) 0.64385(11) -0.49016(15)
C30B C -0.3222(3) 0.57200(11) -0.49364(16)
C26B C -0.2008(3) 0.56056(16) -0.54229(19)
H20B H -0.237(3) 0.5788(12) -0.6017(19)
H31B H -0.111(4) 0.5810(14) -0.5191(19)
H36B H -0.174(4) 0.5137(17) -0.545(2)
H25B H -0.425(3) 0.5465(12) -0.5202(16)
H34B H -0.284(3) 0.5526(13) -0.4290(19)
H21B H -0.250(3) 0.6560(12) -0.4836(17)
H37B H -0.419(3) 0.6580(12) -0.5477(18)
H12B H -0.545(2) 0.6296(10) -0.4345(13)
H17B H -0.498(2) 0.7025(11) -0.4402(13)
C18B C -0.43057(19) 0.53746(8) -0.30163(11)
C25B C -0.0587(2) 0.79204(9) -0.13444(13)
C21B C 0.0597(2) 0.80580(9) -0.06322(12)
H7B H 0.079(2) 0.8485(10) -0.0407(13)
H10B H -0.121(2) 0.8236(10) -0.1661(13)
C12B C 0.35349(19) 0.78519(8) 0.10252(12)
C3B C 0.44705(19) 0.75380(8) 0.17491(12)
C28B C 0.5611(2) 0.78737(10) 0.24511(13)
C24B C 0.5069(3) 0.79444(11) 0.32478(14)
C29B C 0.6287(3) 0.82106(11) 0.39940(16)
C27B C 0.6776(3) 0.89047(12) 0.3883(2)
H29B H 0.584(3) 0.9186(13) 0.3714(17)
H32B H 0.719(4) 0.8944(14) 0.343(2)
H33B H 0.750(3) 0.9071(13) 0.4385(19)
H22B H 0.581(3) 0.8207(11) 0.4469(18)
H26B H 0.716(3) 0.7904(13) 0.4100(17)
H15B H 0.418(3) 0.8226(11) 0.3114(15)
H24B H 0.467(3) 0.7532(12) 0.3399(16)
H8B H 0.587(2) 0.8302(11) 0.2267(14)
H11B H 0.656(2) 0.7641(10) 0.2567(13)
C14B C 0.3604(2) 0.85760(8) 0.08244(14)
C10B C 0.2530(2) 0.90207(9) 0.11593(15)
C23B C 0.2521(3) 0.97245(10) 0.08398(18)
C32B C 0.1373(4) 1.01685(13) 0.1099(2)
H28B H 0.160(3) 1.0185(13) 0.176(2)
H30B H 0.029(3) 0.9992(13) 0.0895(18)
H35B H 0.138(4) 1.0601(17) 0.087(2)
H18B H 0.361(3) 0.9922(11) 0.1032(15)
H27B H 0.231(2) 0.9725(10) 0.0251(16)
H9B H 0.150(2) 0.8836(9) 0.0977(13)
H13B H 0.279(2) 0.9019(9) 0.1747(15)
H3B H 0.467(2) 0.8733(9) 0.1051(12)
H4B H 0.338(2) 0.8635(9) 0.0228(14)
S1 S 0.23537(5) 0.38899(2) 1.19033(3)
S2 S -0.06191(5) 0.31885(2) 1.08336(3)
S3 S -0.28010(5) 0.33821(2) 0.91011(3)
C1 C 0.36592(19) 0.34474(8) 1.33828(11)
C2 C -0.13693(19) 0.24914(8) 1.02625(11)
C3 C -0.44705(19) 0.24620(8) 0.82509(12)
C4 C 0.26758(18) 0.29330(8) 1.29616(11)
C5 C 0.18932(19) 0.31016(8) 1.21612(11)
C6 C -0.41968(19) 0.31311(8) 0.82370(12)
C7 C -0.4672(2) 0.48108(8) 0.70665(12)
C8 C -0.4735(2) 0.36431(8) 0.76490(12)
C9 C -0.25496(19) 0.25854(8) 0.94934(11)
C10 C -0.2530(2) 0.09793(9) 0.88407(15)
C11 C 0.4573(2) 0.34131(10) 1.42744(12)
C12 C -0.35349(19) 0.21481(8) 0.89748(12)
C13 C 0.35916(19) 0.39984(8) 1.28782(11)
C14 C -0.3604(2) 0.14240(8) 0.91756(14)
C15 C 0.3618(3) 0.35615(11) 1.49016(15)
C16 C 0.07643(19) 0.27380(8) 1.15348(11)
C17 C -0.4833(2) 0.41740(9) 0.73106(12)
C18 C 0.43057(19) 0.46254(8) 1.30163(11)
C19 C 0.2537(2) 0.22652(8) 1.33397(13)
C20 C 0.3362(3) 0.10605(9) 1.33819(16)
C21 C -0.0597(2) 0.19420(9) 1.06322(12)
C22 C 0.3688(2) 0.17658(8) 1.31673(14)
C23 C -0.2521(3) 0.02755(10) 0.91602(18)
C24 C -0.5069(3) 0.20556(11) 0.67522(14)
C25 C 0.0587(2) 0.20796(9) 1.13444(13)
C26 C 0.2008(3) 0.43944(16) 1.54229(19)
C27 C -0.6776(3) 0.10953(12) 0.6117(2)
C28 C -0.5611(2) 0.21263(10) 0.75489(13)
C29 C -0.6287(3) 0.17894(11) 0.60060(16)
C30 C 0.3222(3) 0.42800(11) 1.49364(16)
C31 C 0.4408(3) 0.05666(11) 1.31181(19)
C32 C -0.1373(4) -0.01685(13) 0.8901(2)
H1 H 0.147(2) 0.2097(8) 1.3084(12)
H2 H 0.2673(19) 0.2302(8) 1.3926(13)
H3 H -0.467(2) 0.1267(9) 0.8949(12)
H4 H -0.338(2) 0.1365(9) 0.9772(14)
H5 H 0.365(2) 0.1777(8) 1.2561(13)
H6 H 0.471(2) 0.1897(9) 1.3498(13)
H7 H -0.079(2) 0.1515(10) 1.0407(13)
H8 H -0.587(2) 0.1698(11) 0.7733(14)
H9 H -0.150(2) 0.1164(9) 0.9023(13)
H10 H 0.121(2) 0.1764(10) 1.1661(13)
H11 H -0.656(2) 0.2359(10) 0.7433(13)
H12 H 0.545(2) 0.3704(10) 1.4345(13)
H13 H -0.279(2) 0.0981(9) 0.8253(15)
H14 H 0.345(3) 0.1021(10) 1.3978(16)
H15 H -0.418(3) 0.1774(11) 0.6886(15)
H16 H 0.228(3) 0.0957(10) 1.3098(14)
H17 H 0.498(2) 0.2975(11) 1.4402(13)
H18 H -0.361(3) 0.0078(11) 0.8968(15)
H19 H 0.551(3) 0.0656(12) 1.3420(17)
H20 H 0.237(3) 0.4212(12) 1.6017(19)
H21 H 0.250(3) 0.3440(12) 1.4836(17)
H22 H -0.581(3) 0.1793(11) 0.5531(18)
H23 H 0.434(3) 0.0599(11) 1.2520(17)
H24 H -0.467(3) 0.2468(12) 0.6601(16)
H25 H 0.425(3) 0.4535(12) 1.5202(16)
H26 H -0.716(3) 0.2096(13) 0.5900(17)
H27 H -0.231(2) 0.0275(10) 0.9749(16)
H28 H -0.160(3) -0.0185(13) 0.824(2)
H29 H -0.584(3) 0.0814(13) 0.6286(17)
H30 H -0.029(3) 0.0008(13) 0.9105(18)
H31 H 0.111(4) 0.4190(14) 1.5191(19)
H32 H -0.719(4) 0.1056(14) 0.657(2)
H33 H -0.750(3) 0.0929(13) 0.5615(19)
H34 H 0.284(3) 0.4474(13) 1.4290(19)
H35 H -0.138(4) -0.0601(17) 0.913(2)
H36 H 0.174(4) 0.4863(17) 1.545(2)
H37 H 0.419(3) 0.3420(12) 1.5477(18)
H38 H 0.419(3) 0.0110(13) 1.3228(17)
C7B C 0.4672(2) 0.51892(8) 1.29335(12)
C17B C 0.4833(2) 0.58260(9) 1.26894(12)
C8B C 0.4735(2) 0.63569(8) 1.23510(12)
C6B C 0.41968(19) 0.68689(8) 1.17630(12)
S3B S 0.28010(5) 0.66179(2) 1.08989(3)
C9B C 0.25496(19) 0.74146(8) 1.05066(11)
C2B C 0.13693(19) 0.75086(8) 0.97375(11)
S2B S 0.06191(5) 0.68115(2) 0.91664(3)
C16B C -0.07643(19) 0.72620(8) 0.84652(11)
C5B C -0.18932(19) 0.68984(8) 0.78388(11)
S1B S -0.23537(5) 0.61101(2) 0.80967(3)
C13B C -0.35916(19) 0.60016(8) 0.71218(11)
C1B C -0.36592(19) 0.65526(8) 0.66172(11)
C4B C -0.26758(18) 0.70670(8) 0.70384(11)
C19B C -0.2537(2) 0.77348(8) 0.66603(13)
C22B C -0.3688(2) 0.82342(8) 0.68327(14)
C20B C -0.3362(3) 0.89395(9) 0.66181(16)
C31B C -0.4408(3) 0.94334(11) 0.68819(19)
H19B H -0.551(3) 0.9344(12) 0.6580(17)
H23B H -0.434(3) 0.9401(11) 0.7480(17)
H38B H -0.419(3) 0.9890(13) 0.6772(17)
H14B H -0.345(3) 0.8979(10) 0.6022(16)
H16B H -0.228(3) 0.9043(10) 0.6902(14)
H5B H -0.365(2) 0.8223(8) 0.7439(13)
H6B H -0.471(2) 0.8103(9) 0.6502(13)
H1B H -0.147(2) 0.7903(8) 0.6916(12)
H2B H -0.2673(19) 0.7698(8) 0.6074(13)
C11B C -0.4573(2) 0.65869(10) 0.57256(12)
C15B C -0.3618(3) 0.64385(11) 0.50984(15)
C30B C -0.3222(3) 0.57200(11) 0.50636(16)
C26B C -0.2008(3) 0.56056(16) 0.45771(19)
H20B H -0.237(3) 0.5788(12) 0.3983(19)
H31B H -0.111(4) 0.5810(14) 0.4809(19)
H36B H -0.174(4) 0.5137(17) 0.455(2)
H25B H -0.425(3) 0.5465(12) 0.4798(16)
H34B H -0.284(3) 0.5526(13) 0.5710(19)
H21B H -0.250(3) 0.6560(12) 0.5164(17)
H37B H -0.419(3) 0.6580(12) 0.4523(18)
H12B H -0.545(2) 0.6296(10) 0.5655(13)
H17B H -0.498(2) 0.7025(11) 0.5598(13)
C18B C -0.43057(19) 0.53746(8) 0.69837(11)
C25B C -0.0587(2) 0.79204(9) 0.86556(13)
C21B C 0.0597(2) 0.80580(9) 0.93678(12)
H7B H 0.079(2) 0.8485(10) 0.9593(13)
H10B H -0.121(2) 0.8236(10) 0.8339(13)
C12B C 0.35349(19) 0.78519(8) 1.10252(12)
C3B C 0.44705(19) 0.75380(8) 1.17491(12)
C28B C 0.5611(2) 0.78737(10) 1.24511(13)
C24B C 0.5069(3) 0.79444(11) 1.32478(14)
C29B C 0.6287(3) 0.82106(11) 1.39940(16)
C27B C 0.6776(3) 0.89047(12) 1.3883(2)
H29B H 0.584(3) 0.9186(13) 1.3714(17)
H32B H 0.719(4) 0.8944(14) 1.343(2)
H33B H 0.750(3) 0.9071(13) 1.4385(19)
H22B H 0.581(3) 0.8207(11) 1.4469(18)
H26B H 0.716(3) 0.7904(13) 1.4100(17)
H15B H 0.418(3) 0.8226(11) 1.3114(15)
H24B H 0.467(3) 0.7532(12) 1.3399(16)
H8B H 0.587(2) 0.8302(11) 1.2267(14)
H11B H 0.656(2) 0.7641(10) 1.2567(13)
C14B C 0.3604(2) 0.85760(8) 1.08244(14)
C10B C 0.2530(2) 0.90207(9) 1.11593(15)
C23B C 0.2521(3) 0.97245(10) 1.08398(18)
C32B C 0.1373(4) 1.01685(13) 1.1099(2)
H28B H 0.160(3) 1.0185(13) 1.176(2)
H30B H 0.029(3) 0.9992(13) 1.0895(18)
H35B H 0.138(4) 1.0601(17) 1.087(2)
H18B H 0.361(3) 0.9922(11) 1.1032(15)
H27B H 0.231(2) 0.9725(10) 1.0251(16)
H9B H 0.150(2) 0.8836(9) 1.0977(13)
H13B H 0.279(2) 0.9019(9) 1.1747(15)
H3B H 0.467(2) 0.8733(9) 1.1051(12)
H4B H 0.338(2) 0.8635(9) 1.0228(14)
S1 S 1.23537(5) 0.38899(2) 0.19033(3)
S2 S 0.93809(5) 0.31885(2) 0.08336(3)
S3 S 0.71990(5) 0.33821(2) -0.08989(3)
C1 C 1.36592(19) 0.34474(8) 0.33828(11)
C2 C 0.86307(19) 0.24914(8) 0.02625(11)
C3 C 0.55295(19) 0.24620(8) -0.17491(12)
C4 C 1.26758(18) 0.29330(8) 0.29616(11)
C5 C 1.18932(19) 0.31016(8) 0.21612(11)
C6 C 0.58032(19) 0.31311(8) -0.17630(12)
C7 C 0.5328(2) 0.48108(8) -0.29335(12)
C8 C 0.5265(2) 0.36431(8) -0.23510(12)
C9 C 0.74504(19) 0.25854(8) -0.05066(11)
C10 C 0.7470(2) 0.09793(9) -0.11593(15)
C11 C 1.4573(2) 0.34131(10) 0.42744(12)
C12 C 0.64651(19) 0.21481(8) -0.10252(12)
C13 C 1.35916(19) 0.39984(8) 0.28782(11)
C14 C 0.6396(2) 0.14240(8) -0.08244(14)
C15 C 1.3618(3) 0.35615(11) 0.49016(15)
C16 C 1.07643(19) 0.27380(8) 0.15348(11)
C17 C 0.5167(2) 0.41740(9) -0.26894(12)
C18 C 1.43057(19) 0.46254(8) 0.30163(11)
C19 C 1.2537(2) 0.22652(8) 0.33397(13)
C20 C 1.3362(3) 0.10605(9) 0.33819(16)
C21 C 0.9403(2) 0.19420(9) 0.06322(12)
C22 C 1.3688(2) 0.17658(8) 0.31673(14)
C23 C 0.7479(3) 0.02755(10) -0.08398(18)
C24 C 0.4931(3) 0.20556(11) -0.32478(14)
C25 C 1.0587(2) 0.20796(9) 0.13444(13)
C26 C 1.2008(3) 0.43944(16) 0.54229(19)
C27 C 0.3224(3) 0.10953(12) -0.3883(2)
C28 C 0.4389(2) 0.21263(10) -0.24511(13)
C29 C 0.3713(3) 0.17894(11) -0.39940(16)
C30 C 1.3222(3) 0.42800(11) 0.49364(16)
C31 C 1.4408(3) 0.05666(11) 0.31181(19)
C32 C 0.8627(4) -0.01685(13) -0.1099(2)
H1 H 1.147(2) 0.2097(8) 0.3084(12)
H2 H 1.2673(19) 0.2302(8) 0.3926(13)
H3 H 0.533(2) 0.1267(9) -0.1051(12)
H4 H 0.662(2) 0.1365(9) -0.0228(14)
H5 H 1.365(2) 0.1777(8) 0.2561(13)
H6 H 1.471(2) 0.1897(9) 0.3498(13)
H7 H 0.921(2) 0.1515(10) 0.0407(13)
H8 H 0.413(2) 0.1698(11) -0.2267(14)
H9 H 0.850(2) 0.1164(9) -0.0977(13)
H10 H 1.121(2) 0.1764(10) 0.1661(13)
H11 H 0.344(2) 0.2359(10) -0.2567(13)
H12 H 1.545(2) 0.3704(10) 0.4345(13)
H13 H 0.721(2) 0.0981(9) -0.1747(15)
H14 H 1.345(3) 0.1021(10) 0.3978(16)
H15 H 0.582(3) 0.1774(11) -0.3114(15)
H16 H 1.228(3) 0.0957(10) 0.3098(14)
H17 H 1.498(2) 0.2975(11) 0.4402(13)
H18 H 0.639(3) 0.0078(11) -0.1032(15)
H19 H 1.551(3) 0.0656(12) 0.3420(17)
H20 H 1.237(3) 0.4212(12) 0.6017(19)
H21 H 1.250(3) 0.3440(12) 0.4836(17)
H22 H 0.419(3) 0.1793(11) -0.4469(18)
H23 H 1.434(3) 0.0599(11) 0.2520(17)
H24 H 0.533(3) 0.2468(12) -0.3399(16)
H25 H 1.425(3) 0.4535(12) 0.5202(16)
H26 H 0.284(3) 0.2096(13) -0.4100(17)
H27 H 0.769(2) 0.0275(10) -0.0251(16)
H28 H 0.840(3) -0.0185(13) -0.176(2)
H29 H 0.416(3) 0.0814(13) -0.3714(17)
H30 H 0.971(3) 0.0008(13) -0.0895(18)
H31 H 1.111(4) 0.4190(14) 0.5191(19)
H32 H 0.281(4) 0.1056(14) -0.343(2)
H33 H 0.250(3) 0.0929(13) -0.4385(19)
H34 H 1.284(3) 0.4474(13) 0.4290(19)
H35 H 0.862(4) -0.0601(17) -0.087(2)
H36 H 1.174(4) 0.4863(17) 0.545(2)
H37 H 1.419(3) 0.3420(12) 0.5477(18)
H38 H 1.419(3) 0.0110(13) 0.3228(17)
C7B C 1.4672(2) 0.51892(8) 0.29335(12)
C17B C 1.4833(2) 0.58260(9) 0.26894(12)
C8B C 1.4735(2) 0.63569(8) 0.23510(12)
C6B C 1.41968(19) 0.68689(8) 0.17630(12)
S3B S 1.28010(5) 0.66179(2) 0.08989(3)
C9B C 1.25496(19) 0.74146(8) 0.05066(11)
C2B C 1.13693(19) 0.75086(8) -0.02625(11)
S2B S 1.06191(5) 0.68115(2) -0.08336(3)
C16B C 0.92357(19) 0.72620(8) -0.15348(11)
C5B C 0.81068(19) 0.68984(8) -0.21612(11)
S1B S 0.76463(5) 0.61101(2) -0.19033(3)
C13B C 0.64084(19) 0.60016(8) -0.28782(11)
C1B C 0.63408(19) 0.65526(8) -0.33828(11)
C4B C 0.73242(18) 0.70670(8) -0.29616(11)
C19B C 0.7463(2) 0.77348(8) -0.33397(13)
C22B C 0.6312(2) 0.82342(8) -0.31673(14)
C20B C 0.6638(3) 0.89395(9) -0.33819(16)
C31B C 0.5592(3) 0.94334(11) -0.31181(19)
H19B H 0.449(3) 0.9344(12) -0.3420(17)
H23B H 0.566(3) 0.9401(11) -0.2520(17)
H38B H 0.581(3) 0.9890(13) -0.3228(17)
H14B H 0.655(3) 0.8979(10) -0.3978(16)
H16B H 0.772(3) 0.9043(10) -0.3098(14)
H5B H 0.635(2) 0.8223(8) -0.2561(13)
H6B H 0.529(2) 0.8103(9) -0.3498(13)
H1B H 0.853(2) 0.7903(8) -0.3084(12)
H2B H 0.7327(19) 0.7698(8) -0.3926(13)
C11B C 0.5427(2) 0.65869(10) -0.42744(12)
C15B C 0.6382(3) 0.64385(11) -0.49016(15)
C30B C 0.6778(3) 0.57200(11) -0.49364(16)
C26B C 0.7992(3) 0.56056(16) -0.54229(19)
H20B H 0.763(3) 0.5788(12) -0.6017(19)
H31B H 0.889(4) 0.5810(14) -0.5191(19)
H36B H 0.826(4) 0.5137(17) -0.545(2)
H25B H 0.575(3) 0.5465(12) -0.5202(16)
H34B H 0.716(3) 0.5526(13) -0.4290(19)
H21B H 0.750(3) 0.6560(12) -0.4836(17)
H37B H 0.581(3) 0.6580(12) -0.5477(18)
H12B H 0.455(2) 0.6296(10) -0.4345(13)
H17B H 0.502(2) 0.7025(11) -0.4402(13)
C18B C 0.56943(19) 0.53746(8) -0.30163(11)
C25B C 0.9413(2) 0.79204(9) -0.13444(13)
C21B C 1.0597(2) 0.80580(9) -0.06322(12)
H7B H 1.079(2) 0.8485(10) -0.0407(13)
H10B H 0.879(2) 0.8236(10) -0.1661(13)
C12B C 1.35349(19) 0.78519(8) 0.10252(12)
C3B C 1.44705(19) 0.75380(8) 0.17491(12)
C28B C 1.5611(2) 0.78737(10) 0.24511(13)
C24B C 1.5069(3) 0.79444(11) 0.32478(14)
C29B C 1.6287(3) 0.82106(11) 0.39940(16)
C27B C 1.6776(3) 0.89047(12) 0.3883(2)
H29B H 1.584(3) 0.9186(13) 0.3714(17)
H32B H 1.719(4) 0.8944(14) 0.343(2)
H33B H 1.750(3) 0.9071(13) 0.4385(19)
H22B H 1.581(3) 0.8207(11) 0.4469(18)
H26B H 1.716(3) 0.7904(13) 0.4100(17)
H15B H 1.418(3) 0.8226(11) 0.3114(15)
H24B H 1.467(3) 0.7532(12) 0.3399(16)
H8B H 1.587(2) 0.8302(11) 0.2267(14)
H11B H 1.656(2) 0.7641(10) 0.2567(13)
C14B C 1.3604(2) 0.85760(8) 0.08244(14)
C10B C 1.2530(2) 0.90207(9) 0.11593(15)
C23B C 1.2521(3) 0.97245(10) 0.08398(18)
C32B C 1.1373(4) 1.01685(13) 0.1099(2)
H28B H 1.160(3) 1.0185(13) 0.176(2)
H30B H 1.029(3) 0.9992(13) 0.0895(18)
H35B H 1.138(4) 1.0601(17) 0.087(2)
H18B H 1.361(3) 0.9922(11) 0.1032(15)
H27B H 1.231(2) 0.9725(10) 0.0251(16)
H9B H 1.150(2) 0.8836(9) 0.0977(13)
H13B H 1.279(2) 0.9019(9) 0.1747(15)
H3B H 1.467(2) 0.8733(9) 0.1051(12)
H4B H 1.338(2) 0.8635(9) 0.0228(14)
S1 S 1.23537(5) 0.38899(2) 1.19033(3)
S2 S 0.93809(5) 0.31885(2) 1.08336(3)
S3 S 0.71990(5) 0.33821(2) 0.91011(3)
C1 C 1.36592(19) 0.34474(8) 1.33828(11)
C2 C 0.86307(19) 0.24914(8) 1.02625(11)
C3 C 0.55295(19) 0.24620(8) 0.82509(12)
C4 C 1.26758(18) 0.29330(8) 1.29616(11)
C5 C 1.18932(19) 0.31016(8) 1.21612(11)
C6 C 0.58032(19) 0.31311(8) 0.82370(12)
C7 C 0.5328(2) 0.48108(8) 0.70665(12)
C8 C 0.5265(2) 0.36431(8) 0.76490(12)
C9 C 0.74504(19) 0.25854(8) 0.94934(11)
C10 C 0.7470(2) 0.09793(9) 0.88407(15)
C11 C 1.4573(2) 0.34131(10) 1.42744(12)
C12 C 0.64651(19) 0.21481(8) 0.89748(12)
C13 C 1.35916(19) 0.39984(8) 1.28782(11)
C14 C 0.6396(2) 0.14240(8) 0.91756(14)
C15 C 1.3618(3) 0.35615(11) 1.49016(15)
C16 C 1.07643(19) 0.27380(8) 1.15348(11)
C17 C 0.5167(2) 0.41740(9) 0.73106(12)
C18 C 1.43057(19) 0.46254(8) 1.30163(11)
C19 C 1.2537(2) 0.22652(8) 1.33397(13)
C20 C 1.3362(3) 0.10605(9) 1.33819(16)
C21 C 0.9403(2) 0.19420(9) 1.06322(12)
C22 C 1.3688(2) 0.17658(8) 1.31673(14)
C23 C 0.7479(3) 0.02755(10) 0.91602(18)
C24 C 0.4931(3) 0.20556(11) 0.67522(14)
C25 C 1.0587(2) 0.20796(9) 1.13444(13)
C26 C 1.2008(3) 0.43944(16) 1.54229(19)
C27 C 0.3224(3) 0.10953(12) 0.6117(2)
C28 C 0.4389(2) 0.21263(10) 0.75489(13)
C29 C 0.3713(3) 0.17894(11) 0.60060(16)
C30 C 1.3222(3) 0.42800(11) 1.49364(16)
C31 C 1.4408(3) 0.05666(11) 1.31181(19)
C32 C 0.8627(4) -0.01685(13) 0.8901(2)
H1 H 1.147(2) 0.2097(8) 1.3084(12)
H2 H 1.2673(19) 0.2302(8) 1.3926(13)
H3 H 0.533(2) 0.1267(9) 0.8949(12)
H4 H 0.662(2) 0.1365(9) 0.9772(14)
H5 H 1.365(2) 0.1777(8) 1.2561(13)
H6 H 1.471(2) 0.1897(9) 1.3498(13)
H7 H 0.921(2) 0.1515(10) 1.0407(13)
H8 H 0.413(2) 0.1698(11) 0.7733(14)
H9 H 0.850(2) 0.1164(9) 0.9023(13)
H10 H 1.121(2) 0.1764(10) 1.1661(13)
H11 H 0.344(2) 0.2359(10) 0.7433(13)
H12 H 1.545(2) 0.3704(10) 1.4345(13)
H13 H 0.721(2) 0.0981(9) 0.8253(15)
H14 H 1.345(3) 0.1021(10) 1.3978(16)
H15 H 0.582(3) 0.1774(11) 0.6886(15)
H16 H 1.228(3) 0.0957(10) 1.3098(14)
H17 H 1.498(2) 0.2975(11) 1.4402(13)
H18 H 0.639(3) 0.0078(11) 0.8968(15)
H19 H 1.551(3) 0.0656(12) 1.3420(17)
H20 H 1.237(3) 0.4212(12) 1.6017(19)
H21 H 1.250(3) 0.3440(12) 1.4836(17)
H22 H 0.419(3) 0.1793(11) 0.5531(18)
H23 H 1.434(3) 0.0599(11) 1.2520(17)
H24 H 0.533(3) 0.2468(12) 0.6601(16)
H25 H 1.425(3) 0.4535(12) 1.5202(16)
H26 H 0.284(3) 0.2096(13) 0.5900(17)
H27 H 0.769(2) 0.0275(10) 0.9749(16)
H28 H 0.840(3) -0.0185(13) 0.824(2)
H29 H 0.416(3) 0.0814(13) 0.6286(17)
H30 H 0.971(3) 0.0008(13) 0.9105(18)
H31 H 1.111(4) 0.4190(14) 1.5191(19)
H32 H 0.281(4) 0.1056(14) 0.657(2)
H33 H 0.250(3) 0.0929(13) 0.5615(19)
H34 H 1.284(3) 0.4474(13) 1.4290(19)
H35 H 0.862(4) -0.0601(17) 0.913(2)
H36 H 1.174(4) 0.4863(17) 1.545(2)
H37 H 1.419(3) 0.3420(12) 1.5477(18)
H38 H 1.419(3) 0.0110(13) 1.3228(17)
C7B C 1.4672(2) 0.51892(8) 1.29335(12)
C17B C 1.4833(2) 0.58260(9) 1.26894(12)
C8B C 1.4735(2) 0.63569(8) 1.23510(12)
C6B C 1.41968(19) 0.68689(8) 1.17630(12)
S3B S 1.28010(5) 0.66179(2) 1.08989(3)
C9B C 1.25496(19) 0.74146(8) 1.05066(11)
C2B C 1.13693(19) 0.75086(8) 0.97375(11)
S2B S 1.06191(5) 0.68115(2) 0.91664(3)
C16B C 0.92357(19) 0.72620(8) 0.84652(11)
C5B C 0.81068(19) 0.68984(8) 0.78388(11)
S1B S 0.76463(5) 0.61101(2) 0.80967(3)
C13B C 0.64084(19) 0.60016(8) 0.71218(11)
C1B C 0.63408(19) 0.65526(8) 0.66172(11)
C4B C 0.73242(18) 0.70670(8) 0.70384(11)
C19B C 0.7463(2) 0.77348(8) 0.66603(13)
C22B C 0.6312(2) 0.82342(8) 0.68327(14)
C20B C 0.6638(3) 0.89395(9) 0.66181(16)
C31B C 0.5592(3) 0.94334(11) 0.68819(19)
H19B H 0.449(3) 0.9344(12) 0.6580(17)
H23B H 0.566(3) 0.9401(11) 0.7480(17)
H38B H 0.581(3) 0.9890(13) 0.6772(17)
H14B H 0.655(3) 0.8979(10) 0.6022(16)
H16B H 0.772(3) 0.9043(10) 0.6902(14)
H5B H 0.635(2) 0.8223(8) 0.7439(13)
H6B H 0.529(2) 0.8103(9) 0.6502(13)
H1B H 0.853(2) 0.7903(8) 0.6916(12)
H2B H 0.7327(19) 0.7698(8) 0.6074(13)
C11B C 0.5427(2) 0.65869(10) 0.57256(12)
C15B C 0.6382(3) 0.64385(11) 0.50984(15)
C30B C 0.6778(3) 0.57200(11) 0.50636(16)
C26B C 0.7992(3) 0.56056(16) 0.45771(19)
H20B H 0.763(3) 0.5788(12) 0.3983(19)
H31B H 0.889(4) 0.5810(14) 0.4809(19)
H36B H 0.826(4) 0.5137(17) 0.455(2)
H25B H 0.575(3) 0.5465(12) 0.4798(16)
H34B H 0.716(3) 0.5526(13) 0.5710(19)
H21B H 0.750(3) 0.6560(12) 0.5164(17)
H37B H 0.581(3) 0.6580(12) 0.4523(18)
H12B H 0.455(2) 0.6296(10) 0.5655(13)
H17B H 0.502(2) 0.7025(11) 0.5598(13)
C18B C 0.56943(19) 0.53746(8) 0.69837(11)
C25B C 0.9413(2) 0.79204(9) 0.86556(13)
C21B C 1.0597(2) 0.80580(9) 0.93678(12)
H7B H 1.079(2) 0.8485(10) 0.9593(13)
H10B H 0.879(2) 0.8236(10) 0.8339(13)
C12B C 1.35349(19) 0.78519(8) 1.10252(12)
C3B C 1.44705(19) 0.75380(8) 1.17491(12)
C28B C 1.5611(2) 0.78737(10) 1.24511(13)
C24B C 1.5069(3) 0.79444(11) 1.32478(14)
C29B C 1.6287(3) 0.82106(11) 1.39940(16)
C27B C 1.6776(3) 0.89047(12) 1.3883(2)
H29B H 1.584(3) 0.9186(13) 1.3714(17)
H32B H 1.719(4) 0.8944(14) 1.343(2)
H33B H 1.750(3) 0.9071(13) 1.4385(19)
H22B H 1.581(3) 0.8207(11) 1.4469(18)
H26B H 1.716(3) 0.7904(13) 1.4100(17)
H15B H 1.418(3) 0.8226(11) 1.3114(15)
H24B H 1.467(3) 0.7532(12) 1.3399(16)
H8B H 1.587(2) 0.8302(11) 1.2267(14)
H11B H 1.656(2) 0.7641(10) 1.2567(13)
C14B C 1.3604(2) 0.85760(8) 1.08244(14)
C10B C 1.2530(2) 0.90207(9) 1.11593(15)
C23B C 1.2521(3) 0.97245(10) 1.08398(18)
C32B C 1.1373(4) 1.01685(13) 1.1099(2)
H28B H 1.160(3) 1.0185(13) 1.176(2)
H30B H 1.029(3) 0.9992(13) 1.0895(18)
H35B H 1.138(4) 1.0601(17) 1.087(2)
H18B H 1.361(3) 0.9922(11) 1.1032(15)
H27B H 1.231(2) 0.9725(10) 1.0251(16)
H9B H 1.150(2) 0.8836(9) 1.0977(13)
H13B H 1.279(2) 0.9019(9) 1.1747(15)
H3B H 1.467(2) 0.8733(9) 1.1051(12)
H4B H 1.338(2) 0.8635(9) 1.0228(14)
S1 S 0.73537(5) 0.11101(2) 0.19033(3)
S2 S 0.43809(5) 0.18115(2) 0.08336(3)
S3 S 0.21990(5) 0.16179(2) -0.08989(3)
C1 C 0.86592(19) 0.15526(8) 0.33828(11)
C2 C 0.36307(19) 0.25086(8) 0.02625(11)
C3 C 0.05295(19) 0.25380(8) -0.17491(12)
C4 C 0.76758(18) 0.20670(8) 0.29616(11)
C5 C 0.68932(19) 0.18984(8) 0.21612(11)
C6 C 0.08032(19) 0.18689(8) -0.17630(12)
C7 C 0.0328(2) 0.01892(8) -0.29335(12)
C8 C 0.0265(2) 0.13569(8) -0.23510(12)
C9 C 0.24504(19) 0.24146(8) -0.05066(11)
C10 C 0.2470(2) 0.40207(9) -0.11593(15)
C11 C 0.9573(2) 0.15869(10) 0.42744(12)
C12 C 0.14651(19) 0.28519(8) -0.10252(12)
C13 C 0.85916(19) 0.10016(8) 0.28782(11)
C14 C 0.1396(2) 0.35760(8) -0.08244(14)
C15 C 0.8618(3) 0.14385(11) 0.49016(15)
C16 C 0.57643(19) 0.22620(8) 0.15348(11)
C17 C 0.0167(2) 0.08260(9) -0.26894(12)
C18 C 0.93057(19) 0.03746(8) 0.30163(11)
C19 C 0.7537(2) 0.27348(8) 0.33397(13)
C20 C 0.8362(3) 0.39395(9) 0.33819(16)
C21 C 0.4403(2) 0.30580(9) 0.06322(12)
C22 C 0.8688(2) 0.32342(8) 0.31673(14)
C23 C 0.2479(3) 0.47245(10) -0.08398(18)
C24 C -0.0069(3) 0.29444(11) -0.32478(14)
C25 C 0.5587(2) 0.29204(9) 0.13444(13)
C26 C 0.7008(3) 0.06056(16) 0.54229(19)
C27 C -0.1776(3) 0.39047(12) -0.3883(2)
C28 C -0.0611(2) 0.28737(10) -0.24511(13)
C29 C -0.1287(3) 0.32106(11) -0.39940(16)
C30 C 0.8222(3) 0.07200(11) 0.49364(16)
C31 C 0.9408(3) 0.44334(11) 0.31181(19)
C32 C 0.3627(4) 0.51685(13) -0.1099(2)
H1 H 0.647(2) 0.2903(8) 0.3084(12)
H2 H 0.7673(19) 0.2698(8) 0.3926(13)
H3 H 0.033(2) 0.3733(9) -0.1051(12)
H4 H 0.162(2) 0.3635(9) -0.0228(14)
H5 H 0.865(2) 0.3223(8) 0.2561(13)
H6 H 0.971(2) 0.3103(9) 0.3498(13)
H7 H 0.421(2) 0.3485(10) 0.0407(13)
H8 H -0.087(2) 0.3302(11) -0.2267(14)
H9 H 0.350(2) 0.3836(9) -0.0977(13)
H10 H 0.621(2) 0.3236(10) 0.1661(13)
H11 H -0.156(2) 0.2641(10) -0.2567(13)
H12 H 1.045(2) 0.1296(10) 0.4345(13)
H13 H 0.221(2) 0.4019(9) -0.1747(15)
H14 H 0.845(3) 0.3979(10) 0.3978(16)
H15 H 0.082(3) 0.3226(11) -0.3114(15)
H16 H 0.728(3) 0.4043(10) 0.3098(14)
H17 H 0.998(2) 0.2025(11) 0.4402(13)
H18 H 0.139(3) 0.4922(11) -0.1032(15)
H19 H 1.051(3) 0.4344(12) 0.3420(17)
H20 H 0.737(3) 0.0788(12) 0.6017(19)
H21 H 0.750(3) 0.1560(12) 0.4836(17)
H22 H -0.081(3) 0.3207(11) -0.4469(18)
H23 H 0.934(3) 0.4401(11) 0.2520(17)
H24 H 0.033(3) 0.2532(12) -0.3399(16)
H25 H 0.925(3) 0.0465(12) 0.5202(16)
H26 H -0.216(3) 0.2904(13) -0.4100(17)
H27 H 0.269(2) 0.4725(10) -0.0251(16)
H28 H 0.340(3) 0.5185(13) -0.176(2)
H29 H -0.084(3) 0.4186(13) -0.3714(17)
H30 H 0.471(3) 0.4992(13) -0.0895(18)
H31 H 0.611(4) 0.0810(14) 0.5191(19)
H32 H -0.219(4) 0.3944(14) -0.343(2)
H33 H -0.250(3) 0.4071(13) -0.4385(19)
H34 H 0.784(3) 0.0526(13) 0.4290(19)
H35 H 0.362(4) 0.5601(17) -0.087(2)
H36 H 0.674(4) 0.0137(17) 0.545(2)
H37 H 0.919(3) 0.1580(12) 0.5477(18)
H38 H 0.919(3) 0.4890(13) 0.3228(17)
C7B C 0.9672(2) -0.01892(8) 0.29335(12)
C17B C 0.9833(2) -0.08260(9) 0.26894(12)
C8B C 0.9735(2) -0.13569(8) 0.23510(12)
C6B C 0.91968(19) -0.18689(8) 0.17630(12)
S3B S 0.78010(5) -0.16179(2) 0.08989(3)
C9B C 0.75496(19) -0.24146(8) 0.05066(11)
C2B C 0.63693(19) -0.25086(8) -0.02625(11)
S2B S 0.56191(5) -0.18115(2) -0.08336(3)
C16B C 0.42357(19) -0.22620(8) -0.15348(11)
C5B C 0.31068(19) -0.18984(8) -0.21612(11)
S1B S 0.26463(5) -0.11101(2) -0.19033(3)
C13B C 0.14084(19) -0.10016(8) -0.28782(11)
C1B C 0.13408(19) -0.15526(8) -0.33828(11)
C4B C 0.23242(18) -0.20670(8) -0.29616(11)
C19B C 0.2463(2) -0.27348(8) -0.33397(13)
C22B C 0.1312(2) -0.32342(8) -0.31673(14)
C20B C 0.1638(3) -0.39395(9) -0.33819(16)
C31B C 0.0592(3) -0.44334(11) -0.31181(19)
H19B H -0.051(3) -0.4344(12) -0.3420(17)
H23B H 0.066(3) -0.4401(11) -0.2520(17)
H38B H 0.081(3) -0.4890(13) -0.3228(17)
H14B H 0.155(3) -0.3979(10) -0.3978(16)
H16B H 0.272(3) -0.4043(10) -0.3098(14)
H5B H 0.135(2) -0.3223(8) -0.2561(13)
H6B H 0.029(2) -0.3103(9) -0.3498(13)
H1B H 0.353(2) -0.2903(8) -0.3084(12)
H2B H 0.2327(19) -0.2698(8) -0.3926(13)
C11B C 0.0427(2) -0.15869(10) -0.42744(12)
C15B C 0.1382(3) -0.14385(11) -0.49016(15)
C30B C 0.1778(3) -0.07200(11) -0.49364(16)
C26B C 0.2992(3) -0.06056(16) -0.54229(19)
H20B H 0.263(3) -0.0788(12) -0.6017(19)
H31B H 0.389(4) -0.0810(14) -0.5191(19)
H36B H 0.326(4) -0.0137(17) -0.545(2)
H25B H 0.075(3) -0.0465(12) -0.5202(16)
H34B H 0.216(3) -0.0526(13) -0.4290(19)
H21B H 0.250(3) -0.1560(12) -0.4836(17)
H37B H 0.081(3) -0.1580(12) -0.5477(18)
H12B H -0.045(2) -0.1296(10) -0.4345(13)
H17B H 0.002(2) -0.2025(11) -0.4402(13)
C18B C 0.06943(19) -0.03746(8) -0.30163(11)
C25B C 0.4413(2) -0.29204(9) -0.13444(13)
C21B C 0.5597(2) -0.30580(9) -0.06322(12)
H7B H 0.579(2) -0.3485(10) -0.0407(13)
H10B H 0.379(2) -0.3236(10) -0.1661(13)
C12B C 0.85349(19) -0.28519(8) 0.10252(12)
C3B C 0.94705(19) -0.25380(8) 0.17491(12)
C28B C 1.0611(2) -0.28737(10) 0.24511(13)
C24B C 1.0069(3) -0.29444(11) 0.32478(14)
C29B C 1.1287(3) -0.32106(11) 0.39940(16)
C27B C 1.1776(3) -0.39047(12) 0.3883(2)
H29B H 1.084(3) -0.4186(13) 0.3714(17)
H32B H 1.219(4) -0.3944(14) 0.343(2)
H33B H 1.250(3) -0.4071(13) 0.4385(19)
H22B H 1.081(3) -0.3207(11) 0.4469(18)
H26B H 1.216(3) -0.2904(13) 0.4100(17)
H15B H 0.918(3) -0.3226(11) 0.3114(15)
H24B H 0.967(3) -0.2532(12) 0.3399(16)
H8B H 1.087(2) -0.3302(11) 0.2267(14)
H11B H 1.156(2) -0.2641(10) 0.2567(13)
C14B C 0.8604(2) -0.35760(8) 0.08244(14)
C10B C 0.7530(2) -0.40207(9) 0.11593(15)
C23B C 0.7521(3) -0.47245(10) 0.08398(18)
C32B C 0.6373(4) -0.51685(13) 0.1099(2)
H28B H 0.660(3) -0.5185(13) 0.176(2)
H30B H 0.529(3) -0.4992(13) 0.0895(18)
H35B H 0.638(4) -0.5601(17) 0.087(2)
H18B H 0.861(3) -0.4922(11) 0.1032(15)
H27B H 0.731(2) -0.4725(10) 0.0251(16)
H9B H 0.650(2) -0.3836(9) 0.0977(13)
H13B H 0.779(2) -0.4019(9) 0.1747(15)
H3B H 0.967(2) -0.3733(9) 0.1051(12)
H4B H 0.838(2) -0.3635(9) 0.0228(14)
S1 S 0.73537(5) 0.11101(2) 1.19033(3)
S2 S 0.43809(5) 0.18115(2) 1.08336(3)
S3 S 0.21990(5) 0.16179(2) 0.91011(3)
C1 C 0.86592(19) 0.15526(8) 1.33828(11)
C2 C 0.36307(19) 0.25086(8) 1.02625(11)
C3 C 0.05295(19) 0.25380(8) 0.82509(12)
C4 C 0.76758(18) 0.20670(8) 1.29616(11)
C5 C 0.68932(19) 0.18984(8) 1.21612(11)
C6 C 0.08032(19) 0.18689(8) 0.82370(12)
C7 C 0.0328(2) 0.01892(8) 0.70665(12)
C8 C 0.0265(2) 0.13569(8) 0.76490(12)
C9 C 0.24504(19) 0.24146(8) 0.94934(11)
C10 C 0.2470(2) 0.40207(9) 0.88407(15)
C11 C 0.9573(2) 0.15869(10) 1.42744(12)
C12 C 0.14651(19) 0.28519(8) 0.89748(12)
C13 C 0.85916(19) 0.10016(8) 1.28782(11)
C14 C 0.1396(2) 0.35760(8) 0.91756(14)
C15 C 0.8618(3) 0.14385(11) 1.49016(15)
C16 C 0.57643(19) 0.22620(8) 1.15348(11)
C17 C 0.0167(2) 0.08260(9) 0.73106(12)
C18 C 0.93057(19) 0.03746(8) 1.30163(11)
C19 C 0.7537(2) 0.27348(8) 1.33397(13)
C20 C 0.8362(3) 0.39395(9) 1.33819(16)
C21 C 0.4403(2) 0.30580(9) 1.06322(12)
C22 C 0.8688(2) 0.32342(8) 1.31673(14)
C23 C 0.2479(3) 0.47245(10) 0.91602(18)
C24 C -0.0069(3) 0.29444(11) 0.67522(14)
C25 C 0.5587(2) 0.29204(9) 1.13444(13)
C26 C 0.7008(3) 0.06056(16) 1.54229(19)
C27 C -0.1776(3) 0.39047(12) 0.6117(2)
C28 C -0.0611(2) 0.28737(10) 0.75489(13)
C29 C -0.1287(3) 0.32106(11) 0.60060(16)
C30 C 0.8222(3) 0.07200(11) 1.49364(16)
C31 C 0.9408(3) 0.44334(11) 1.31181(19)
C32 C 0.3627(4) 0.51685(13) 0.8901(2)
H1 H 0.647(2) 0.2903(8) 1.3084(12)
H2 H 0.7673(19) 0.2698(8) 1.3926(13)
H3 H 0.033(2) 0.3733(9) 0.8949(12)
H4 H 0.162(2) 0.3635(9) 0.9772(14)
H5 H 0.865(2) 0.3223(8) 1.2561(13)
H6 H 0.971(2) 0.3103(9) 1.3498(13)
H7 H 0.421(2) 0.3485(10) 1.0407(13)
H8 H -0.087(2) 0.3302(11) 0.7733(14)
H9 H 0.350(2) 0.3836(9) 0.9023(13)
H10 H 0.621(2) 0.3236(10) 1.1661(13)
H11 H -0.156(2) 0.2641(10) 0.7433(13)
H12 H 1.045(2) 0.1296(10) 1.4345(13)
H13 H 0.221(2) 0.4019(9) 0.8253(15)
H14 H 0.845(3) 0.3979(10) 1.3978(16)
H15 H 0.082(3) 0.3226(11) 0.6886(15)
H16 H 0.728(3) 0.4043(10) 1.3098(14)
H17 H 0.998(2) 0.2025(11) 1.4402(13)
H18 H 0.139(3) 0.4922(11) 0.8968(15)
H19 H 1.051(3) 0.4344(12) 1.3420(17)
H20 H 0.737(3) 0.0788(12) 1.6017(19)
H21 H 0.750(3) 0.1560(12) 1.4836(17)
H22 H -0.081(3) 0.3207(11) 0.5531(18)
H23 H 0.934(3) 0.4401(11) 1.2520(17)
H24 H 0.033(3) 0.2532(12) 0.6601(16)
H25 H 0.925(3) 0.0465(12) 1.5202(16)
H26 H -0.216(3) 0.2904(13) 0.5900(17)
H27 H 0.269(2) 0.4725(10) 0.9749(16)
H28 H 0.340(3) 0.5185(13) 0.824(2)
H29 H -0.084(3) 0.4186(13) 0.6286(17)
H30 H 0.471(3) 0.4992(13) 0.9105(18)
H31 H 0.611(4) 0.0810(14) 1.5191(19)
H32 H -0.219(4) 0.3944(14) 0.657(2)
H33 H -0.250(3) 0.4071(13) 0.5615(19)
H34 H 0.784(3) 0.0526(13) 1.4290(19)
H35 H 0.362(4) 0.5601(17) 0.913(2)
H36 H 0.674(4) 0.0137(17) 1.545(2)
H37 H 0.919(3) 0.1580(12) 1.5477(18)
H38 H 0.919(3) 0.4890(13) 1.3228(17)
C7B C 0.9672(2) -0.01892(8) 1.29335(12)
C17B C 0.9833(2) -0.08260(9) 1.26894(12)
C8B C 0.9735(2) -0.13569(8) 1.23510(12)
C6B C 0.91968(19) -0.18689(8) 1.17630(12)
S3B S 0.78010(5) -0.16179(2) 1.08989(3)
C9B C 0.75496(19) -0.24146(8) 1.05066(11)
C2B C 0.63693(19) -0.25086(8) 0.97375(11)
S2B S 0.56191(5) -0.18115(2) 0.91664(3)
C16B C 0.42357(19) -0.22620(8) 0.84652(11)
C5B C 0.31068(19) -0.18984(8) 0.78388(11)
S1B S 0.26463(5) -0.11101(2) 0.80967(3)
C13B C 0.14084(19) -0.10016(8) 0.71218(11)
C1B C 0.13408(19) -0.15526(8) 0.66172(11)
C4B C 0.23242(18) -0.20670(8) 0.70384(11)
C19B C 0.2463(2) -0.27348(8) 0.66603(13)
C22B C 0.1312(2) -0.32342(8) 0.68327(14)
C20B C 0.1638(3) -0.39395(9) 0.66181(16)
C31B C 0.0592(3) -0.44334(11) 0.68819(19)
H19B H -0.051(3) -0.4344(12) 0.6580(17)
H23B H 0.066(3) -0.4401(11) 0.7480(17)
H38B H 0.081(3) -0.4890(13) 0.6772(17)
H14B H 0.155(3) -0.3979(10) 0.6022(16)
H16B H 0.272(3) -0.4043(10) 0.6902(14)
H5B H 0.135(2) -0.3223(8) 0.7439(13)
H6B H 0.029(2) -0.3103(9) 0.6502(13)
H1B H 0.353(2) -0.2903(8) 0.6916(12)
H2B H 0.2327(19) -0.2698(8) 0.6074(13)
C11B C 0.0427(2) -0.15869(10) 0.57256(12)
C15B C 0.1382(3) -0.14385(11) 0.50984(15)
C30B C 0.1778(3) -0.07200(11) 0.50636(16)
C26B C 0.2992(3) -0.06056(16) 0.45771(19)
H20B H 0.263(3) -0.0788(12) 0.3983(19)
H31B H 0.389(4) -0.0810(14) 0.4809(19)
H36B H 0.326(4) -0.0137(17) 0.455(2)
H25B H 0.075(3) -0.0465(12) 0.4798(16)
H34B H 0.216(3) -0.0526(13) 0.5710(19)
H21B H 0.250(3) -0.1560(12) 0.5164(17)
H37B H 0.081(3) -0.1580(12) 0.4523(18)
H12B H -0.045(2) -0.1296(10) 0.5655(13)
H17B H 0.002(2) -0.2025(11) 0.5598(13)
C18B C 0.06943(19) -0.03746(8) 0.69837(11)
C25B C 0.4413(2) -0.29204(9) 0.86556(13)
C21B C 0.5597(2) -0.30580(9) 0.93678(12)
H7B H 0.579(2) -0.3485(10) 0.9593(13)
H10B H 0.379(2) -0.3236(10) 0.8339(13)
C12B C 0.85349(19) -0.28519(8) 1.10252(12)
C3B C 0.94705(19) -0.25380(8) 1.17491(12)
C28B C 1.0611(2) -0.28737(10) 1.24511(13)
C24B C 1.0069(3) -0.29444(11) 1.32478(14)
C29B C 1.1287(3) -0.32106(11) 1.39940(16)
C27B C 1.1776(3) -0.39047(12) 1.3883(2)
H29B H 1.084(3) -0.4186(13) 1.3714(17)
H32B H 1.219(4) -0.3944(14) 1.343(2)
H33B H 1.250(3) -0.4071(13) 1.4385(19)
H22B H 1.081(3) -0.3207(11) 1.4469(18)
H26B H 1.216(3) -0.2904(13) 1.4100(17)
H15B H 0.918(3) -0.3226(11) 1.3114(15)
H24B H 0.967(3) -0.2532(12) 1.3399(16)
H8B H 1.087(2) -0.3302(11) 1.2267(14)
H11B H 1.156(2) -0.2641(10) 1.2567(13)
C14B C 0.8604(2) -0.35760(8) 1.08244(14)
C10B C 0.7530(2) -0.40207(9) 1.11593(15)
C23B C 0.7521(3) -0.47245(10) 1.08398(18)
C32B C 0.6373(4) -0.51685(13) 1.1099(2)
H28B H 0.660(3) -0.5185(13) 1.176(2)
H30B H 0.529(3) -0.4992(13) 1.0895(18)
H35B H 0.638(4) -0.5601(17) 1.087(2)
H18B H 0.861(3) -0.4922(11) 1.1032(15)
H27B H 0.731(2) -0.4725(10) 1.0251(16)
H9B H 0.650(2) -0.3836(9) 1.0977(13)
H13B H 0.779(2) -0.4019(9) 1.1747(15)
H3B H 0.967(2) -0.3733(9) 1.1051(12)
H4B H 0.838(2) -0.3635(9) 1.0228(14)
S1 S 0.73537(5) 1.11101(2) 0.19033(3)
S2 S 0.43809(5) 1.18115(2) 0.08336(3)
S3 S 0.21990(5) 1.16179(2) -0.08989(3)
C1 C 0.86592(19) 1.15526(8) 0.33828(11)
C2 C 0.36307(19) 1.25086(8) 0.02625(11)
C3 C 0.05295(19) 1.25380(8) -0.17491(12)
C4 C 0.76758(18) 1.20670(8) 0.29616(11)
C5 C 0.68932(19) 1.18984(8) 0.21612(11)
C6 C 0.08032(19) 1.18689(8) -0.17630(12)
C7 C 0.0328(2) 1.01892(8) -0.29335(12)
C8 C 0.0265(2) 1.13569(8) -0.23510(12)
C9 C 0.24504(19) 1.24146(8) -0.05066(11)
C10 C 0.2470(2) 1.40207(9) -0.11593(15)
C11 C 0.9573(2) 1.15869(10) 0.42744(12)
C12 C 0.14651(19) 1.28519(8) -0.10252(12)
C13 C 0.85916(19) 1.10016(8) 0.28782(11)
C14 C 0.1396(2) 1.35760(8) -0.08244(14)
C15 C 0.8618(3) 1.14385(11) 0.49016(15)
C16 C 0.57643(19) 1.22620(8) 0.15348(11)
C17 C 0.0167(2) 1.08260(9) -0.26894(12)
C18 C 0.93057(19) 1.03746(8) 0.30163(11)
C19 C 0.7537(2) 1.27348(8) 0.33397(13)
C20 C 0.8362(3) 1.39395(9) 0.33819(16)
C21 C 0.4403(2) 1.30580(9) 0.06322(12)
C22 C 0.8688(2) 1.32342(8) 0.31673(14)
C23 C 0.2479(3) 1.47245(10) -0.08398(18)
C24 C -0.0069(3) 1.29444(11) -0.32478(14)
C25 C 0.5587(2) 1.29204(9) 0.13444(13)
C26 C 0.7008(3) 1.06056(16) 0.54229(19)
C27 C -0.1776(3) 1.39047(12) -0.3883(2)
C28 C -0.0611(2) 1.28737(10) -0.24511(13)
C29 C -0.1287(3) 1.32106(11) -0.39940(16)
C30 C 0.8222(3) 1.07200(11) 0.49364(16)
C31 C 0.9408(3) 1.44334(11) 0.31181(19)
C32 C 0.3627(4) 1.51685(13) -0.1099(2)
H1 H 0.647(2) 1.2903(8) 0.3084(12)
H2 H 0.7673(19) 1.2698(8) 0.3926(13)
H3 H 0.033(2) 1.3733(9) -0.1051(12)
H4 H 0.162(2) 1.3635(9) -0.0228(14)
H5 H 0.865(2) 1.3223(8) 0.2561(13)
H6 H 0.971(2) 1.3103(9) 0.3498(13)
H7 H 0.421(2) 1.3485(10) 0.0407(13)
H8 H -0.087(2) 1.3302(11) -0.2267(14)
H9 H 0.350(2) 1.3836(9) -0.0977(13)
H10 H 0.621(2) 1.3236(10) 0.1661(13)
H11 H -0.156(2) 1.2641(10) -0.2567(13)
H12 H 1.045(2) 1.1296(10) 0.4345(13)
H13 H 0.221(2) 1.4019(9) -0.1747(15)
H14 H 0.845(3) 1.3979(10) 0.3978(16)
H15 H 0.082(3) 1.3226(11) -0.3114(15)
H16 H 0.728(3) 1.4043(10) 0.3098(14)
H17 H 0.998(2) 1.2025(11) 0.4402(13)
H18 H 0.139(3) 1.4922(11) -0.1032(15)
H19 H 1.051(3) 1.4344(12) 0.3420(17)
H20 H 0.737(3) 1.0788(12) 0.6017(19)
H21 H 0.750(3) 1.1560(12) 0.4836(17)
H22 H -0.081(3) 1.3207(11) -0.4469(18)
H23 H 0.934(3) 1.4401(11) 0.2520(17)
H24 H 0.033(3) 1.2532(12) -0.3399(16)
H25 H 0.925(3) 1.0465(12) 0.5202(16)
H26 H -0.216(3) 1.2904(13) -0.4100(17)
H27 H 0.269(2) 1.4725(10) -0.0251(16)
H28 H 0.340(3) 1.5185(13) -0.176(2)
H29 H -0.084(3) 1.4186(13) -0.3714(17)
H30 H 0.471(3) 1.4992(13) -0.0895(18)
H31 H 0.611(4) 1.0810(14) 0.5191(19)
H32 H -0.219(4) 1.3944(14) -0.343(2)
H33 H -0.250(3) 1.4071(13) -0.4385(19)
H34 H 0.784(3) 1.0526(13) 0.4290(19)
H35 H 0.362(4) 1.5601(17) -0.087(2)
H36 H 0.674(4) 1.0137(17) 0.545(2)
H37 H 0.919(3) 1.1580(12) 0.5477(18)
H38 H 0.919(3) 1.4890(13) 0.3228(17)
C7B C 0.9672(2) 0.98108(8) 0.29335(12)
C17B C 0.9833(2) 0.91740(9) 0.26894(12)
C8B C 0.9735(2) 0.86431(8) 0.23510(12)
C6B C 0.91968(19) 0.81311(8) 0.17630(12)
S3B S 0.78010(5) 0.83821(2) 0.08989(3)
C9B C 0.75496(19) 0.75854(8) 0.05066(11)
C2B C 0.63693(19) 0.74914(8) -0.02625(11)
S2B S 0.56191(5) 0.81885(2) -0.08336(3)
C16B C 0.42357(19) 0.77380(8) -0.15348(11)
C5B C 0.31068(19) 0.81016(8) -0.21612(11)
S1B S 0.26463(5) 0.88899(2) -0.19033(3)
C13B C 0.14084(19) 0.89984(8) -0.28782(11)
C1B C 0.13408(19) 0.84474(8) -0.33828(11)
C4B C 0.23242(18) 0.79330(8) -0.29616(11)
C19B C 0.2463(2) 0.72652(8) -0.33397(13)
C22B C 0.1312(2) 0.67658(8) -0.31673(14)
C20B C 0.1638(3) 0.60605(9) -0.33819(16)
C31B C 0.0592(3) 0.55666(11) -0.31181(19)
H19B H -0.051(3) 0.5656(12) -0.3420(17)
H23B H 0.066(3) 0.5599(11) -0.2520(17)
H38B H 0.081(3) 0.5110(13) -0.3228(17)
H14B H 0.155(3) 0.6021(10) -0.3978(16)
H16B H 0.272(3) 0.5957(10) -0.3098(14)
H5B H 0.135(2) 0.6777(8) -0.2561(13)
H6B H 0.029(2) 0.6897(9) -0.3498(13)
H1B H 0.353(2) 0.7097(8) -0.3084(12)
H2B H 0.2327(19) 0.7302(8) -0.3926(13)
C11B C 0.0427(2) 0.84131(10) -0.42744(12)
C15B C 0.1382(3) 0.85615(11) -0.49016(15)
C30B C 0.1778(3) 0.92800(11) -0.49364(16)
C26B C 0.2992(3) 0.93944(16) -0.54229(19)
H20B H 0.263(3) 0.9212(12) -0.6017(19)
H31B H 0.389(4) 0.9190(14) -0.5191(19)
H36B H 0.326(4) 0.9863(17) -0.545(2)
H25B H 0.075(3) 0.9535(12) -0.5202(16)
H34B H 0.216(3) 0.9474(13) -0.4290(19)
H21B H 0.250(3) 0.8440(12) -0.4836(17)
H37B H 0.081(3) 0.8420(12) -0.5477(18)
H12B H -0.045(2) 0.8704(10) -0.4345(13)
H17B H 0.002(2) 0.7975(11) -0.4402(13)
C18B C 0.06943(19) 0.96254(8) -0.30163(11)
C25B C 0.4413(2) 0.70796(9) -0.13444(13)
C21B C 0.5597(2) 0.69420(9) -0.06322(12)
H7B H 0.579(2) 0.6515(10) -0.0407(13)
H10B H 0.379(2) 0.6764(10) -0.1661(13)
C12B C 0.85349(19) 0.71481(8) 0.10252(12)
C3B C 0.94705(19) 0.74620(8) 0.17491(12)
C28B C 1.0611(2) 0.71263(10) 0.24511(13)
C24B C 1.0069(3) 0.70556(11) 0.32478(14)
C29B C 1.1287(3) 0.67894(11) 0.39940(16)
C27B C 1.1776(3) 0.60953(12) 0.3883(2)
H29B H 1.084(3) 0.5814(13) 0.3714(17)
H32B H 1.219(4) 0.6056(14) 0.343(2)
H33B H 1.250(3) 0.5929(13) 0.4385(19)
H22B H 1.081(3) 0.6793(11) 0.4469(18)
H26B H 1.216(3) 0.7096(13) 0.4100(17)
H15B H 0.918(3) 0.6774(11) 0.3114(15)
H24B H 0.967(3) 0.7468(12) 0.3399(16)
H8B H 1.087(2) 0.6698(11) 0.2267(14)
H11B H 1.156(2) 0.7359(10) 0.2567(13)
C14B C 0.8604(2) 0.64240(8) 0.08244(14)
C10B C 0.7530(2) 0.59793(9) 0.11593(15)
C23B C 0.7521(3) 0.52755(10) 0.08398(18)
C32B C 0.6373(4) 0.48315(13) 0.1099(2)
H28B H 0.660(3) 0.4815(13) 0.176(2)
H30B H 0.529(3) 0.5008(13) 0.0895(18)
H35B H 0.638(4) 0.4399(17) 0.087(2)
H18B H 0.861(3) 0.5078(11) 0.1032(15)
H27B H 0.731(2) 0.5275(10) 0.0251(16)
H9B H 0.650(2) 0.6164(9) 0.0977(13)
H13B H 0.779(2) 0.5981(9) 0.1747(15)
H3B H 0.967(2) 0.6267(9) 0.1051(12)
H4B H 0.838(2) 0.6365(9) 0.0228(14)
S1 S 0.73537(5) 1.11101(2) 1.19033(3)
S2 S 0.43809(5) 1.18115(2) 1.08336(3)
S3 S 0.21990(5) 1.16179(2) 0.91011(3)
C1 C 0.86592(19) 1.15526(8) 1.33828(11)
C2 C 0.36307(19) 1.25086(8) 1.02625(11)
C3 C 0.05295(19) 1.25380(8) 0.82509(12)
C4 C 0.76758(18) 1.20670(8) 1.29616(11)
C5 C 0.68932(19) 1.18984(8) 1.21612(11)
C6 C 0.08032(19) 1.18689(8) 0.82370(12)
C7 C 0.0328(2) 1.01892(8) 0.70665(12)
C8 C 0.0265(2) 1.13569(8) 0.76490(12)
C9 C 0.24504(19) 1.24146(8) 0.94934(11)
C10 C 0.2470(2) 1.40207(9) 0.88407(15)
C11 C 0.9573(2) 1.15869(10) 1.42744(12)
C12 C 0.14651(19) 1.28519(8) 0.89748(12)
C13 C 0.85916(19) 1.10016(8) 1.28782(11)
C14 C 0.1396(2) 1.35760(8) 0.91756(14)
C15 C 0.8618(3) 1.14385(11) 1.49016(15)
C16 C 0.57643(19) 1.22620(8) 1.15348(11)
C17 C 0.0167(2) 1.08260(9) 0.73106(12)
C18 C 0.93057(19) 1.03746(8) 1.30163(11)
C19 C 0.7537(2) 1.27348(8) 1.33397(13)
C20 C 0.8362(3) 1.39395(9) 1.33819(16)
C21 C 0.4403(2) 1.30580(9) 1.06322(12)
C22 C 0.8688(2) 1.32342(8) 1.31673(14)
C23 C 0.2479(3) 1.47245(10) 0.91602(18)
C24 C -0.0069(3) 1.29444(11) 0.67522(14)
C25 C 0.5587(2) 1.29204(9) 1.13444(13)
C26 C 0.7008(3) 1.06056(16) 1.54229(19)
C27 C -0.1776(3) 1.39047(12) 0.6117(2)
C28 C -0.0611(2) 1.28737(10) 0.75489(13)
C29 C -0.1287(3) 1.32106(11) 0.60060(16)
C30 C 0.8222(3) 1.07200(11) 1.49364(16)
C31 C 0.9408(3) 1.44334(11) 1.31181(19)
C32 C 0.3627(4) 1.51685(13) 0.8901(2)
H1 H 0.647(2) 1.2903(8) 1.3084(12)
H2 H 0.7673(19) 1.2698(8) 1.3926(13)
H3 H 0.033(2) 1.3733(9) 0.8949(12)
H4 H 0.162(2) 1.3635(9) 0.9772(14)
H5 H 0.865(2) 1.3223(8) 1.2561(13)
H6 H 0.971(2) 1.3103(9) 1.3498(13)
H7 H 0.421(2) 1.3485(10) 1.0407(13)
H8 H -0.087(2) 1.3302(11) 0.7733(14)
H9 H 0.350(2) 1.3836(9) 0.9023(13)
H10 H 0.621(2) 1.3236(10) 1.1661(13)
H11 H -0.156(2) 1.2641(10) 0.7433(13)
H12 H 1.045(2) 1.1296(10) 1.4345(13)
H13 H 0.221(2) 1.4019(9) 0.8253(15)
H14 H 0.845(3) 1.3979(10) 1.3978(16)
H15 H 0.082(3) 1.3226(11) 0.6886(15)
H16 H 0.728(3) 1.4043(10) 1.3098(14)
H17 H 0.998(2) 1.2025(11) 1.4402(13)
H18 H 0.139(3) 1.4922(11) 0.8968(15)
H19 H 1.051(3) 1.4344(12) 1.3420(17)
H20 H 0.737(3) 1.0788(12) 1.6017(19)
H21 H 0.750(3) 1.1560(12) 1.4836(17)
H22 H -0.081(3) 1.3207(11) 0.5531(18)
H23 H 0.934(3) 1.4401(11) 1.2520(17)
H24 H 0.033(3) 1.2532(12) 0.6601(16)
H25 H 0.925(3) 1.0465(12) 1.5202(16)
H26 H -0.216(3) 1.2904(13) 0.5900(17)
H27 H 0.269(2) 1.4725(10) 0.9749(16)
H28 H 0.340(3) 1.5185(13) 0.824(2)
H29 H -0.084(3) 1.4186(13) 0.6286(17)
H30 H 0.471(3) 1.4992(13) 0.9105(18)
H31 H 0.611(4) 1.0810(14) 1.5191(19)
H32 H -0.219(4) 1.3944(14) 0.657(2)
H33 H -0.250(3) 1.4071(13) 0.5615(19)
H34 H 0.784(3) 1.0526(13) 1.4290(19)
H35 H 0.362(4) 1.5601(17) 0.913(2)
H36 H 0.674(4) 1.0137(17) 1.545(2)
H37 H 0.919(3) 1.1580(12) 1.5477(18)
H38 H 0.919(3) 1.4890(13) 1.3228(17)
C7B C 0.9672(2) 0.98108(8) 1.29335(12)
C17B C 0.9833(2) 0.91740(9) 1.26894(12)
C8B C 0.9735(2) 0.86431(8) 1.23510(12)
C6B C 0.91968(19) 0.81311(8) 1.17630(12)
S3B S 0.78010(5) 0.83821(2) 1.08989(3)
C9B C 0.75496(19) 0.75854(8) 1.05066(11)
C2B C 0.63693(19) 0.74914(8) 0.97375(11)
S2B S 0.56191(5) 0.81885(2) 0.91664(3)
C16B C 0.42357(19) 0.77380(8) 0.84652(11)
C5B C 0.31068(19) 0.81016(8) 0.78388(11)
S1B S 0.26463(5) 0.88899(2) 0.80967(3)
C13B C 0.14084(19) 0.89984(8) 0.71218(11)
C1B C 0.13408(19) 0.84474(8) 0.66172(11)
C4B C 0.23242(18) 0.79330(8) 0.70384(11)
C19B C 0.2463(2) 0.72652(8) 0.66603(13)
C22B C 0.1312(2) 0.67658(8) 0.68327(14)
C20B C 0.1638(3) 0.60605(9) 0.66181(16)
C31B C 0.0592(3) 0.55666(11) 0.68819(19)
H19B H -0.051(3) 0.5656(12) 0.6580(17)
H23B H 0.066(3) 0.5599(11) 0.7480(17)
H38B H 0.081(3) 0.5110(13) 0.6772(17)
H14B H 0.155(3) 0.6021(10) 0.6022(16)
H16B H 0.272(3) 0.5957(10) 0.6902(14)
H5B H 0.135(2) 0.6777(8) 0.7439(13)
H6B H 0.029(2) 0.6897(9) 0.6502(13)
H1B H 0.353(2) 0.7097(8) 0.6916(12)
H2B H 0.2327(19) 0.7302(8) 0.6074(13)
C11B C 0.0427(2) 0.84131(10) 0.57256(12)
C15B C 0.1382(3) 0.85615(11) 0.50984(15)
C30B C 0.1778(3) 0.92800(11) 0.50636(16)
C26B C 0.2992(3) 0.93944(16) 0.45771(19)
H20B H 0.263(3) 0.9212(12) 0.3983(19)
H31B H 0.389(4) 0.9190(14) 0.4809(19)
H36B H 0.326(4) 0.9863(17) 0.455(2)
H25B H 0.075(3) 0.9535(12) 0.4798(16)
H34B H 0.216(3) 0.9474(13) 0.5710(19)
H21B H 0.250(3) 0.8440(12) 0.5164(17)
H37B H 0.081(3) 0.8420(12) 0.4523(18)
H12B H -0.045(2) 0.8704(10) 0.5655(13)
H17B H 0.002(2) 0.7975(11) 0.5598(13)
C18B C 0.06943(19) 0.96254(8) 0.69837(11)
C25B C 0.4413(2) 0.70796(9) 0.86556(13)
C21B C 0.5597(2) 0.69420(9) 0.93678(12)
H7B H 0.579(2) 0.6515(10) 0.9593(13)
H10B H 0.379(2) 0.6764(10) 0.8339(13)
C12B C 0.85349(19) 0.71481(8) 1.10252(12)
C3B C 0.94705(19) 0.74620(8) 1.17491(12)
C28B C 1.0611(2) 0.71263(10) 1.24511(13)
C24B C 1.0069(3) 0.70556(11) 1.32478(14)
C29B C 1.1287(3) 0.67894(11) 1.39940(16)
C27B C 1.1776(3) 0.60953(12) 1.3883(2)
H29B H 1.084(3) 0.5814(13) 1.3714(17)
H32B H 1.219(4) 0.6056(14) 1.343(2)
H33B H 1.250(3) 0.5929(13) 1.4385(19)
H22B H 1.081(3) 0.6793(11) 1.4469(18)
H26B H 1.216(3) 0.7096(13) 1.4100(17)
H15B H 0.918(3) 0.6774(11) 1.3114(15)
H24B H 0.967(3) 0.7468(12) 1.3399(16)
H8B H 1.087(2) 0.6698(11) 1.2267(14)
H11B H 1.156(2) 0.7359(10) 1.2567(13)
C14B C 0.8604(2) 0.64240(8) 1.08244(14)
C10B C 0.7530(2) 0.59793(9) 1.11593(15)
C23B C 0.7521(3) 0.52755(10) 1.08398(18)
C32B C 0.6373(4) 0.48315(13) 1.1099(2)
H28B H 0.660(3) 0.4815(13) 1.176(2)
H30B H 0.529(3) 0.5008(13) 1.0895(18)
H35B H 0.638(4) 0.4399(17) 1.087(2)
H18B H 0.861(3) 0.5078(11) 1.1032(15)
H27B H 0.731(2) 0.5275(10) 1.0251(16)
H9B H 0.650(2) 0.6164(9) 1.0977(13)
H13B H 0.779(2) 0.5981(9) 1.1747(15)
H3B H 0.967(2) 0.6267(9) 1.1051(12)
H4B H 0.838(2) 0.6365(9) 1.0228(14)

#END
