./LABBAU_from_xyz.cif_generated_by_CrystalShift
_symmetry_cell_setting triclinic
_symmetry_space_group_name_H-M 'P 1'
loop_
_symmetry_equiv_pos_site_id
_symmetry_equiv_pos_as_xyz
1 x,y,z
_cell_length_a 8.163900
_cell_length_b 5.987000
_cell_length_c 16.329200
_cell_angle_alpha 90.000000
_cell_angle_beta 104.181000
_cell_angle_gamma 90.000000
_cell_volume 773.805083
loop_
_atom_site_label
_atom_site_type_symbol
_atom_site_fract_x
_atom_site_fract_y
_atom_site_fract_z
Cl1 Cl 0.961810 0.456720 0.380210
Cl2 Cl 1.132960 0.872320 0.436800
Cl3 Cl 0.804510 0.877410 0.319910
C4 C 0.936300 0.738200 0.406120
H5 H 0.882000 0.744000 0.447900
Cl6 Cl 0.538190 -0.043280 0.119790
Cl7 Cl 0.367040 0.372320 0.063200
Cl8 Cl 0.695490 0.377410 0.180090
C9 C 0.563700 0.238200 0.093880
H10 H 0.618000 0.244000 0.052100
Cl11 Cl 0.038190 0.543280 0.619790
Cl12 Cl -0.132960 0.127680 0.563200
Cl13 Cl 0.195490 0.122590 0.680090
C14 C 0.063700 0.261800 0.593880
H15 H 0.118000 0.256000 0.552100
Cl16 Cl 0.461810 1.043280 0.880210
Cl17 Cl 0.632960 0.627680 0.936800
Cl18 Cl 0.304510 0.622590 0.819910
C19 C 0.436300 0.761800 0.906120
H20 H 0.382000 0.756000 0.947900
O21 O 0.624100 0.732600 0.501660
C22 C 0.614500 0.781900 0.671980
H23 H 0.567500 0.924900 0.648000
H24 H 0.735400 0.776700 0.673800
H25 H 0.599000 0.766800 0.729400
C26 C 0.525000 0.593200 0.617810
H27 H 0.568900 0.449700 0.644500
H28 H 0.403100 0.600600 0.616400
C29 C 0.544100 0.594700 0.529440
O30 O 0.375900 0.267400 0.498340
C31 C 0.385500 0.218100 0.328020
H32 H 0.432500 0.075100 0.352000
H33 H 0.264600 0.223300 0.326200
H34 H 0.401000 0.233200 0.270600
C35 C 0.475000 0.406800 0.382190
H36 H 0.431100 0.550300 0.355500
H37 H 0.596900 0.399400 0.383600
C38 C 0.455900 0.405300 0.470560
O39 O -0.124100 0.232600 -0.001660
C40 C -0.114500 0.281900 -0.171980
H41 H -0.067500 0.424900 -0.148000
H42 H -0.235400 0.276700 -0.173800
H43 H -0.099000 0.266800 -0.229400
C44 C -0.025000 0.093200 -0.117810
H45 H -0.068900 -0.050300 -0.144500
H46 H 0.096900 0.100600 -0.116400
C47 C -0.044100 0.094700 -0.029440
O48 O 0.124100 -0.232600 0.001660
C49 C 0.114500 -0.281900 0.171980
H50 H 0.067500 -0.424900 0.148000
H51 H 0.235400 -0.276700 0.173800
H52 H 0.099000 -0.266800 0.229400
C53 C 0.025000 -0.093200 0.117810
H54 H 0.068900 0.050300 0.144500
H55 H -0.096900 -0.100600 0.116400
C56 C 0.044100 -0.094700 0.029440
O57 O -0.124100 0.232600 0.998340
C58 C -0.114500 0.281900 0.828020
H59 H -0.067500 0.424900 0.852000
H60 H -0.235400 0.276700 0.826200
H61 H -0.099000 0.266800 0.770600
C62 C -0.025000 0.093200 0.882190
H63 H -0.068900 -0.050300 0.855500
H64 H 0.096900 0.100600 0.883600
C65 C -0.044100 0.094700 0.970560
O66 O 0.124100 -0.232600 1.001660
C67 C 0.114500 -0.281900 1.171980
H68 H 0.067500 -0.424900 1.148000
H69 H 0.235400 -0.276700 1.173800
H70 H 0.099000 -0.266800 1.229400
C71 C 0.025000 -0.093200 1.117810
H72 H 0.068900 0.050300 1.144500
H73 H -0.096900 -0.100600 1.116400
C74 C 0.044100 -0.094700 1.029440
O75 O -0.124100 1.232600 -0.001660
C76 C -0.114500 1.281900 -0.171980
H77 H -0.067500 1.424900 -0.148000
H78 H -0.235400 1.276700 -0.173800
H79 H -0.099000 1.266800 -0.229400
C80 C -0.025000 1.093200 -0.117810
H81 H -0.068900 0.949700 -0.144500
H82 H 0.096900 1.100600 -0.116400
C83 C -0.044100 1.094700 -0.029440
O84 O 0.124100 0.767400 0.001660
C85 C 0.114500 0.718100 0.171980
H86 H 0.067500 0.575100 0.148000
H87 H 0.235400 0.723300 0.173800
H88 H 0.099000 0.733200 0.229400
C89 C 0.025000 0.906800 0.117810
H90 H 0.068900 1.050300 0.144500
H91 H -0.096900 0.899400 0.116400
C92 C 0.044100 0.905300 0.029440
O93 O -0.124100 1.232600 0.998340
C94 C -0.114500 1.281900 0.828020
H95 H -0.067500 1.424900 0.852000
H96 H -0.235400 1.276700 0.826200
H97 H -0.099000 1.266800 0.770600
C98 C -0.025000 1.093200 0.882190
H99 H -0.068900 0.949700 0.855500
H100 H 0.096900 1.100600 0.883600
C101 C -0.044100 1.094700 0.970560
O102 O 0.124100 0.767400 1.001660
C103 C 0.114500 0.718100 1.171980
H104 H 0.067500 0.575100 1.148000
H105 H 0.235400 0.723300 1.173800
H106 H 0.099000 0.733200 1.229400
C107 C 0.025000 0.906800 1.117810
H108 H 0.068900 1.050300 1.144500
H109 H -0.096900 0.899400 1.116400
C110 C 0.044100 0.905300 1.029440
O111 O 0.875900 0.232600 -0.001660
C112 C 0.885500 0.281900 -0.171980
H113 H 0.932500 0.424900 -0.148000
H114 H 0.764600 0.276700 -0.173800
H115 H 0.901000 0.266800 -0.229400
C116 C 0.975000 0.093200 -0.117810
H117 H 0.931100 -0.050300 -0.144500
H118 H 1.096900 0.100600 -0.116400
C119 C 0.955900 0.094700 -0.029440
O120 O 1.124100 -0.232600 0.001660
C121 C 1.114500 -0.281900 0.171980
H122 H 1.067500 -0.424900 0.148000
H123 H 1.235400 -0.276700 0.173800
H124 H 1.099000 -0.266800 0.229400
C125 C 1.025000 -0.093200 0.117810
H126 H 1.068900 0.050300 0.144500
H127 H 0.903100 -0.100600 0.116400
C128 C 1.044100 -0.094700 0.029440
O129 O 0.875900 0.232600 0.998340
C130 C 0.885500 0.281900 0.828020
H131 H 0.932500 0.424900 0.852000
H132 H 0.764600 0.276700 0.826200
H133 H 0.901000 0.266800 0.770600
C134 C 0.975000 0.093200 0.882190
H135 H 0.931100 -0.050300 0.855500
H136 H 1.096900 0.100600 0.883600
C137 C 0.955900 0.094700 0.970560
O138 O 1.124100 -0.232600 1.001660
C139 C 1.114500 -0.281900 1.171980
H140 H 1.067500 -0.424900 1.148000
H141 H 1.235400 -0.276700 1.173800
H142 H 1.099000 -0.266800 1.229400
C143 C 1.025000 -0.093200 1.117810
H144 H 1.068900 0.050300 1.144500
H145 H 0.903100 -0.100600 1.116400
C146 C 1.044100 -0.094700 1.029440
O147 O 0.875900 1.232600 -0.001660
C148 C 0.885500 1.281900 -0.171980
H149 H 0.932500 1.424900 -0.148000
H150 H 0.764600 1.276700 -0.173800
H151 H 0.901000 1.266800 -0.229400
C152 C 0.975000 1.093200 -0.117810
H153 H 0.931100 0.949700 -0.144500
H154 H 1.096900 1.100600 -0.116400
C155 C 0.955900 1.094700 -0.029440
O156 O 1.124100 0.767400 0.001660
C157 C 1.114500 0.718100 0.171980
H158 H 1.067500 0.575100 0.148000
H159 H 1.235400 0.723300 0.173800
H160 H 1.099000 0.733200 0.229400
C161 C 1.025000 0.906800 0.117810
H162 H 1.068900 1.050300 0.144500
H163 H 0.903100 0.899400 0.116400
C164 C 1.044100 0.905300 0.029440
O165 O 0.875900 1.232600 0.998340
C166 C 0.885500 1.281900 0.828020
H167 H 0.932500 1.424900 0.852000
H168 H 0.764600 1.276700 0.826200
H169 H 0.901000 1.266800 0.770600
C170 C 0.975000 1.093200 0.882190
H171 H 0.931100 0.949700 0.855500
H172 H 1.096900 1.100600 0.883600
C173 C 0.955900 1.094700 0.970560
O174 O 1.124100 0.767400 1.001660
C175 C 1.114500 0.718100 1.171980
H176 H 1.067500 0.575100 1.148000
H177 H 1.235400 0.723300 1.173800
H178 H 1.099000 0.733200 1.229400
C179 C 1.025000 0.906800 1.117810
H180 H 1.068900 1.050300 1.144500
H181 H 0.903100 0.899400 1.116400
C182 C 1.044100 0.905300 1.029440

#END
