./LABDIE_from_xyz.cif_generated_by_CrystalShift
_symmetry_cell_setting triclinic
_symmetry_space_group_name_H-M 'P 1'
loop_
_symmetry_equiv_pos_site_id
_symmetry_equiv_pos_as_xyz
1 x,y,z
_cell_length_a 17.642800
_cell_length_b 8.791400
_cell_length_c 9.104300
_cell_angle_alpha 90.000000
_cell_angle_beta 96.955000
_cell_angle_gamma 90.000000
_cell_volume 1401.730706
loop_
_atom_site_label
_atom_site_type_symbol
_atom_site_fract_x
_atom_site_fract_y
_atom_site_fract_z
C1 C -0.088670 0.237000 -0.010800
H2 H -0.129500 0.294800 -0.060500
C3 C -0.081230 0.085000 -0.055100
H4 H -0.116100 0.042200 -0.131700
C5 C -0.022800 0.000600 0.014300
H6 H -0.016400 -0.102200 -0.013600
C7 C 0.028240 0.067060 0.128100
C8 C 0.090430 -0.013400 0.205100
H9 H 0.099600 -0.116000 0.179800
C10 C 0.137130 0.056200 0.315600
H11 H 0.178900 0.001900 0.366500
C12 C 0.123710 0.209200 0.354700
H13 H 0.156500 0.255700 0.432400
C14 C 0.064330 0.291480 0.282680
C15 C 0.015410 0.221220 0.166270
C16 C 0.047580 0.452820 0.328120
H17 H 0.025500 0.509900 0.239400
H18 H 0.008800 0.449700 0.398000
C19 C 0.161820 0.602330 0.314100
C20 C 0.226880 0.690280 0.392520
C21 C 0.284160 0.739900 0.310300
H22 H 0.282200 0.712200 0.209000
C23 C 0.343720 0.829100 0.375400
H24 H 0.382600 0.861500 0.319000
C25 C 0.346690 0.871300 0.523000
H26 H 0.387500 0.932600 0.567600
C27 C 0.289660 0.823300 0.605200
H28 H 0.291300 0.852600 0.706000
C29 C 0.230250 0.732700 0.540660
H30 H 0.191700 0.699500 0.597700
N31 N -0.043280 0.305030 0.094340
N32 N 0.114030 0.533990 0.397060
O33 O 0.151550 0.597910 0.176830
H34 H 0.126800 0.524000 0.490000
C35 C -0.088670 0.763000 0.489200
H36 H -0.129500 0.705200 0.439500
C37 C -0.081230 0.915000 0.444900
H38 H -0.116100 0.957800 0.368300
C39 C -0.022800 0.999400 0.514300
H40 H -0.016400 1.102200 0.486400
C41 C 0.028240 0.932940 0.628100
C42 C 0.090430 1.013400 0.705100
H43 H 0.099600 1.116000 0.679800
C44 C 0.137130 0.943800 0.815600
H45 H 0.178900 0.998100 0.866500
C46 C 0.123710 0.790800 0.854700
H47 H 0.156500 0.744300 0.932400
C48 C 0.064330 0.708520 0.782680
C49 C 0.015410 0.778780 0.666270
C50 C 0.047580 0.547180 0.828120
H51 H 0.025500 0.490100 0.739400
H52 H 0.008800 0.550300 0.898000
C53 C 0.161820 0.397670 0.814100
C54 C 0.226880 0.309720 0.892520
C55 C 0.284160 0.260100 0.810300
H56 H 0.282200 0.287800 0.709000
C57 C 0.343720 0.170900 0.875400
H58 H 0.382600 0.138500 0.819000
C59 C 0.346690 0.128700 1.023000
H60 H 0.387500 0.067400 1.067600
C61 C 0.289660 0.176700 1.105200
H62 H 0.291300 0.147400 1.206000
C63 C 0.230250 0.267300 1.040660
H64 H 0.191700 0.300500 1.097700
N65 N -0.043280 0.694970 0.594340
N66 N 0.114030 0.466010 0.897060
O67 O 0.151550 0.402090 0.676830
H68 H 0.126800 0.476000 0.990000
C69 C 0.411330 0.737000 -0.010800
H70 H 0.370500 0.794800 -0.060500
C71 C 0.418770 0.585000 -0.055100
H72 H 0.383900 0.542200 -0.131700
C73 C 0.477200 0.500600 0.014300
H74 H 0.483600 0.397800 -0.013600
C75 C 0.528240 0.567060 0.128100
C76 C 0.590430 0.486600 0.205100
H77 H 0.599600 0.384000 0.179800
C78 C 0.637130 0.556200 0.315600
H79 H 0.678900 0.501900 0.366500
C80 C 0.623710 0.709200 0.354700
H81 H 0.656500 0.755700 0.432400
C82 C 0.564330 0.791480 0.282680
C83 C 0.515410 0.721220 0.166270
C84 C 0.547580 0.952820 0.328120
H85 H 0.525500 1.009900 0.239400
H86 H 0.508800 0.949700 0.398000
C87 C 0.661820 1.102330 0.314100
C88 C 0.726880 1.190280 0.392520
C89 C 0.784160 1.239900 0.310300
H90 H 0.782200 1.212200 0.209000
C91 C 0.843720 1.329100 0.375400
H92 H 0.882600 1.361500 0.319000
C93 C 0.846690 1.371300 0.523000
H94 H 0.887500 1.432600 0.567600
C95 C 0.789660 1.323300 0.605200
H96 H 0.791300 1.352600 0.706000
C97 C 0.730250 1.232700 0.540660
H98 H 0.691700 1.199500 0.597700
N99 N 0.456720 0.805030 0.094340
N100 N 0.614030 1.033990 0.397060
O101 O 0.651550 1.097910 0.176830
H102 H 0.626800 1.024000 0.490000
C103 C 0.411330 0.263000 0.489200
H104 H 0.370500 0.205200 0.439500
C105 C 0.418770 0.415000 0.444900
H106 H 0.383900 0.457800 0.368300
C107 C 0.477200 0.499400 0.514300
H108 H 0.483600 0.602200 0.486400
C109 C 0.528240 0.432940 0.628100
C110 C 0.590430 0.513400 0.705100
H111 H 0.599600 0.616000 0.679800
C112 C 0.637130 0.443800 0.815600
H113 H 0.678900 0.498100 0.866500
C114 C 0.623710 0.290800 0.854700
H115 H 0.656500 0.244300 0.932400
C116 C 0.564330 0.208520 0.782680
C117 C 0.515410 0.278780 0.666270
C118 C 0.547580 0.047180 0.828120
H119 H 0.525500 -0.009900 0.739400
H120 H 0.508800 0.050300 0.898000
C121 C 0.661820 -0.102330 0.814100
C122 C 0.726880 -0.190280 0.892520
C123 C 0.784160 -0.239900 0.810300
H124 H 0.782200 -0.212200 0.709000
C125 C 0.843720 -0.329100 0.875400
H126 H 0.882600 -0.361500 0.819000
C127 C 0.846690 -0.371300 1.023000
H128 H 0.887500 -0.432600 1.067600
C129 C 0.789660 -0.323300 1.105200
H130 H 0.791300 -0.352600 1.206000
C131 C 0.730250 -0.232700 1.040660
H132 H 0.691700 -0.199500 1.097700
N133 N 0.456720 0.194970 0.594340
N134 N 0.614030 -0.033990 0.897060
O135 O 0.651550 -0.097910 0.676830
H136 H 0.626800 -0.024000 0.990000

#END
