./LABFOM_from_xyz.cif_generated_by_CrystalShift
_symmetry_cell_setting triclinic
_symmetry_space_group_name_H-M 'P 1'
loop_
_symmetry_equiv_pos_site_id
_symmetry_equiv_pos_as_xyz
1 x,y,z
_cell_length_a 6.460100
_cell_length_b 10.559700
_cell_length_c 29.350500
_cell_angle_alpha 90.000000
_cell_angle_beta 90.000000
_cell_angle_gamma 90.000000
_cell_volume 2002.194781
loop_
_atom_site_label
_atom_site_type_symbol
_atom_site_fract_x
_atom_site_fract_y
_atom_site_fract_z
C1 C 0.674500 0.220200 0.856090
H2 H 0.532200 0.212100 0.844900
C3 C 0.763300 0.089500 0.859870
C4 C 0.942900 0.039800 0.843500
H5 H 1.042200 0.082600 0.826500
C6 C 1.089600 -0.190100 0.853070
H7 H 1.213000 -0.180900 0.837100
C8 C 1.036800 -0.303200 0.873600
H9 H 1.124600 -0.372700 0.871300
C10 C 0.852200 -0.313200 0.897600
H11 H 0.822000 -0.390700 0.911000
C12 C 0.951300 -0.091100 0.857330
C13 C 0.769600 -0.112400 0.882250
C14 C 0.751500 0.640600 1.022430
H15 H 0.754500 0.696900 1.048100
H16 H 0.667300 0.676600 0.998800
H17 H 0.889700 0.628300 1.011300
C18 C 0.665400 0.285800 0.902050
C19 C 0.494700 0.358500 0.914150
H20 H 0.381300 0.363300 0.894700
C21 C 0.492500 0.423900 0.955040
C22 C 0.654900 0.414600 0.984850
C23 C 0.824600 0.340800 0.973700
H24 H 0.933300 0.332200 0.994200
C25 C 0.832400 0.280000 0.932020
H26 H 0.950300 0.234800 0.923900
C27 C 0.796000 0.298700 0.821210
H28 H 0.936300 0.309300 0.832300
H29 H 0.803600 0.251100 0.793000
C30 C 0.707200 0.429000 0.810790
H31 H 0.699600 0.476600 0.839400
C32 C 0.491900 0.428900 0.789200
H33 H 0.477700 0.359000 0.768000
H34 H 0.385700 0.421400 0.812400
C35 C 0.474000 0.555100 0.764500
H36 H 0.413100 0.543300 0.734600
H37 H 0.388400 0.613300 0.781700
C38 C 0.688000 0.605200 0.760300
H39 H 0.703000 0.681700 0.778200
H40 H 0.718200 0.625200 0.728700
C41 C 0.832200 0.506100 0.777100
H42 H 0.951200 0.544200 0.791800
H43 H 0.879900 0.453300 0.752100
N44 N 0.659500 -0.002900 0.883380
H45 H 0.542200 0.006900 0.896800
N46 N 0.716800 -0.221100 0.902710
O47 O 0.806600 0.427200 1.067690
S48 S 0.644900 0.491060 1.039530
Cl49 Cl 0.279600 0.517440 0.968170
C50 C 0.825500 0.779800 0.356090
H51 H 0.967800 0.787900 0.344900
C52 C 0.736700 0.910500 0.359870
C53 C 0.557100 0.960200 0.343500
H54 H 0.457800 0.917400 0.326500
C55 C 0.410400 1.190100 0.353070
H56 H 0.287000 1.180900 0.337100
C57 C 0.463200 1.303200 0.373600
H58 H 0.375400 1.372700 0.371300
C59 C 0.647800 1.313200 0.397600
H60 H 0.678000 1.390700 0.411000
C61 C 0.548700 1.091100 0.357330
C62 C 0.730400 1.112400 0.382250
C63 C 0.748500 0.359400 0.522430
H64 H 0.745500 0.303100 0.548100
H65 H 0.832700 0.323400 0.498800
H66 H 0.610300 0.371700 0.511300
C67 C 0.834600 0.714200 0.402050
C68 C 1.005300 0.641500 0.414150
H69 H 1.118700 0.636700 0.394700
C70 C 1.007500 0.576100 0.455040
C71 C 0.845100 0.585400 0.484850
C72 C 0.675400 0.659200 0.473700
H73 H 0.566700 0.667800 0.494200
C74 C 0.667600 0.720000 0.432020
H75 H 0.549700 0.765200 0.423900
C76 C 0.704000 0.701300 0.321210
H77 H 0.563700 0.690700 0.332300
H78 H 0.696400 0.748900 0.293000
C79 C 0.792800 0.571000 0.310790
H80 H 0.800400 0.523400 0.339400
C81 C 1.008100 0.571100 0.289200
H82 H 1.022300 0.641000 0.268000
H83 H 1.114300 0.578600 0.312400
C84 C 1.026000 0.444900 0.264500
H85 H 1.086900 0.456700 0.234600
H86 H 1.111600 0.386700 0.281700
C87 C 0.812000 0.394800 0.260300
H88 H 0.797000 0.318300 0.278200
H89 H 0.781800 0.374800 0.228700
C90 C 0.667800 0.493900 0.277100
H91 H 0.548800 0.455800 0.291800
H92 H 0.620100 0.546700 0.252100
N93 N 0.840500 1.002900 0.383380
H94 H 0.957800 0.993100 0.396800
N95 N 0.783200 1.221100 0.402710
O96 O 0.693400 0.572800 0.567690
S97 S 0.855100 0.508940 0.539530
Cl98 Cl 1.220400 0.482560 0.468170
C99 C 0.174500 0.279800 0.143910
H100 H 0.032200 0.287900 0.155100
C101 C 0.263300 0.410500 0.140130
C102 C 0.442900 0.460200 0.156500
H103 H 0.542200 0.417400 0.173500
C104 C 0.589600 0.690100 0.146930
H105 H 0.713000 0.680900 0.162900
C106 C 0.536800 0.803200 0.126400
H107 H 0.624600 0.872700 0.128700
C108 C 0.352200 0.813200 0.102400
H109 H 0.322000 0.890700 0.089000
C110 C 0.451300 0.591100 0.142670
C111 C 0.269600 0.612400 0.117750
C112 C 0.251500 -0.140600 -0.022430
H113 H 0.254500 -0.196900 -0.048100
H114 H 0.167300 -0.176600 0.001200
H115 H 0.389700 -0.128300 -0.011300
C116 C 0.165400 0.214200 0.097950
C117 C -0.005300 0.141500 0.085850
H118 H -0.118700 0.136700 0.105300
C119 C -0.007500 0.076100 0.044960
C120 C 0.154900 0.085400 0.015150
C121 C 0.324600 0.159200 0.026300
H122 H 0.433300 0.167800 0.005800
C123 C 0.332400 0.220000 0.067980
H124 H 0.450300 0.265200 0.076100
C125 C 0.296000 0.201300 0.178790
H126 H 0.436300 0.190700 0.167700
H127 H 0.303600 0.248900 0.207000
C128 C 0.207200 0.071000 0.189210
H129 H 0.199600 0.023400 0.160600
C130 C -0.008100 0.071100 0.210800
H131 H -0.022300 0.141000 0.232000
H132 H -0.114300 0.078600 0.187600
C133 C -0.026000 -0.055100 0.235500
H134 H -0.086900 -0.043300 0.265400
H135 H -0.111600 -0.113300 0.218300
C136 C 0.188000 -0.105200 0.239700
H137 H 0.203000 -0.181700 0.221800
H138 H 0.218200 -0.125200 0.271300
C139 C 0.332200 -0.006100 0.222900
H140 H 0.451200 -0.044200 0.208200
H141 H 0.379900 0.046700 0.247900
N142 N 0.159500 0.502900 0.116620
H143 H 0.042200 0.493100 0.103200
N144 N 0.216800 0.721100 0.097290
O145 O 0.306600 0.072800 -0.067690
S146 S 0.144900 0.008940 -0.039530
Cl147 Cl -0.220400 -0.017440 0.031830
C148 C 0.325500 0.720200 0.643910
H149 H 0.467800 0.712100 0.655100
C150 C 0.236700 0.589500 0.640130
C151 C 0.057100 0.539800 0.656500
H152 H -0.042200 0.582600 0.673500
C153 C -0.089600 0.309900 0.646930
H154 H -0.213000 0.319100 0.662900
C155 C -0.036800 0.196800 0.626400
H156 H -0.124600 0.127300 0.628700
C157 C 0.147800 0.186800 0.602400
H158 H 0.178000 0.109300 0.589000
C159 C 0.048700 0.408900 0.642670
C160 C 0.230400 0.387600 0.617750
C161 C 0.248500 1.140600 0.477570
H162 H 0.245500 1.196900 0.451900
H163 H 0.332700 1.176600 0.501200
H164 H 0.110300 1.128300 0.488700
C165 C 0.334600 0.785800 0.597950
C166 C 0.505300 0.858500 0.585850
H167 H 0.618700 0.863300 0.605300
C168 C 0.507500 0.923900 0.544960
C169 C 0.345100 0.914600 0.515150
C170 C 0.175400 0.840800 0.526300
H171 H 0.066700 0.832200 0.505800
C172 C 0.167600 0.780000 0.567980
H173 H 0.049700 0.734800 0.576100
C174 C 0.204000 0.798700 0.678790
H175 H 0.063700 0.809300 0.667700
H176 H 0.196400 0.751100 0.707000
C177 C 0.292800 0.929000 0.689210
H178 H 0.300400 0.976600 0.660600
C179 C 0.508100 0.928900 0.710800
H180 H 0.522300 0.859000 0.732000
H181 H 0.614300 0.921400 0.687600
C182 C 0.526000 1.055100 0.735500
H183 H 0.586900 1.043300 0.765400
H184 H 0.611600 1.113300 0.718300
C185 C 0.312000 1.105200 0.739700
H186 H 0.297000 1.181700 0.721800
H187 H 0.281800 1.125200 0.771300
C188 C 0.167800 1.006100 0.722900
H189 H 0.048800 1.044200 0.708200
H190 H 0.120100 0.953300 0.747900
N191 N 0.340500 0.497100 0.616620
H192 H 0.457800 0.506900 0.603200
N193 N 0.283200 0.278900 0.597290
O194 O 0.193400 0.927200 0.432310
S195 S 0.355100 0.991060 0.460470
Cl196 Cl 0.720400 1.017440 0.531830

#END
