./LABLOP_from_xyz.cif_generated_by_CrystalShift
_symmetry_cell_setting triclinic
_symmetry_space_group_name_H-M 'P 1'
loop_
_symmetry_equiv_pos_site_id
_symmetry_equiv_pos_as_xyz
1 x,y,z
_cell_length_a 6.962000
_cell_length_b 13.754000
_cell_length_c 22.974000
_cell_angle_alpha 90.000000
_cell_angle_beta 90.000000
_cell_angle_gamma 90.000000
_cell_volume 2199.883365
loop_
_atom_site_label
_atom_site_type_symbol
_atom_site_fract_x
_atom_site_fract_y
_atom_site_fract_z
N1 N 0.035200 0.742900 0.300800
C2 C 0.009500 0.783400 0.245700
N3 N 0.052300 0.726300 0.203200
C4 C 0.108600 0.642500 0.230900
C5 C 0.101200 0.650500 0.291600
C6 C -0.011000 0.794500 0.354500
N7 N 0.162700 0.560200 0.200500
O8 O 0.155300 0.559200 0.146500
O9 O 0.222100 0.487600 0.229200
N10 N 0.144000 0.583000 0.331200
C11 C 0.139300 0.589400 0.393900
C12 C 0.145400 0.490700 0.422100
C13 C 0.039300 0.414100 0.401700
C14 C 0.040800 0.325200 0.430000
C15 C 0.146400 0.314400 0.480300
C16 C 0.250300 0.390300 0.501300
C17 C 0.251400 0.478300 0.472600
H18 H -0.121000 0.760000 0.376000
H19 H 0.091000 0.791000 0.382000
H20 H -0.061000 0.856000 0.346000
H21 H -0.039000 0.850000 0.245000
H22 H 0.189000 0.531000 0.316000
H23 H 0.240000 0.629000 0.406000
H24 H 0.014000 0.616000 0.405000
H25 H -0.026000 0.420000 0.368000
H26 H -0.040000 0.274000 0.417000
H27 H 0.148000 0.249000 0.501000
H28 H 0.326000 0.386000 0.533000
H29 H 0.325000 0.531000 0.486000
N30 N 0.464800 0.242900 0.300800
C31 C 0.490500 0.283400 0.245700
N32 N 0.447700 0.226300 0.203200
C33 C 0.391400 0.142500 0.230900
C34 C 0.398800 0.150500 0.291600
C35 C 0.511000 0.294500 0.354500
N36 N 0.337300 0.060200 0.200500
O37 O 0.344700 0.059200 0.146500
O38 O 0.277900 -0.012400 0.229200
N39 N 0.356000 0.083000 0.331200
C40 C 0.360700 0.089400 0.393900
C41 C 0.354600 -0.009300 0.422100
C42 C 0.460700 -0.085900 0.401700
C43 C 0.459200 -0.174800 0.430000
C44 C 0.353600 -0.185600 0.480300
C45 C 0.249700 -0.109700 0.501300
C46 C 0.248600 -0.021700 0.472600
H47 H 0.621000 0.260000 0.376000
H48 H 0.409000 0.291000 0.382000
H49 H 0.561000 0.356000 0.346000
H50 H 0.539000 0.350000 0.245000
H51 H 0.311000 0.031000 0.316000
H52 H 0.260000 0.129000 0.406000
H53 H 0.486000 0.116000 0.405000
H54 H 0.526000 -0.080000 0.368000
H55 H 0.540000 -0.226000 0.417000
H56 H 0.352000 -0.251000 0.501000
H57 H 0.174000 -0.114000 0.533000
H58 H 0.175000 0.031000 0.486000
N59 N 0.035200 0.757100 0.800800
C60 C 0.009500 0.716600 0.745700
N61 N 0.052300 0.773700 0.703200
C62 C 0.108600 0.857500 0.730900
C63 C 0.101200 0.849500 0.791600
C64 C -0.011000 0.705500 0.854500
N65 N 0.162700 0.939800 0.700500
O66 O 0.155300 0.940800 0.646500
O67 O 0.222100 1.012400 0.729200
N68 N 0.144000 0.917000 0.831200
C69 C 0.139300 0.910600 0.893900
C70 C 0.145400 1.009300 0.922100
C71 C 0.039300 1.085900 0.901700
C72 C 0.040800 1.174800 0.930000
C73 C 0.146400 1.185600 0.980300
C74 C 0.250300 1.109700 1.001300
C75 C 0.251400 1.021700 0.972600
H76 H -0.121000 0.740000 0.876000
H77 H 0.091000 0.709000 0.882000
H78 H -0.061000 0.644000 0.846000
H79 H -0.039000 0.650000 0.745000
H80 H 0.189000 0.969000 0.816000
H81 H 0.240000 0.871000 0.906000
H82 H 0.014000 0.884000 0.905000
H83 H -0.026000 1.080000 0.868000
H84 H -0.040000 1.226000 0.917000
H85 H 0.148000 1.251000 1.001000
H86 H 0.326000 1.114000 1.033000
H87 H 0.325000 0.969000 0.986000
N88 N 0.464800 0.257100 0.800800
C89 C 0.490500 0.216600 0.745700
N90 N 0.447700 0.273700 0.703200
C91 C 0.391400 0.357500 0.730900
C92 C 0.398800 0.349500 0.791600
C93 C 0.511000 0.205500 0.854500
N94 N 0.337300 0.439800 0.700500
O95 O 0.344700 0.440800 0.646500
O96 O 0.277900 0.512400 0.729200
N97 N 0.356000 0.417000 0.831200
C98 C 0.360700 0.410600 0.893900
C99 C 0.354600 0.509300 0.922100
C100 C 0.460700 0.585900 0.901700
C101 C 0.459200 0.674800 0.930000
C102 C 0.353600 0.685600 0.980300
C103 C 0.249700 0.609700 1.001300
C104 C 0.248600 0.521700 0.972600
H105 H 0.621000 0.240000 0.876000
H106 H 0.409000 0.209000 0.882000
H107 H 0.561000 0.144000 0.846000
H108 H 0.539000 0.150000 0.745000
H109 H 0.311000 0.469000 0.816000
H110 H 0.260000 0.371000 0.906000
H111 H 0.486000 0.384000 0.905000
H112 H 0.526000 0.580000 0.868000
H113 H 0.540000 0.726000 0.917000
H114 H 0.352000 0.751000 1.001000
H115 H 0.174000 0.614000 1.033000
H116 H 0.175000 0.469000 0.986000
N117 N 0.964800 0.257100 0.699200
C118 C 0.990500 0.216600 0.754300
N119 N 0.947700 0.273700 0.796800
C120 C 0.891400 0.357500 0.769100
C121 C 0.898800 0.349500 0.708400
C122 C 1.011000 0.205500 0.645500
N123 N 0.837300 0.439800 0.799500
O124 O 0.844700 0.440800 0.853500
O125 O 0.777900 0.512400 0.770800
N126 N 0.856000 0.417000 0.668800
C127 C 0.860700 0.410600 0.606100
C128 C 0.854600 0.509300 0.577900
C129 C 0.960700 0.585900 0.598300
C130 C 0.959200 0.674800 0.570000
C131 C 0.853600 0.685600 0.519700
C132 C 0.749700 0.609700 0.498700
C133 C 0.748600 0.521700 0.527400
H134 H 1.121000 0.240000 0.624000
H135 H 0.909000 0.209000 0.618000
H136 H 1.061000 0.144000 0.654000
H137 H 1.039000 0.150000 0.755000
H138 H 0.811000 0.469000 0.684000
H139 H 0.760000 0.371000 0.594000
H140 H 0.986000 0.384000 0.595000
H141 H 1.026000 0.580000 0.632000
H142 H 1.040000 0.726000 0.583000
H143 H 0.852000 0.751000 0.499000
H144 H 0.674000 0.614000 0.467000
H145 H 0.675000 0.469000 0.514000
N146 N 0.535200 0.757100 0.699200
C147 C 0.509500 0.716600 0.754300
N148 N 0.552300 0.773700 0.796800
C149 C 0.608600 0.857500 0.769100
C150 C 0.601200 0.849500 0.708400
C151 C 0.489000 0.705500 0.645500
N152 N 0.662700 0.939800 0.799500
O153 O 0.655300 0.940800 0.853500
O154 O 0.722100 1.012400 0.770800
N155 N 0.644000 0.917000 0.668800
C156 C 0.639300 0.910600 0.606100
C157 C 0.645400 1.009300 0.577900
C158 C 0.539300 1.085900 0.598300
C159 C 0.540800 1.174800 0.570000
C160 C 0.646400 1.185600 0.519700
C161 C 0.750300 1.109700 0.498700
C162 C 0.751400 1.021700 0.527400
H163 H 0.379000 0.740000 0.624000
H164 H 0.591000 0.709000 0.618000
H165 H 0.439000 0.644000 0.654000
H166 H 0.461000 0.650000 0.755000
H167 H 0.689000 0.969000 0.684000
H168 H 0.740000 0.871000 0.594000
H169 H 0.514000 0.884000 0.595000
H170 H 0.474000 1.080000 0.632000
H171 H 0.460000 1.226000 0.583000
H172 H 0.648000 1.251000 0.499000
H173 H 0.826000 1.114000 0.467000
H174 H 0.825000 0.969000 0.514000
N175 N 0.964800 0.242900 0.199200
C176 C 0.990500 0.283400 0.254300
N177 N 0.947700 0.226300 0.296800
C178 C 0.891400 0.142500 0.269100
C179 C 0.898800 0.150500 0.208400
C180 C 1.011000 0.294500 0.145500
N181 N 0.837300 0.060200 0.299500
O182 O 0.844700 0.059200 0.353500
O183 O 0.777900 -0.012400 0.270800
N184 N 0.856000 0.083000 0.168800
C185 C 0.860700 0.089400 0.106100
C186 C 0.854600 -0.009300 0.077900
C187 C 0.960700 -0.085900 0.098300
C188 C 0.959200 -0.174800 0.070000
C189 C 0.853600 -0.185600 0.019700
C190 C 0.749700 -0.109700 -0.001300
C191 C 0.748600 -0.021700 0.027400
H192 H 1.121000 0.260000 0.124000
H193 H 0.909000 0.291000 0.118000
H194 H 1.061000 0.356000 0.154000
H195 H 1.039000 0.350000 0.255000
H196 H 0.811000 0.031000 0.184000
H197 H 0.760000 0.129000 0.094000
H198 H 0.986000 0.116000 0.095000
H199 H 1.026000 -0.080000 0.132000
H200 H 1.040000 -0.226000 0.083000
H201 H 0.852000 -0.251000 -0.001000
H202 H 0.674000 -0.114000 -0.033000
H203 H 0.675000 0.031000 0.014000
N204 N 0.535200 0.742900 0.199200
C205 C 0.509500 0.783400 0.254300
N206 N 0.552300 0.726300 0.296800
C207 C 0.608600 0.642500 0.269100
C208 C 0.601200 0.650500 0.208400
C209 C 0.489000 0.794500 0.145500
N210 N 0.662700 0.560200 0.299500
O211 O 0.655300 0.559200 0.353500
O212 O 0.722100 0.487600 0.270800
N213 N 0.644000 0.583000 0.168800
C214 C 0.639300 0.589400 0.106100
C215 C 0.645400 0.490700 0.077900
C216 C 0.539300 0.414100 0.098300
C217 C 0.540800 0.325200 0.070000
C218 C 0.646400 0.314400 0.019700
C219 C 0.750300 0.390300 -0.001300
C220 C 0.751400 0.478300 0.027400
H221 H 0.379000 0.760000 0.124000
H222 H 0.591000 0.791000 0.118000
H223 H 0.439000 0.856000 0.154000
H224 H 0.461000 0.850000 0.255000
H225 H 0.689000 0.531000 0.184000
H226 H 0.740000 0.629000 0.094000
H227 H 0.514000 0.616000 0.095000
H228 H 0.474000 0.420000 0.132000
H229 H 0.460000 0.274000 0.083000
H230 H 0.648000 0.249000 -0.001000
H231 H 0.826000 0.386000 -0.033000
H232 H 0.825000 0.531000 0.014000

#END
