./LABSIT_from_xyz.cif_generated_by_CrystalShift
_symmetry_cell_setting triclinic
_symmetry_space_group_name_H-M 'P 1'
loop_
_symmetry_equiv_pos_site_id
_symmetry_equiv_pos_as_xyz
1 x,y,z
_cell_length_a 14.381000
_cell_length_b 8.021300
_cell_length_c 14.732000
_cell_angle_alpha 90.000000
_cell_angle_beta 116.182000
_cell_angle_gamma 90.000000
_cell_volume 1525.036304
loop_
_atom_site_label
_atom_site_type_symbol
_atom_site_fract_x
_atom_site_fract_y
_atom_site_fract_z
O1 O 0.846920 0.263130 1.114030
H2 H 0.836800 0.354800 1.137100
C3 C 0.893370 0.192100 0.917830
H4 H 0.954300 0.254100 0.967000
H5 H 0.911800 0.144300 0.866000
C6 C 0.867220 0.045100 0.974760
H7 H 0.863300 -0.060900 0.938800
H8 H 0.924000 0.034800 1.044000
C9 C 0.766200 0.072330 0.981040
C10 C 0.756520 0.199520 1.039930
C11 C 0.661360 0.270600 1.016650
H12 H 0.656700 0.359200 1.057200
C13 C 0.571960 0.214900 0.934800
C14 C 0.576740 0.063720 0.889420
C15 C 0.674680 -0.003050 0.913170
H16 H 0.678900 -0.104200 0.881600
C17 C 0.483990 0.338300 0.885390
H18 H 0.465900 0.385400 0.937700
H19 H 0.422300 0.278700 0.835500
C20 C 0.511530 0.485600 0.830300
H21 H 0.455000 0.497800 0.761000
H22 H 0.515800 0.590800 0.867100
C23 C 0.612250 0.459100 0.823960
C24 C 0.704230 0.530400 0.893800
H25 H 0.702000 0.630300 0.927400
C26 C 0.799160 0.457900 0.915130
H27 H 0.861200 0.508800 0.962700
C28 C 0.804090 0.311700 0.867540
C29 C 0.714720 0.261500 0.783330
H30 H 0.718800 0.176400 0.740400
C31 C 0.620250 0.334700 0.761990
H32 H 0.560000 0.299700 0.704200
C33 C 0.483280 -0.019410 0.811590
C34 C 0.483990 -0.093400 0.726230
H35 H 0.544600 -0.086800 0.715900
C36 C 0.397320 -0.176600 0.656100
H37 H 0.399300 -0.227800 0.598800
C38 C 0.307850 -0.185000 0.669540
H39 H 0.248400 -0.241000 0.621300
C40 C 0.305620 -0.111800 0.753290
H41 H 0.244200 -0.116200 0.762300
C42 C 0.393050 -0.031600 0.824410
H43 H 0.391400 0.015800 0.882800
O44 O 0.653080 0.763130 0.385970
H45 H 0.663200 0.854800 0.362900
C46 C 0.606630 0.692100 0.582170
H47 H 0.545700 0.754100 0.533000
H48 H 0.588200 0.644300 0.634000
C49 C 0.632780 0.545100 0.525240
H50 H 0.636700 0.439100 0.561200
H51 H 0.576000 0.534800 0.456000
C52 C 0.733800 0.572330 0.518960
C53 C 0.743480 0.699520 0.460070
C54 C 0.838640 0.770600 0.483350
H55 H 0.843300 0.859200 0.442800
C56 C 0.928040 0.714900 0.565200
C57 C 0.923260 0.563720 0.610580
C58 C 0.825320 0.496950 0.586830
H59 H 0.821100 0.395800 0.618400
C60 C 1.016010 0.838300 0.614610
H61 H 1.034100 0.885400 0.562300
H62 H 1.077700 0.778700 0.664500
C63 C 0.988470 0.985600 0.669700
H64 H 1.045000 0.997800 0.739000
H65 H 0.984200 1.090800 0.632900
C66 C 0.887750 0.959100 0.676040
C67 C 0.795770 1.030400 0.606200
H68 H 0.798000 1.130300 0.572600
C69 C 0.700840 0.957900 0.584870
H70 H 0.638800 1.008800 0.537300
C71 C 0.695910 0.811700 0.632460
C72 C 0.785280 0.761500 0.716670
H73 H 0.781200 0.676400 0.759600
C74 C 0.879750 0.834700 0.738010
H75 H 0.940000 0.799700 0.795800
C76 C 1.016720 0.480590 0.688410
C77 C 1.016010 0.406600 0.773770
H78 H 0.955400 0.413200 0.784100
C79 C 1.102680 0.323400 0.843900
H80 H 1.100700 0.272200 0.901200
C81 C 1.192150 0.315000 0.830460
H82 H 1.251600 0.259000 0.878700
C83 C 1.194380 0.388200 0.746710
H84 H 1.255800 0.383800 0.737700
C85 C 1.106950 0.468400 0.675590
H86 H 1.108600 0.515800 0.617200
O87 O 0.153080 0.736870 -0.114030
H88 H 0.163200 0.645200 -0.137100
C89 C 0.106630 0.807900 0.082170
H90 H 0.045700 0.745900 0.033000
H91 H 0.088200 0.855700 0.134000
C92 C 0.132780 0.954900 0.025240
H93 H 0.136700 1.060900 0.061200
H94 H 0.076000 0.965200 -0.044000
C95 C 0.233800 0.927670 0.018960
C96 C 0.243480 0.800480 -0.039930
C97 C 0.338640 0.729400 -0.016650
H98 H 0.343300 0.640800 -0.057200
C99 C 0.428040 0.785100 0.065200
C100 C 0.423260 0.936280 0.110580
C101 C 0.325320 1.003050 0.086830
H102 H 0.321100 1.104200 0.118400
C103 C 0.516010 0.661700 0.114610
H104 H 0.534100 0.614600 0.062300
H105 H 0.577700 0.721300 0.164500
C106 C 0.488470 0.514400 0.169700
H107 H 0.545000 0.502200 0.239000
H108 H 0.484200 0.409200 0.132900
C109 C 0.387750 0.540900 0.176040
C110 C 0.295770 0.469600 0.106200
H111 H 0.298000 0.369700 0.072600
C112 C 0.200840 0.542100 0.084870
H113 H 0.138800 0.491200 0.037300
C114 C 0.195910 0.688300 0.132460
C115 C 0.285280 0.738500 0.216670
H116 H 0.281200 0.823600 0.259600
C117 C 0.379750 0.665300 0.238010
H118 H 0.440000 0.700300 0.295800
C119 C 0.516720 1.019410 0.188410
C120 C 0.516010 1.093400 0.273770
H121 H 0.455400 1.086800 0.284100
C122 C 0.602680 1.176600 0.343900
H123 H 0.600700 1.227800 0.401200
C124 C 0.692150 1.185000 0.330460
H125 H 0.751600 1.241000 0.378700
C126 C 0.694380 1.111800 0.246710
H127 H 0.755800 1.116200 0.237700
C128 C 0.606950 1.031600 0.175590
H129 H 0.608600 0.984200 0.117200
O130 O 0.346920 0.236870 0.614030
H131 H 0.336800 0.145200 0.637100
C132 C 0.393370 0.307900 0.417830
H133 H 0.454300 0.245900 0.467000
H134 H 0.411800 0.355700 0.366000
C135 C 0.367220 0.454900 0.474760
H136 H 0.363300 0.560900 0.438800
H137 H 0.424000 0.465200 0.544000
C138 C 0.266200 0.427670 0.481040
C139 C 0.256520 0.300480 0.539930
C140 C 0.161360 0.229400 0.516650
H141 H 0.156700 0.140800 0.557200
C142 C 0.071960 0.285100 0.434800
C143 C 0.076740 0.436280 0.389420
C144 C 0.174680 0.503050 0.413170
H145 H 0.178900 0.604200 0.381600
C146 C -0.016010 0.161700 0.385390
H147 H -0.034100 0.114600 0.437700
H148 H -0.077700 0.221300 0.335500
C149 C 0.011530 0.014400 0.330300
H150 H -0.045000 0.002200 0.261000
H151 H 0.015800 -0.090800 0.367100
C152 C 0.112250 0.040900 0.323960
C153 C 0.204230 -0.030400 0.393800
H154 H 0.202000 -0.130300 0.427400
C155 C 0.299160 0.042100 0.415130
H156 H 0.361200 -0.008800 0.462700
C157 C 0.304090 0.188300 0.367540
C158 C 0.214720 0.238500 0.283330
H159 H 0.218800 0.323600 0.240400
C160 C 0.120250 0.165300 0.261990
H161 H 0.060000 0.200300 0.204200
C162 C -0.016720 0.519410 0.311590
C163 C -0.016010 0.593400 0.226230
H164 H 0.044600 0.586800 0.215900
C165 C -0.102680 0.676600 0.156100
H166 H -0.100700 0.727800 0.098800
C167 C -0.192150 0.685000 0.169540
H168 H -0.251600 0.741000 0.121300
C169 C -0.194380 0.611800 0.253290
H170 H -0.255800 0.616200 0.262300
C171 C -0.106950 0.531600 0.324410
H172 H -0.108600 0.484200 0.382800

#END
