./LABTIR_from_xyz.cif_generated_by_CrystalShift
_symmetry_cell_setting triclinic
_symmetry_space_group_name_H-M 'P 1'
loop_
_symmetry_equiv_pos_site_id
_symmetry_equiv_pos_as_xyz
1 x,y,z
_cell_length_a 6.230000
_cell_length_b 10.701000
_cell_length_c 15.550000
_cell_angle_alpha 90.000000
_cell_angle_beta 90.000000
_cell_angle_gamma 90.000000
_cell_volume 1036.675427
loop_
_atom_site_label
_atom_site_type_symbol
_atom_site_fract_x
_atom_site_fract_y
_atom_site_fract_z
N1 N 0.817500 0.678800 0.187700
C2 C 0.742000 0.709200 0.109400
O3 O 0.846800 0.730700 0.045100
N4 N 0.522700 0.714300 0.116200
C5 C 0.452000 0.681200 0.194900
O6 O 0.267400 0.673100 0.219000
C7 C 0.648000 0.660400 0.250900
C8 C 0.659000 0.753700 0.324400
C9 C 0.828000 0.832800 0.336100
C10 C 0.829000 0.915200 0.404600
C11 C 0.658000 0.922300 0.459600
C12 C 0.491000 0.842700 0.448300
C13 C 0.488000 0.759000 0.381800
C14 C 0.647000 0.523400 0.284000
C15 C 0.843000 0.491300 0.338600
H16 H 0.905100 0.671000 0.195800
H17 H 0.423100 0.726300 0.072600
H18 H 0.961300 0.823000 0.298000
H19 H 0.935200 0.947900 0.416700
H20 H 0.669400 0.977500 0.506100
H21 H 0.350600 0.842600 0.489500
H22 H 0.312500 0.712300 0.373800
H23 H 0.669800 0.464900 0.226000
H24 H 0.501300 0.510300 0.315200
H25 H 0.811200 0.542900 0.386300
H26 H 0.835800 0.392400 0.356600
H27 H 0.969000 0.509400 0.308300
N28 N 0.317500 0.821200 0.812300
C29 C 0.242000 0.790800 0.890600
O30 O 0.346800 0.769300 0.954900
N31 N 0.022700 0.785700 0.883800
C32 C -0.048000 0.818800 0.805100
O33 O -0.232600 0.826900 0.781000
C34 C 0.148000 0.839600 0.749100
C35 C 0.159000 0.746300 0.675600
C36 C 0.328000 0.667200 0.663900
C37 C 0.329000 0.584800 0.595400
C38 C 0.158000 0.577700 0.540400
C39 C -0.009000 0.657300 0.551700
C40 C -0.012000 0.741000 0.618200
C41 C 0.147000 0.976600 0.716000
C42 C 0.343000 1.008700 0.661400
H43 H 0.405100 0.829000 0.804200
H44 H -0.076900 0.773700 0.927400
H45 H 0.461300 0.677000 0.702000
H46 H 0.435200 0.552100 0.583300
H47 H 0.169400 0.522500 0.493900
H48 H -0.149400 0.657400 0.510500
H49 H -0.187500 0.787700 0.626200
H50 H 0.169800 1.035100 0.774000
H51 H 0.001300 0.989700 0.684800
H52 H 0.311200 0.957100 0.613700
H53 H 0.335800 1.107600 0.643400
H54 H 0.469000 0.990600 0.691700
N55 N 0.182500 0.178800 0.312300
C56 C 0.258000 0.209200 0.390600
O57 O 0.153200 0.230700 0.454900
N58 N 0.477300 0.214300 0.383800
C59 C 0.548000 0.181200 0.305100
O60 O 0.732600 0.173100 0.281000
C61 C 0.352000 0.160400 0.249100
C62 C 0.341000 0.253700 0.175600
C63 C 0.172000 0.332800 0.163900
C64 C 0.171000 0.415200 0.095400
C65 C 0.342000 0.422300 0.040400
C66 C 0.509000 0.342700 0.051700
C67 C 0.512000 0.259000 0.118200
C68 C 0.353000 0.023400 0.216000
C69 C 0.157000 -0.008700 0.161400
H70 H 0.094900 0.171000 0.304200
H71 H 0.576900 0.226300 0.427400
H72 H 0.038700 0.323000 0.202000
H73 H 0.064800 0.447900 0.083300
H74 H 0.330600 0.477500 -0.006100
H75 H 0.649400 0.342600 0.010500
H76 H 0.687500 0.212300 0.126200
H77 H 0.330200 -0.035100 0.274000
H78 H 0.498700 0.010300 0.184800
H79 H 0.188800 0.042900 0.113700
H80 H 0.164200 -0.107600 0.143400
H81 H 0.031000 0.009400 0.191700
N82 N 0.682500 0.321200 0.687700
C83 C 0.758000 0.290800 0.609400
O84 O 0.653200 0.269300 0.545100
N85 N 0.977300 0.285700 0.616200
C86 C 1.048000 0.318800 0.694900
O87 O 1.232600 0.326900 0.719000
C88 C 0.852000 0.339600 0.750900
C89 C 0.841000 0.246300 0.824400
C90 C 0.672000 0.167200 0.836100
C91 C 0.671000 0.084800 0.904600
C92 C 0.842000 0.077700 0.959600
C93 C 1.009000 0.157300 0.948300
C94 C 1.012000 0.241000 0.881800
C95 C 0.853000 0.476600 0.784000
C96 C 0.657000 0.508700 0.838600
H97 H 0.594900 0.329000 0.695800
H98 H 1.076900 0.273700 0.572600
H99 H 0.538700 0.177000 0.798000
H100 H 0.564800 0.052100 0.916700
H101 H 0.830600 0.022500 1.006100
H102 H 1.149400 0.157400 0.989500
H103 H 1.187500 0.287700 0.873800
H104 H 0.830200 0.535100 0.726000
H105 H 0.998700 0.489700 0.815200
H106 H 0.688800 0.457100 0.886300
H107 H 0.664200 0.607600 0.856600
H108 H 0.531000 0.490600 0.808300

#END
