./LABVEQ_from_xyz.cif_generated_by_CrystalShift
_symmetry_cell_setting triclinic
_symmetry_space_group_name_H-M 'P 1'
loop_
_symmetry_equiv_pos_site_id
_symmetry_equiv_pos_as_xyz
1 x,y,z
_cell_length_a 7.684500
_cell_length_b 8.575100
_cell_length_c 22.339000
_cell_angle_alpha 90.000000
_cell_angle_beta 94.613000
_cell_angle_gamma 90.000000
_cell_volume 1467.267905
loop_
_atom_site_label
_atom_site_type_symbol
_atom_site_fract_x
_atom_site_fract_y
_atom_site_fract_z
C1 C 0.652300 0.567200 -0.047110
C2 C 0.594800 0.723100 -0.025800
C3 C 0.640800 0.778600 0.029600
H4 H 0.601100 0.878400 0.038800
C5 C 0.749500 0.682300 0.069580
C6 C 0.805400 0.530100 0.048900
C7 C 0.762100 0.471900 -0.005280
H8 H 0.803400 0.367100 -0.018800
C9 C 0.920100 0.557300 0.143590
C10 C 0.819200 0.698700 0.126900
C11 C 0.859900 0.794100 0.271840
C12 C 0.995800 0.893200 0.252000
H13 H 1.081700 0.931800 0.280100
C14 C 0.975600 0.910700 0.192730
C15 C 0.804800 0.830700 0.170410
C16 C 1.097500 0.990100 0.152360
C17 C 1.233800 0.870100 0.136900
H18 H 1.314700 0.926200 0.105600
H19 H 1.173300 0.781700 0.104500
H20 H 1.292300 0.857400 0.168600
C21 C 1.186200 1.127700 0.186100
H22 H 1.263100 1.180800 0.154800
H23 H 1.095200 1.206800 0.189000
H24 H 1.270600 1.080100 0.216800
C25 C 1.004400 1.052300 0.094060
H26 H 0.949000 0.964200 0.067300
H27 H 1.097300 1.106100 0.068100
H28 H 0.908000 1.130900 0.096600
O29 O 0.605300 0.527000 -0.098270
O30 O 0.491000 0.806100 -0.064860
H31 H 0.476400 0.762000 -0.093100
O32 O 0.908200 0.456800 0.093360
O33 O 1.002600 0.520300 0.188770
O34 O 0.745300 0.758700 0.225050
O35 O 0.839600 0.741000 0.321440
O36 O 0.677600 0.930400 0.146490
H37 H 0.689600 1.019200 0.162800
C38 C 0.152300 0.932800 0.452890
C39 C 0.094800 0.776900 0.474200
C40 C 0.140800 0.721400 0.529600
H41 H 0.101100 0.621600 0.538800
C42 C 0.249500 0.817700 0.569580
C43 C 0.305400 0.969900 0.548900
C44 C 0.262100 1.028100 0.494720
H45 H 0.303400 1.132900 0.481200
C46 C 0.420100 0.942700 0.643590
C47 C 0.319200 0.801300 0.626900
C48 C 0.359900 0.705900 0.771840
C49 C 0.495800 0.606800 0.752000
H50 H 0.581700 0.568200 0.780100
C51 C 0.475600 0.589300 0.692730
C52 C 0.304800 0.669300 0.670410
C53 C 0.597500 0.509900 0.652360
C54 C 0.733800 0.629900 0.636900
H55 H 0.814700 0.573800 0.605600
H56 H 0.673300 0.718300 0.604500
H57 H 0.792300 0.642600 0.668600
C58 C 0.686200 0.372300 0.686100
H59 H 0.763100 0.319200 0.654800
H60 H 0.595200 0.293200 0.689000
H61 H 0.770600 0.419900 0.716800
C62 C 0.504400 0.447700 0.594060
H63 H 0.449000 0.535800 0.567300
H64 H 0.597300 0.393900 0.568100
H65 H 0.408000 0.369100 0.596600
O66 O 0.105300 0.973000 0.401730
O67 O -0.009000 0.693900 0.435140
H68 H -0.023600 0.738000 0.406900
O69 O 0.408200 1.043200 0.593360
O70 O 0.502600 0.979700 0.688770
O71 O 0.245300 0.741300 0.725050
O72 O 0.339600 0.759000 0.821440
O73 O 0.177600 0.569600 0.646490
H74 H 0.189600 0.480800 0.662800
C75 C 0.347700 0.432800 1.047110
C76 C 0.405200 0.276900 1.025800
C77 C 0.359200 0.221400 0.970400
H78 H 0.398900 0.121600 0.961200
C79 C 0.250500 0.317700 0.930420
C80 C 0.194600 0.469900 0.951100
C81 C 0.237900 0.528100 1.005280
H82 H 0.196600 0.632900 1.018800
C83 C 0.079900 0.442700 0.856410
C84 C 0.180800 0.301300 0.873100
C85 C 0.140100 0.205900 0.728160
C86 C 0.004200 0.106800 0.748000
H87 H -0.081700 0.068200 0.719900
C88 C 0.024400 0.089300 0.807270
C89 C 0.195200 0.169300 0.829590
C90 C -0.097500 0.009900 0.847640
C91 C -0.233800 0.129900 0.863100
H92 H -0.314700 0.073800 0.894400
H93 H -0.173300 0.218300 0.895500
H94 H -0.292300 0.142600 0.831400
C95 C -0.186200 -0.127700 0.813900
H96 H -0.263100 -0.180800 0.845200
H97 H -0.095200 -0.206800 0.811000
H98 H -0.270600 -0.080100 0.783200
C99 C -0.004400 -0.052300 0.905940
H100 H 0.051000 0.035800 0.932700
H101 H -0.097300 -0.106100 0.931900
H102 H 0.092000 -0.130900 0.903400
O103 O 0.394700 0.473000 1.098270
O104 O 0.509000 0.193900 1.064860
H105 H 0.523600 0.238000 1.093100
O106 O 0.091800 0.543200 0.906640
O107 O -0.002600 0.479700 0.811230
O108 O 0.254700 0.241300 0.774950
O109 O 0.160400 0.259000 0.678560
O110 O 0.322400 0.069600 0.853510
H111 H 0.310400 -0.019200 0.837200
C112 C 0.847700 0.067200 0.547110
C113 C 0.905200 0.223100 0.525800
C114 C 0.859200 0.278600 0.470400
H115 H 0.898900 0.378400 0.461200
C116 C 0.750500 0.182300 0.430420
C117 C 0.694600 0.030100 0.451100
C118 C 0.737900 -0.028100 0.505280
H119 H 0.696600 -0.132900 0.518800
C120 C 0.579900 0.057300 0.356410
C121 C 0.680800 0.198700 0.373100
C122 C 0.640100 0.294100 0.228160
C123 C 0.504200 0.393200 0.248000
H124 H 0.418300 0.431800 0.219900
C125 C 0.524400 0.410700 0.307270
C126 C 0.695200 0.330700 0.329590
C127 C 0.402500 0.490100 0.347640
C128 C 0.266200 0.370100 0.363100
H129 H 0.185300 0.426200 0.394400
H130 H 0.326700 0.281700 0.395500
H131 H 0.207700 0.357400 0.331400
C132 C 0.313800 0.627700 0.313900
H133 H 0.236900 0.680800 0.345200
H134 H 0.404800 0.706800 0.311000
H135 H 0.229400 0.580100 0.283200
C136 C 0.495600 0.552300 0.405940
H137 H 0.551000 0.464200 0.432700
H138 H 0.402700 0.606100 0.431900
H139 H 0.592000 0.630900 0.403400
O140 O 0.894700 0.027000 0.598270
O141 O 1.009000 0.306100 0.564860
H142 H 1.023600 0.262000 0.593100
O143 O 0.591800 -0.043200 0.406640
O144 O 0.497400 0.020300 0.311230
O145 O 0.754700 0.258700 0.274950
O146 O 0.660400 0.241000 0.178560
O147 O 0.822400 0.430400 0.353510
H148 H 0.810400 0.519200 0.337200

#END
