./LACJEF_from_xyz.cif_generated_by_CrystalShift
_symmetry_cell_setting triclinic
_symmetry_space_group_name_H-M 'P 1'
loop_
_symmetry_equiv_pos_site_id
_symmetry_equiv_pos_as_xyz
1 x,y,z
_cell_length_a 8.186000
_cell_length_b 7.262000
_cell_length_c 14.257000
_cell_angle_alpha 90.000000
_cell_angle_beta 92.000000
_cell_angle_gamma 90.000000
_cell_volume 847.015763
loop_
_atom_site_label
_atom_site_type_symbol
_atom_site_fract_x
_atom_site_fract_y
_atom_site_fract_z
S1 S 0.214150 0.263740 0.561760
N2 N 0.393800 0.529400 0.654590
H3 H 0.409000 0.449000 0.700000
O4 O 0.558300 0.741700 0.726250
C5 C 0.471300 0.694500 0.657700
N6 N 0.448700 0.804300 0.580360
H7 H 0.497000 0.902000 0.586000
O8 O 0.357400 0.873400 0.431610
C9 C 0.362900 0.761300 0.496300
C10 C 0.288200 0.581200 0.495850
C11 C 0.194700 0.491400 0.421300
C12 C 0.147800 0.320000 0.447500
C13 C 0.307500 0.475400 0.575350
C14 C 0.160300 0.573700 0.325900
H15 H 0.081000 0.516000 0.298000
H16 H 0.260000 0.591000 0.296000
H17 H 0.132000 0.691000 0.333000
C18 C 0.052700 0.178700 0.391100
H19 H 0.023700 0.228300 0.330300
H20 H -0.044800 0.147200 0.423000
H21 H 0.118400 0.070500 0.384000
S22 S 0.214150 1.236260 1.061760
N23 N 0.393800 0.970600 1.154590
H24 H 0.409000 1.051000 1.200000
O25 O 0.558300 0.758300 1.226250
C26 C 0.471300 0.805500 1.157700
N27 N 0.448700 0.695700 1.080360
H28 H 0.497000 0.598000 1.086000
O29 O 0.357400 0.626600 0.931610
C30 C 0.362900 0.738700 0.996300
C31 C 0.288200 0.918800 0.995850
C32 C 0.194700 1.008600 0.921300
C33 C 0.147800 1.180000 0.947500
C34 C 0.307500 1.024600 1.075350
C35 C 0.160300 0.926300 0.825900
H36 H 0.081000 0.984000 0.798000
H37 H 0.260000 0.909000 0.796000
H38 H 0.132000 0.809000 0.833000
C39 C 0.052700 1.321300 0.891100
H40 H 0.023700 1.271700 0.830300
H41 H -0.044800 1.352800 0.923000
H42 H 0.118400 1.429500 0.884000
S43 S 0.785850 0.736260 0.438240
N44 N 0.606200 0.470600 0.345410
H45 H 0.591000 0.551000 0.300000
O46 O 0.441700 0.258300 0.273750
C47 C 0.528700 0.305500 0.342300
N48 N 0.551300 0.195700 0.419640
H49 H 0.503000 0.098000 0.414000
O50 O 0.642600 0.126600 0.568390
C51 C 0.637100 0.238700 0.503700
C52 C 0.711800 0.418800 0.504150
C53 C 0.805300 0.508600 0.578700
C54 C 0.852200 0.680000 0.552500
C55 C 0.692500 0.524600 0.424650
C56 C 0.839700 0.426300 0.674100
H57 H 0.919000 0.484000 0.702000
H58 H 0.740000 0.409000 0.704000
H59 H 0.868000 0.309000 0.667000
C60 C 0.947300 0.821300 0.608900
H61 H 0.976300 0.771700 0.669700
H62 H 1.044800 0.852800 0.577000
H63 H 0.881600 0.929500 0.616000
S64 S 0.785850 -0.236260 -0.061760
N65 N 0.606200 0.029400 -0.154590
H66 H 0.591000 -0.051000 -0.200000
O67 O 0.441700 0.241700 -0.226250
C68 C 0.528700 0.194500 -0.157700
N69 N 0.551300 0.304300 -0.080360
H70 H 0.503000 0.402000 -0.086000
O71 O 0.642600 0.373400 0.068390
C72 C 0.637100 0.261300 0.003700
C73 C 0.711800 0.081200 0.004150
C74 C 0.805300 -0.008600 0.078700
C75 C 0.852200 -0.180000 0.052500
C76 C 0.692500 -0.024600 -0.075350
C77 C 0.839700 0.073700 0.174100
H78 H 0.919000 0.016000 0.202000
H79 H 0.740000 0.091000 0.204000
H80 H 0.868000 0.191000 0.167000
C81 C 0.947300 -0.321300 0.108900
H82 H 0.976300 -0.271700 0.169700
H83 H 1.044800 -0.352800 0.077000
H84 H 0.881600 -0.429500 0.116000

#END
