./LACWEU_from_xyz.cif_generated_by_CrystalShift
_symmetry_cell_setting triclinic
_symmetry_space_group_name_H-M 'P 1'
loop_
_symmetry_equiv_pos_site_id
_symmetry_equiv_pos_as_xyz
1 x,y,z
_cell_length_a 11.551000
_cell_length_b 8.531700
_cell_length_c 24.358000
_cell_angle_alpha 90.000000
_cell_angle_beta 92.804000
_cell_angle_gamma 90.000000
_cell_volume 2397.598778
loop_
_atom_site_label
_atom_site_type_symbol
_atom_site_fract_x
_atom_site_fract_y
_atom_site_fract_z
O1 O 0.888980 1.150460 0.565090
O2 O 0.789250 1.013420 0.500310
H3 H 0.819600 1.077300 0.480400
O4 O 0.887190 1.060270 0.666170
H5 H 0.901900 1.117700 0.640400
N6 N 0.638500 0.638520 0.709660
H7 H 0.657500 0.650100 0.744000
H8 H 0.589500 0.567300 0.699300
C9 C 0.823930 1.039600 0.551900
C10 C 0.779370 0.930700 0.591910
C11 C 0.812160 0.946800 0.648260
C12 C 0.766040 0.850000 0.687140
H13 H 0.788400 0.862600 0.724100
C14 C 0.686270 0.733400 0.671500
C15 C 0.656600 0.712800 0.615060
H16 H 0.605800 0.633200 0.603800
C17 C 0.702070 0.809100 0.576820
H18 H 0.681300 0.793800 0.539800
O19 O 0.111020 1.150460 0.934910
O20 O 0.210750 1.013420 0.999690
H21 H 0.180400 1.077300 1.019600
O22 O 0.112810 1.060270 0.833830
H23 H 0.098100 1.117700 0.859600
N24 N 0.361500 0.638520 0.790340
H25 H 0.342500 0.650100 0.756000
H26 H 0.410500 0.567300 0.800700
C27 C 0.176070 1.039600 0.948100
C28 C 0.220630 0.930700 0.908090
C29 C 0.187840 0.946800 0.851740
C30 C 0.233960 0.850000 0.812860
H31 H 0.211600 0.862600 0.775900
C32 C 0.313730 0.733400 0.828500
C33 C 0.343400 0.712800 0.884940
H34 H 0.394200 0.633200 0.896200
C35 C 0.297930 0.809100 0.923180
H36 H 0.318700 0.793800 0.960200
O37 O 0.388980 0.650460 0.565090
O38 O 0.289250 0.513420 0.500310
H39 H 0.319600 0.577300 0.480400
O40 O 0.387190 0.560270 0.666170
H41 H 0.401900 0.617700 0.640400
N42 N 0.138500 0.138520 0.709660
H43 H 0.157500 0.150100 0.744000
H44 H 0.089500 0.067300 0.699300
C45 C 0.323930 0.539600 0.551900
C46 C 0.279370 0.430700 0.591910
C47 C 0.312160 0.446800 0.648260
C48 C 0.266040 0.350000 0.687140
H49 H 0.288400 0.362600 0.724100
C50 C 0.186270 0.233400 0.671500
C51 C 0.156600 0.212800 0.615060
H52 H 0.105800 0.133200 0.603800
C53 C 0.202070 0.309100 0.576820
H54 H 0.181300 0.293800 0.539800
O55 O 0.611020 0.650460 0.934910
O56 O 0.710750 0.513420 0.999690
H57 H 0.680400 0.577300 1.019600
O58 O 0.612810 0.560270 0.833830
H59 H 0.598100 0.617700 0.859600
N60 N 0.861500 0.138520 0.790340
H61 H 0.842500 0.150100 0.756000
H62 H 0.910500 0.067300 0.800700
C63 C 0.676070 0.539600 0.948100
C64 C 0.720630 0.430700 0.908090
C65 C 0.687840 0.446800 0.851740
C66 C 0.733960 0.350000 0.812860
H67 H 0.711600 0.362600 0.775900
C68 C 0.813730 0.233400 0.828500
C69 C 0.843400 0.212800 0.884940
H70 H 0.894200 0.133200 0.896200
C71 C 0.797930 0.309100 0.923180
H72 H 0.818700 0.293800 0.960200
O73 O 0.111020 -0.150460 0.434910
O74 O 0.210750 -0.013420 0.499690
H75 H 0.180400 -0.077300 0.519600
O76 O 0.112810 -0.060270 0.333830
H77 H 0.098100 -0.117700 0.359600
N78 N 0.361500 0.361480 0.290340
H79 H 0.342500 0.349900 0.256000
H80 H 0.410500 0.432700 0.300700
C81 C 0.176070 -0.039600 0.448100
C82 C 0.220630 0.069300 0.408090
C83 C 0.187840 0.053200 0.351740
C84 C 0.233960 0.150000 0.312860
H85 H 0.211600 0.137400 0.275900
C86 C 0.313730 0.266600 0.328500
C87 C 0.343400 0.287200 0.384940
H88 H 0.394200 0.366800 0.396200
C89 C 0.297930 0.190900 0.423180
H90 H 0.318700 0.206200 0.460200
O91 O 0.888980 -0.150460 0.065090
O92 O 0.789250 -0.013420 0.000310
H93 H 0.819600 -0.077300 -0.019600
O94 O 0.887190 -0.060270 0.166170
H95 H 0.901900 -0.117700 0.140400
N96 N 0.638500 0.361480 0.209660
H97 H 0.657500 0.349900 0.244000
H98 H 0.589500 0.432700 0.199300
C99 C 0.823930 -0.039600 0.051900
C100 C 0.779370 0.069300 0.091910
C101 C 0.812160 0.053200 0.148260
C102 C 0.766040 0.150000 0.187140
H103 H 0.788400 0.137400 0.224100
C104 C 0.686270 0.266600 0.171500
C105 C 0.656600 0.287200 0.115060
H106 H 0.605800 0.366800 0.103800
C107 C 0.702070 0.190900 0.076820
H108 H 0.681300 0.206200 0.039800
O109 O 0.611020 0.349540 0.434910
O110 O 0.710750 0.486580 0.499690
H111 H 0.680400 0.422700 0.519600
O112 O 0.612810 0.439730 0.333830
H113 H 0.598100 0.382300 0.359600
N114 N 0.861500 0.861480 0.290340
H115 H 0.842500 0.849900 0.256000
H116 H 0.910500 0.932700 0.300700
C117 C 0.676070 0.460400 0.448100
C118 C 0.720630 0.569300 0.408090
C119 C 0.687840 0.553200 0.351740
C120 C 0.733960 0.650000 0.312860
H121 H 0.711600 0.637400 0.275900
C122 C 0.813730 0.766600 0.328500
C123 C 0.843400 0.787200 0.384940
H124 H 0.894200 0.866800 0.396200
C125 C 0.797930 0.690900 0.423180
H126 H 0.818700 0.706200 0.460200
O127 O 0.388980 0.349540 0.065090
O128 O 0.289250 0.486580 0.000310
H129 H 0.319600 0.422700 -0.019600
O130 O 0.387190 0.439730 0.166170
H131 H 0.401900 0.382300 0.140400
N132 N 0.138500 0.861480 0.209660
H133 H 0.157500 0.849900 0.244000
H134 H 0.089500 0.932700 0.199300
C135 C 0.323930 0.460400 0.051900
C136 C 0.279370 0.569300 0.091910
C137 C 0.312160 0.553200 0.148260
C138 C 0.266040 0.650000 0.187140
H139 H 0.288400 0.637400 0.224100
C140 C 0.186270 0.766600 0.171500
C141 C 0.156600 0.787200 0.115060
H142 H 0.105800 0.866800 0.103800
C143 C 0.202070 0.690900 0.076820
H144 H 0.181300 0.706200 0.039800
N145 N 1.115200 0.593500 0.301110
N146 N 0.889800 0.207610 0.432210
C147 C 1.066350 0.512300 0.329250
C148 C 1.005150 0.408300 0.364610
C149 C 1.033090 0.405300 0.420870
H150 H 1.090600 0.469900 0.436400
C151 C 0.972340 0.302900 0.452780
H152 H 0.990000 0.300500 0.490400
C153 C 0.863750 0.212300 0.378110
H154 H 0.805900 0.146200 0.363600
C155 C 0.918910 0.310800 0.342860
H156 H 0.898600 0.311600 0.305400
N157 N -0.115200 0.593500 0.198890
N158 N 0.110200 0.207610 0.067790
C159 C -0.066350 0.512300 0.170750
C160 C -0.005150 0.408300 0.135390
C161 C -0.033090 0.405300 0.079130
H162 H -0.090600 0.469900 0.063600
C163 C 0.027660 0.302900 0.047220
H164 H 0.010000 0.300500 0.009600
C165 C 0.136250 0.212300 0.121890
H166 H 0.194100 0.146200 0.136400
C167 C 0.081090 0.310800 0.157140
H168 H 0.101400 0.311600 0.194600
N169 N 0.615200 1.093500 0.301110
N170 N 0.389800 0.707610 0.432210
C171 C 0.566350 1.012300 0.329250
C172 C 0.505150 0.908300 0.364610
C173 C 0.533090 0.905300 0.420870
H174 H 0.590600 0.969900 0.436400
C175 C 0.472340 0.802900 0.452780
H176 H 0.490000 0.800500 0.490400
C177 C 0.363750 0.712300 0.378110
H178 H 0.305900 0.646200 0.363600
C179 C 0.418910 0.810800 0.342860
H180 H 0.398600 0.811600 0.305400
N181 N 0.384800 1.093500 0.198890
N182 N 0.610200 0.707610 0.067790
C183 C 0.433650 1.012300 0.170750
C184 C 0.494850 0.908300 0.135390
C185 C 0.466910 0.905300 0.079130
H186 H 0.409400 0.969900 0.063600
C187 C 0.527660 0.802900 0.047220
H188 H 0.510000 0.800500 0.009600
C189 C 0.636250 0.712300 0.121890
H190 H 0.694100 0.646200 0.136400
C191 C 0.581090 0.810800 0.157140
H192 H 0.601400 0.811600 0.194600
N193 N -0.115200 0.406500 0.698890
N194 N 0.110200 0.792390 0.567790
C195 C -0.066350 0.487700 0.670750
C196 C -0.005150 0.591700 0.635390
C197 C -0.033090 0.594700 0.579130
H198 H -0.090600 0.530100 0.563600
C199 C 0.027660 0.697100 0.547220
H200 H 0.010000 0.699500 0.509600
C201 C 0.136250 0.787700 0.621890
H202 H 0.194100 0.853800 0.636400
C203 C 0.081090 0.689200 0.657140
H204 H 0.101400 0.688400 0.694600
N205 N 1.115200 0.406500 0.801110
N206 N 0.889800 0.792390 0.932210
C207 C 1.066350 0.487700 0.829250
C208 C 1.005150 0.591700 0.864610
C209 C 1.033090 0.594700 0.920870
H210 H 1.090600 0.530100 0.936400
C211 C 0.972340 0.697100 0.952780
H212 H 0.990000 0.699500 0.990400
C213 C 0.863750 0.787700 0.878110
H214 H 0.805900 0.853800 0.863600
C215 C 0.918910 0.689200 0.842860
H216 H 0.898600 0.688400 0.805400
N217 N 0.384800 -0.093500 0.698890
N218 N 0.610200 0.292390 0.567790
C219 C 0.433650 -0.012300 0.670750
C220 C 0.494850 0.091700 0.635390
C221 C 0.466910 0.094700 0.579130
H222 H 0.409400 0.030100 0.563600
C223 C 0.527660 0.197100 0.547220
H224 H 0.510000 0.199500 0.509600
C225 C 0.636250 0.287700 0.621890
H226 H 0.694100 0.353800 0.636400
C227 C 0.581090 0.189200 0.657140
H228 H 0.601400 0.188400 0.694600
N229 N 0.615200 -0.093500 0.801110
N230 N 0.389800 0.292390 0.932210
C231 C 0.566350 -0.012300 0.829250
C232 C 0.505150 0.091700 0.864610
C233 C 0.533090 0.094700 0.920870
H234 H 0.590600 0.030100 0.936400
C235 C 0.472340 0.197100 0.952780
H236 H 0.490000 0.199500 0.990400
C237 C 0.363750 0.287700 0.878110
H238 H 0.305900 0.353800 0.863600
C239 C 0.418910 0.189200 0.842860
H240 H 0.398600 0.188400 0.805400

#END
