./KACTEQ_from_xyz.cif_generated_by_CrystalShift
_symmetry_cell_setting triclinic
_symmetry_space_group_name_H-M 'P 1'
loop_
_symmetry_equiv_pos_site_id
_symmetry_equiv_pos_as_xyz
1 x,y,z
_cell_length_a 15.713000
_cell_length_b 28.080000
_cell_length_c 28.507000
_cell_angle_alpha 90.000000
_cell_angle_beta 90.000000
_cell_angle_gamma 90.000000
_cell_volume 12577.888187
loop_
_atom_site_label
_atom_site_type_symbol
_atom_site_fract_x
_atom_site_fract_y
_atom_site_fract_z
Br1 Br 0.132210 0.511210 0.086400
N2 N 0.356400 0.805100 0.335000
O3 O 0.087500 0.650400 0.277400
O4 O 0.357200 0.615700 0.395300
O5 O 0.323400 0.657500 0.455600
O6 O 0.145200 0.674900 0.405700
O7 O 0.202200 0.741100 0.425300
C8 C 0.143700 0.652300 0.249000
C9 C 0.214000 0.688100 0.252700
H10 H 0.202400 0.714400 0.231600
H11 H 0.267000 0.673400 0.242900
C12 C 0.223600 0.707000 0.302800
H13 H 0.166700 0.712700 0.315700
C14 C 0.268500 0.670600 0.333400
H15 H 0.322300 0.662200 0.318900
H16 H 0.234000 0.642000 0.335000
C17 C 0.285400 0.688400 0.383500
C18 C 0.347900 0.729100 0.381500
H19 H 0.405000 0.716800 0.377000
H20 H 0.346700 0.746500 0.410900
C21 C 0.324900 0.762100 0.341400
C22 C 0.273500 0.752600 0.304900
C23 C 0.275400 0.790500 0.275500
H24 H 0.246300 0.792800 0.247200
C25 C 0.325200 0.823700 0.293700
C26 C 0.346600 0.869800 0.275500
C27 C 0.374100 0.875100 0.230000
H28 H 0.381000 0.848000 0.211600
C29 C 0.391600 0.918400 0.210800
H30 H 0.411300 0.920900 0.180200
C31 C 0.380000 0.956200 0.236500
H32 H 0.389700 0.985900 0.223200
C33 C 0.354400 0.953900 0.281700
H34 H 0.349000 0.981700 0.299200
C35 C 0.336400 0.911000 0.301600
H36 H 0.317500 0.909400 0.332500
C37 C 0.414300 0.829300 0.367900
H38 H 0.447900 0.852200 0.350300
H39 H 0.453200 0.805800 0.380600
C40 C 0.373500 0.854800 0.408100
C41 C 0.422200 0.879100 0.438400
H42 H 0.480700 0.879300 0.433700
C43 C 0.391300 0.902600 0.474400
H44 H 0.427500 0.917200 0.495800
C45 C 0.304000 0.905300 0.479900
H46 H 0.280700 0.923000 0.504200
C47 C 0.252200 0.881600 0.449300
H48 H 0.193400 0.883700 0.452400
C49 C 0.286500 0.855200 0.414300
H50 H 0.251600 0.837300 0.394600
C51 C 0.326100 0.650300 0.411500
C52 C 0.358400 0.620900 0.486600
H53 H 0.332300 0.590800 0.479600
H54 H 0.347100 0.629200 0.518700
H55 H 0.418700 0.618600 0.481900
C56 C 0.204600 0.698700 0.405600
C57 C 0.122200 0.756400 0.446100
H58 H 0.095500 0.779400 0.426100
H59 H 0.133000 0.770400 0.476200
H60 H 0.085300 0.729400 0.449800
C61 C 0.144000 0.620000 0.208900
C62 C 0.071400 0.593600 0.199000
H63 H 0.023600 0.597100 0.217900
C64 C 0.068800 0.562700 0.162100
H65 H 0.019200 0.545600 0.156300
C66 C 0.135800 0.556400 0.134400
C67 C 0.208000 0.580500 0.140800
H68 H 0.254500 0.576000 0.121100
C69 C 0.211300 0.612700 0.178200
H70 H 0.261000 0.630100 0.182700
Br71 Br 0.867790 0.488790 0.086400
N72 N 0.643600 0.194900 0.335000
O73 O 0.912500 0.349600 0.277400
O74 O 0.642800 0.384300 0.395300
O75 O 0.676600 0.342500 0.455600
O76 O 0.854800 0.325100 0.405700
O77 O 0.797800 0.258900 0.425300
C78 C 0.856300 0.347700 0.249000
C79 C 0.786000 0.311900 0.252700
H80 H 0.797600 0.285600 0.231600
H81 H 0.733000 0.326600 0.242900
C82 C 0.776400 0.293000 0.302800
H83 H 0.833300 0.287300 0.315700
C84 C 0.731500 0.329400 0.333400
H85 H 0.677700 0.337800 0.318900
H86 H 0.766000 0.358000 0.335000
C87 C 0.714600 0.311600 0.383500
C88 C 0.652100 0.270900 0.381500
H89 H 0.595000 0.283200 0.377000
H90 H 0.653300 0.253500 0.410900
C91 C 0.675100 0.237900 0.341400
C92 C 0.726500 0.247400 0.304900
C93 C 0.724600 0.209500 0.275500
H94 H 0.753700 0.207200 0.247200
C95 C 0.674800 0.176300 0.293700
C96 C 0.653400 0.130200 0.275500
C97 C 0.625900 0.124900 0.230000
H98 H 0.619000 0.152000 0.211600
C99 C 0.608400 0.081600 0.210800
H100 H 0.588700 0.079100 0.180200
C101 C 0.620000 0.043800 0.236500
H102 H 0.610300 0.014100 0.223200
C103 C 0.645600 0.046100 0.281700
H104 H 0.651000 0.018300 0.299200
C105 C 0.663600 0.089000 0.301600
H106 H 0.682500 0.090600 0.332500
C107 C 0.585700 0.170700 0.367900
H108 H 0.552100 0.147800 0.350300
H109 H 0.546800 0.194200 0.380600
C110 C 0.626500 0.145200 0.408100
C111 C 0.577800 0.120900 0.438400
H112 H 0.519300 0.120700 0.433700
C113 C 0.608700 0.097400 0.474400
H114 H 0.572500 0.082800 0.495800
C115 C 0.696000 0.094700 0.479900
H116 H 0.719300 0.077000 0.504200
C117 C 0.747800 0.118400 0.449300
H118 H 0.806600 0.116300 0.452400
C119 C 0.713500 0.144800 0.414300
H120 H 0.748400 0.162700 0.394600
C121 C 0.673900 0.349700 0.411500
C122 C 0.641600 0.379100 0.486600
H123 H 0.667700 0.409200 0.479600
H124 H 0.652900 0.370800 0.518700
H125 H 0.581300 0.381400 0.481900
C126 C 0.795400 0.301300 0.405600
C127 C 0.877800 0.243600 0.446100
H128 H 0.904500 0.220600 0.426100
H129 H 0.867000 0.229600 0.476200
H130 H 0.914700 0.270600 0.449800
C131 C 0.856000 0.380000 0.208900
C132 C 0.928600 0.406400 0.199000
H133 H 0.976400 0.402900 0.217900
C134 C 0.931200 0.437300 0.162100
H135 H 0.980800 0.454400 0.156300
C136 C 0.864200 0.443600 0.134400
C137 C 0.792000 0.419500 0.140800
H138 H 0.745500 0.424000 0.121100
C139 C 0.788700 0.387300 0.178200
H140 H 0.739000 0.369900 0.182700
Br141 Br 0.132210 0.488790 0.913600
N142 N 0.356400 0.194900 0.665000
O143 O 0.087500 0.349600 0.722600
O144 O 0.357200 0.384300 0.604700
O145 O 0.323400 0.342500 0.544400
O146 O 0.145200 0.325100 0.594300
O147 O 0.202200 0.258900 0.574700
C148 C 0.143700 0.347700 0.751000
C149 C 0.214000 0.311900 0.747300
H150 H 0.202400 0.285600 0.768400
H151 H 0.267000 0.326600 0.757100
C152 C 0.223600 0.293000 0.697200
H153 H 0.166700 0.287300 0.684300
C154 C 0.268500 0.329400 0.666600
H155 H 0.322300 0.337800 0.681100
H156 H 0.234000 0.358000 0.665000
C157 C 0.285400 0.311600 0.616500
C158 C 0.347900 0.270900 0.618500
H159 H 0.405000 0.283200 0.623000
H160 H 0.346700 0.253500 0.589100
C161 C 0.324900 0.237900 0.658600
C162 C 0.273500 0.247400 0.695100
C163 C 0.275400 0.209500 0.724500
H164 H 0.246300 0.207200 0.752800
C165 C 0.325200 0.176300 0.706300
C166 C 0.346600 0.130200 0.724500
C167 C 0.374100 0.124900 0.770000
H168 H 0.381000 0.152000 0.788400
C169 C 0.391600 0.081600 0.789200
H170 H 0.411300 0.079100 0.819800
C171 C 0.380000 0.043800 0.763500
H172 H 0.389700 0.014100 0.776800
C173 C 0.354400 0.046100 0.718300
H174 H 0.349000 0.018300 0.700800
C175 C 0.336400 0.089000 0.698400
H176 H 0.317500 0.090600 0.667500
C177 C 0.414300 0.170700 0.632100
H178 H 0.447900 0.147800 0.649700
H179 H 0.453200 0.194200 0.619400
C180 C 0.373500 0.145200 0.591900
C181 C 0.422200 0.120900 0.561600
H182 H 0.480700 0.120700 0.566300
C183 C 0.391300 0.097400 0.525600
H184 H 0.427500 0.082800 0.504200
C185 C 0.304000 0.094700 0.520100
H186 H 0.280700 0.077000 0.495800
C187 C 0.252200 0.118400 0.550700
H188 H 0.193400 0.116300 0.547600
C189 C 0.286500 0.144800 0.585700
H190 H 0.251600 0.162700 0.605400
C191 C 0.326100 0.349700 0.588500
C192 C 0.358400 0.379100 0.513400
H193 H 0.332300 0.409200 0.520400
H194 H 0.347100 0.370800 0.481300
H195 H 0.418700 0.381400 0.518100
C196 C 0.204600 0.301300 0.594400
C197 C 0.122200 0.243600 0.553900
H198 H 0.095500 0.220600 0.573900
H199 H 0.133000 0.229600 0.523800
H200 H 0.085300 0.270600 0.550200
C201 C 0.144000 0.380000 0.791100
C202 C 0.071400 0.406400 0.801000
H203 H 0.023600 0.402900 0.782100
C204 C 0.068800 0.437300 0.837900
H205 H 0.019200 0.454400 0.843700
C206 C 0.135800 0.443600 0.865600
C207 C 0.208000 0.419500 0.859200
H208 H 0.254500 0.424000 0.878900
C209 C 0.211300 0.387300 0.821800
H210 H 0.261000 0.369900 0.817300
Br211 Br 0.867790 0.511210 0.913600
N212 N 0.643600 0.805100 0.665000
O213 O 0.912500 0.650400 0.722600
O214 O 0.642800 0.615700 0.604700
O215 O 0.676600 0.657500 0.544400
O216 O 0.854800 0.674900 0.594300
O217 O 0.797800 0.741100 0.574700
C218 C 0.856300 0.652300 0.751000
C219 C 0.786000 0.688100 0.747300
H220 H 0.797600 0.714400 0.768400
H221 H 0.733000 0.673400 0.757100
C222 C 0.776400 0.707000 0.697200
H223 H 0.833300 0.712700 0.684300
C224 C 0.731500 0.670600 0.666600
H225 H 0.677700 0.662200 0.681100
H226 H 0.766000 0.642000 0.665000
C227 C 0.714600 0.688400 0.616500
C228 C 0.652100 0.729100 0.618500
H229 H 0.595000 0.716800 0.623000
H230 H 0.653300 0.746500 0.589100
C231 C 0.675100 0.762100 0.658600
C232 C 0.726500 0.752600 0.695100
C233 C 0.724600 0.790500 0.724500
H234 H 0.753700 0.792800 0.752800
C235 C 0.674800 0.823700 0.706300
C236 C 0.653400 0.869800 0.724500
C237 C 0.625900 0.875100 0.770000
H238 H 0.619000 0.848000 0.788400
C239 C 0.608400 0.918400 0.789200
H240 H 0.588700 0.920900 0.819800
C241 C 0.620000 0.956200 0.763500
H242 H 0.610300 0.985900 0.776800
C243 C 0.645600 0.953900 0.718300
H244 H 0.651000 0.981700 0.700800
C245 C 0.663600 0.911000 0.698400
H246 H 0.682500 0.909400 0.667500
C247 C 0.585700 0.829300 0.632100
H248 H 0.552100 0.852200 0.649700
H249 H 0.546800 0.805800 0.619400
C250 C 0.626500 0.854800 0.591900
C251 C 0.577800 0.879100 0.561600
H252 H 0.519300 0.879300 0.566300
C253 C 0.608700 0.902600 0.525600
H254 H 0.572500 0.917200 0.504200
C255 C 0.696000 0.905300 0.520100
H256 H 0.719300 0.923000 0.495800
C257 C 0.747800 0.881600 0.550700
H258 H 0.806600 0.883700 0.547600
C259 C 0.713500 0.855200 0.585700
H260 H 0.748400 0.837300 0.605400
C261 C 0.673900 0.650300 0.588500
C262 C 0.641600 0.620900 0.513400
H263 H 0.667700 0.590800 0.520400
H264 H 0.652900 0.629200 0.481300
H265 H 0.581300 0.618600 0.518100
C266 C 0.795400 0.698700 0.594400
C267 C 0.877800 0.756400 0.553900
H268 H 0.904500 0.779400 0.573900
H269 H 0.867000 0.770400 0.523800
H270 H 0.914700 0.729400 0.550200
C271 C 0.856000 0.620000 0.791100
C272 C 0.928600 0.593600 0.801000
H273 H 0.976400 0.597100 0.782100
C274 C 0.931200 0.562700 0.837900
H275 H 0.980800 0.545600 0.843700
C276 C 0.864200 0.556400 0.865600
C277 C 0.792000 0.580500 0.859200
H278 H 0.745500 0.576000 0.878900
C279 C 0.788700 0.612700 0.821800
H280 H 0.739000 0.630100 0.817300
Br281 Br 0.632210 0.011210 0.586400
N282 N 0.856400 0.305100 0.835000
O283 O 0.587500 0.150400 0.777400
O284 O 0.857200 0.115700 0.895300
O285 O 0.823400 0.157500 0.955600
O286 O 0.645200 0.174900 0.905700
O287 O 0.702200 0.241100 0.925300
C288 C 0.643700 0.152300 0.749000
C289 C 0.714000 0.188100 0.752700
H290 H 0.702400 0.214400 0.731600
H291 H 0.767000 0.173400 0.742900
C292 C 0.723600 0.207000 0.802800
H293 H 0.666700 0.212700 0.815700
C294 C 0.768500 0.170600 0.833400
H295 H 0.822300 0.162200 0.818900
H296 H 0.734000 0.142000 0.835000
C297 C 0.785400 0.188400 0.883500
C298 C 0.847900 0.229100 0.881500
H299 H 0.905000 0.216800 0.877000
H300 H 0.846700 0.246500 0.910900
C301 C 0.824900 0.262100 0.841400
C302 C 0.773500 0.252600 0.804900
C303 C 0.775400 0.290500 0.775500
H304 H 0.746300 0.292800 0.747200
C305 C 0.825200 0.323700 0.793700
C306 C 0.846600 0.369800 0.775500
C307 C 0.874100 0.375100 0.730000
H308 H 0.881000 0.348000 0.711600
C309 C 0.891600 0.418400 0.710800
H310 H 0.911300 0.420900 0.680200
C311 C 0.880000 0.456200 0.736500
H312 H 0.889700 0.485900 0.723200
C313 C 0.854400 0.453900 0.781700
H314 H 0.849000 0.481700 0.799200
C315 C 0.836400 0.411000 0.801600
H316 H 0.817500 0.409400 0.832500
C317 C 0.914300 0.329300 0.867900
H318 H 0.947900 0.352200 0.850300
H319 H 0.953200 0.305800 0.880600
C320 C 0.873500 0.354800 0.908100
C321 C 0.922200 0.379100 0.938400
H322 H 0.980700 0.379300 0.933700
C323 C 0.891300 0.402600 0.974400
H324 H 0.927500 0.417200 0.995800
C325 C 0.804000 0.405300 0.979900
H326 H 0.780700 0.423000 1.004200
C327 C 0.752200 0.381600 0.949300
H328 H 0.693400 0.383700 0.952400
C329 C 0.786500 0.355200 0.914300
H330 H 0.751600 0.337300 0.894600
C331 C 0.826100 0.150300 0.911500
C332 C 0.858400 0.120900 0.986600
H333 H 0.832300 0.090800 0.979600
H334 H 0.847100 0.129200 1.018700
H335 H 0.918700 0.118600 0.981900
C336 C 0.704600 0.198700 0.905600
C337 C 0.622200 0.256400 0.946100
H338 H 0.595500 0.279400 0.926100
H339 H 0.633000 0.270400 0.976200
H340 H 0.585300 0.229400 0.949800
C341 C 0.644000 0.120000 0.708900
C342 C 0.571400 0.093600 0.699000
H343 H 0.523600 0.097100 0.717900
C344 C 0.568800 0.062700 0.662100
H345 H 0.519200 0.045600 0.656300
C346 C 0.635800 0.056400 0.634400
C347 C 0.708000 0.080500 0.640800
H348 H 0.754500 0.076000 0.621100
C349 C 0.711300 0.112700 0.678200
H350 H 0.761000 0.130100 0.682700
Br351 Br 0.367790 0.988790 0.586400
N352 N 0.143600 0.694900 0.835000
O353 O 0.412500 0.849600 0.777400
O354 O 0.142800 0.884300 0.895300
O355 O 0.176600 0.842500 0.955600
O356 O 0.354800 0.825100 0.905700
O357 O 0.297800 0.758900 0.925300
C358 C 0.356300 0.847700 0.749000
C359 C 0.286000 0.811900 0.752700
H360 H 0.297600 0.785600 0.731600
H361 H 0.233000 0.826600 0.742900
C362 C 0.276400 0.793000 0.802800
H363 H 0.333300 0.787300 0.815700
C364 C 0.231500 0.829400 0.833400
H365 H 0.177700 0.837800 0.818900
H366 H 0.266000 0.858000 0.835000
C367 C 0.214600 0.811600 0.883500
C368 C 0.152100 0.770900 0.881500
H369 H 0.095000 0.783200 0.877000
H370 H 0.153300 0.753500 0.910900
C371 C 0.175100 0.737900 0.841400
C372 C 0.226500 0.747400 0.804900
C373 C 0.224600 0.709500 0.775500
H374 H 0.253700 0.707200 0.747200
C375 C 0.174800 0.676300 0.793700
C376 C 0.153400 0.630200 0.775500
C377 C 0.125900 0.624900 0.730000
H378 H 0.119000 0.652000 0.711600
C379 C 0.108400 0.581600 0.710800
H380 H 0.088700 0.579100 0.680200
C381 C 0.120000 0.543800 0.736500
H382 H 0.110300 0.514100 0.723200
C383 C 0.145600 0.546100 0.781700
H384 H 0.151000 0.518300 0.799200
C385 C 0.163600 0.589000 0.801600
H386 H 0.182500 0.590600 0.832500
C387 C 0.085700 0.670700 0.867900
H388 H 0.052100 0.647800 0.850300
H389 H 0.046800 0.694200 0.880600
C390 C 0.126500 0.645200 0.908100
C391 C 0.077800 0.620900 0.938400
H392 H 0.019300 0.620700 0.933700
C393 C 0.108700 0.597400 0.974400
H394 H 0.072500 0.582800 0.995800
C395 C 0.196000 0.594700 0.979900
H396 H 0.219300 0.577000 1.004200
C397 C 0.247800 0.618400 0.949300
H398 H 0.306600 0.616300 0.952400
C399 C 0.213500 0.644800 0.914300
H400 H 0.248400 0.662700 0.894600
C401 C 0.173900 0.849700 0.911500
C402 C 0.141600 0.879100 0.986600
H403 H 0.167700 0.909200 0.979600
H404 H 0.152900 0.870800 1.018700
H405 H 0.081300 0.881400 0.981900
C406 C 0.295400 0.801300 0.905600
C407 C 0.377800 0.743600 0.946100
H408 H 0.404500 0.720600 0.926100
H409 H 0.367000 0.729600 0.976200
H410 H 0.414700 0.770600 0.949800
C411 C 0.356000 0.880000 0.708900
C412 C 0.428600 0.906400 0.699000
H413 H 0.476400 0.902900 0.717900
C414 C 0.431200 0.937300 0.662100
H415 H 0.480800 0.954400 0.656300
C416 C 0.364200 0.943600 0.634400
C417 C 0.292000 0.919500 0.640800
H418 H 0.245500 0.924000 0.621100
C419 C 0.288700 0.887300 0.678200
H420 H 0.239000 0.869900 0.682700
Br421 Br 0.632210 0.988790 0.413600
N422 N 0.856400 0.694900 0.165000
O423 O 0.587500 0.849600 0.222600
O424 O 0.857200 0.884300 0.104700
O425 O 0.823400 0.842500 0.044400
O426 O 0.645200 0.825100 0.094300
O427 O 0.702200 0.758900 0.074700
C428 C 0.643700 0.847700 0.251000
C429 C 0.714000 0.811900 0.247300
H430 H 0.702400 0.785600 0.268400
H431 H 0.767000 0.826600 0.257100
C432 C 0.723600 0.793000 0.197200
H433 H 0.666700 0.787300 0.184300
C434 C 0.768500 0.829400 0.166600
H435 H 0.822300 0.837800 0.181100
H436 H 0.734000 0.858000 0.165000
C437 C 0.785400 0.811600 0.116500
C438 C 0.847900 0.770900 0.118500
H439 H 0.905000 0.783200 0.123000
H440 H 0.846700 0.753500 0.089100
C441 C 0.824900 0.737900 0.158600
C442 C 0.773500 0.747400 0.195100
C443 C 0.775400 0.709500 0.224500
H444 H 0.746300 0.707200 0.252800
C445 C 0.825200 0.676300 0.206300
C446 C 0.846600 0.630200 0.224500
C447 C 0.874100 0.624900 0.270000
H448 H 0.881000 0.652000 0.288400
C449 C 0.891600 0.581600 0.289200
H450 H 0.911300 0.579100 0.319800
C451 C 0.880000 0.543800 0.263500
H452 H 0.889700 0.514100 0.276800
C453 C 0.854400 0.546100 0.218300
H454 H 0.849000 0.518300 0.200800
C455 C 0.836400 0.589000 0.198400
H456 H 0.817500 0.590600 0.167500
C457 C 0.914300 0.670700 0.132100
H458 H 0.947900 0.647800 0.149700
H459 H 0.953200 0.694200 0.119400
C460 C 0.873500 0.645200 0.091900
C461 C 0.922200 0.620900 0.061600
H462 H 0.980700 0.620700 0.066300
C463 C 0.891300 0.597400 0.025600
H464 H 0.927500 0.582800 0.004200
C465 C 0.804000 0.594700 0.020100
H466 H 0.780700 0.577000 -0.004200
C467 C 0.752200 0.618400 0.050700
H468 H 0.693400 0.616300 0.047600
C469 C 0.786500 0.644800 0.085700
H470 H 0.751600 0.662700 0.105400
C471 C 0.826100 0.849700 0.088500
C472 C 0.858400 0.879100 0.013400
H473 H 0.832300 0.909200 0.020400
H474 H 0.847100 0.870800 -0.018700
H475 H 0.918700 0.881400 0.018100
C476 C 0.704600 0.801300 0.094400
C477 C 0.622200 0.743600 0.053900
H478 H 0.595500 0.720600 0.073900
H479 H 0.633000 0.729600 0.023800
H480 H 0.585300 0.770600 0.050200
C481 C 0.644000 0.880000 0.291100
C482 C 0.571400 0.906400 0.301000
H483 H 0.523600 0.902900 0.282100
C484 C 0.568800 0.937300 0.337900
H485 H 0.519200 0.954400 0.343700
C486 C 0.635800 0.943600 0.365600
C487 C 0.708000 0.919500 0.359200
H488 H 0.754500 0.924000 0.378900
C489 C 0.711300 0.887300 0.321800
H490 H 0.761000 0.869900 0.317300
Br491 Br 0.367790 0.011210 0.413600
N492 N 0.143600 0.305100 0.165000
O493 O 0.412500 0.150400 0.222600
O494 O 0.142800 0.115700 0.104700
O495 O 0.176600 0.157500 0.044400
O496 O 0.354800 0.174900 0.094300
O497 O 0.297800 0.241100 0.074700
C498 C 0.356300 0.152300 0.251000
C499 C 0.286000 0.188100 0.247300
H500 H 0.297600 0.214400 0.268400
H501 H 0.233000 0.173400 0.257100
C502 C 0.276400 0.207000 0.197200
H503 H 0.333300 0.212700 0.184300
C504 C 0.231500 0.170600 0.166600
H505 H 0.177700 0.162200 0.181100
H506 H 0.266000 0.142000 0.165000
C507 C 0.214600 0.188400 0.116500
C508 C 0.152100 0.229100 0.118500
H509 H 0.095000 0.216800 0.123000
H510 H 0.153300 0.246500 0.089100
C511 C 0.175100 0.262100 0.158600
C512 C 0.226500 0.252600 0.195100
C513 C 0.224600 0.290500 0.224500
H514 H 0.253700 0.292800 0.252800
C515 C 0.174800 0.323700 0.206300
C516 C 0.153400 0.369800 0.224500
C517 C 0.125900 0.375100 0.270000
H518 H 0.119000 0.348000 0.288400
C519 C 0.108400 0.418400 0.289200
H520 H 0.088700 0.420900 0.319800
C521 C 0.120000 0.456200 0.263500
H522 H 0.110300 0.485900 0.276800
C523 C 0.145600 0.453900 0.218300
H524 H 0.151000 0.481700 0.200800
C525 C 0.163600 0.411000 0.198400
H526 H 0.182500 0.409400 0.167500
C527 C 0.085700 0.329300 0.132100
H528 H 0.052100 0.352200 0.149700
H529 H 0.046800 0.305800 0.119400
C530 C 0.126500 0.354800 0.091900
C531 C 0.077800 0.379100 0.061600
H532 H 0.019300 0.379300 0.066300
C533 C 0.108700 0.402600 0.025600
H534 H 0.072500 0.417200 0.004200
C535 C 0.196000 0.405300 0.020100
H536 H 0.219300 0.423000 -0.004200
C537 C 0.247800 0.381600 0.050700
H538 H 0.306600 0.383700 0.047600
C539 C 0.213500 0.355200 0.085700
H540 H 0.248400 0.337300 0.105400
C541 C 0.173900 0.150300 0.088500
C542 C 0.141600 0.120900 0.013400
H543 H 0.167700 0.090800 0.020400
H544 H 0.152900 0.129200 -0.018700
H545 H 0.081300 0.118600 0.018100
C546 C 0.295400 0.198700 0.094400
C547 C 0.377800 0.256400 0.053900
H548 H 0.404500 0.279400 0.073900
H549 H 0.367000 0.270400 0.023800
H550 H 0.414700 0.229400 0.050200
C551 C 0.356000 0.120000 0.291100
C552 C 0.428600 0.093600 0.301000
H553 H 0.476400 0.097100 0.282100
C554 C 0.431200 0.062700 0.337900
H555 H 0.480800 0.045600 0.343700
C556 C 0.364200 0.056400 0.365600
C557 C 0.292000 0.080500 0.359200
H558 H 0.245500 0.076000 0.378900
C559 C 0.288700 0.112700 0.321800
H560 H 0.239000 0.130100 0.317300
Br561 Br 0.378950 0.894300 0.010700
N562 N 0.618200 0.676000 0.322500
O563 O 0.346900 0.710300 0.161000
O564 O 0.403200 0.591900 0.213800
O565 O 0.472700 0.569000 0.272900
O566 O 0.594100 0.592000 0.140700
O567 O 0.606100 0.543600 0.192500
C568 C 0.400700 0.741000 0.161200
C569 C 0.467400 0.741300 0.198600
H570 H 0.521600 0.749500 0.184400
H571 H 0.453700 0.766000 0.221200
C572 C 0.476100 0.695500 0.223400
H573 H 0.419100 0.684000 0.231500
C574 C 0.518400 0.658800 0.190100
H575 H 0.479200 0.650900 0.165000
H576 H 0.568800 0.672800 0.176100
C577 C 0.543200 0.613400 0.216000
C578 C 0.608100 0.622600 0.253200
H579 H 0.612800 0.595000 0.273400
H580 H 0.663200 0.628100 0.238800
C581 C 0.584000 0.663800 0.280700
C582 C 0.527900 0.697800 0.267300
C583 C 0.532100 0.732400 0.302800
H584 H 0.501800 0.760800 0.302900
C585 C 0.585600 0.718700 0.336300
C586 C 0.604600 0.739700 0.382700
C587 C 0.632800 0.786600 0.384000
H588 H 0.643100 0.802700 0.356100
C589 C 0.645300 0.809300 0.425300
H590 H 0.661400 0.841200 0.425000
C591 C 0.635300 0.787000 0.467100
H592 H 0.645700 0.802700 0.495200
C593 C 0.610300 0.742300 0.466400
H594 H 0.602900 0.725900 0.494500
C595 C 0.594900 0.719700 0.424100
H596 H 0.576400 0.688300 0.424900
C597 C 0.684200 0.650500 0.345500
H598 H 0.713100 0.672000 0.366800
H599 H 0.725200 0.640400 0.322100
C600 C 0.656200 0.607700 0.372500
C601 C 0.716300 0.578100 0.390700
H602 H 0.773500 0.583800 0.384500
C603 C 0.693800 0.540600 0.417700
H604 H 0.736400 0.521200 0.429900
C605 C 0.613700 0.530300 0.427400
H606 H 0.600000 0.504800 0.446800
C607 C 0.551200 0.558200 0.408200
H608 H 0.494300 0.550800 0.413200
C609 C 0.573800 0.598900 0.380200
H610 H 0.532000 0.618700 0.367800
C611 C 0.467200 0.590900 0.232900
C612 C 0.398500 0.543400 0.291800
H613 H 0.358900 0.537100 0.266900
H614 H 0.371500 0.562500 0.315400
H615 H 0.416800 0.513900 0.305400
C616 C 0.580900 0.580400 0.179600
C617 C 0.648200 0.513200 0.160000
H618 H 0.606700 0.497300 0.141000
H619 H 0.681100 0.490000 0.176800
H620 H 0.685100 0.531800 0.140400
C621 C 0.397400 0.777900 0.125300
C622 C 0.337600 0.775700 0.090200
H623 H 0.299500 0.750400 0.089600
C624 C 0.332700 0.810100 0.055800
H625 H 0.291600 0.808100 0.032400
C626 C 0.388700 0.847000 0.056600
C627 C 0.447600 0.849400 0.090600
H628 H 0.486500 0.874400 0.090300
C629 C 0.452300 0.816500 0.125500
H630 H 0.492200 0.819900 0.149400
Br631 Br 0.621050 0.105700 0.010700
N632 N 0.381800 0.324000 0.322500
O633 O 0.653100 0.289700 0.161000
O634 O 0.596800 0.408100 0.213800
O635 O 0.527300 0.431000 0.272900
O636 O 0.405900 0.408000 0.140700
O637 O 0.393900 0.456400 0.192500
C638 C 0.599300 0.259000 0.161200
C639 C 0.532600 0.258700 0.198600
H640 H 0.478400 0.250500 0.184400
H641 H 0.546300 0.234000 0.221200
C642 C 0.523900 0.304500 0.223400
H643 H 0.580900 0.316000 0.231500
C644 C 0.481600 0.341200 0.190100
H645 H 0.520800 0.349100 0.165000
H646 H 0.431200 0.327200 0.176100
C647 C 0.456800 0.386600 0.216000
C648 C 0.391900 0.377400 0.253200
H649 H 0.387200 0.405000 0.273400
H650 H 0.336800 0.371900 0.238800
C651 C 0.416000 0.336200 0.280700
C652 C 0.472100 0.302200 0.267300
C653 C 0.467900 0.267600 0.302800
H654 H 0.498200 0.239200 0.302900
C655 C 0.414400 0.281300 0.336300
C656 C 0.395400 0.260300 0.382700
C657 C 0.367200 0.213400 0.384000
H658 H 0.356900 0.197300 0.356100
C659 C 0.354700 0.190700 0.425300
H660 H 0.338600 0.158800 0.425000
C661 C 0.364700 0.213000 0.467100
H662 H 0.354300 0.197300 0.495200
C663 C 0.389700 0.257700 0.466400
H664 H 0.397100 0.274100 0.494500
C665 C 0.405100 0.280300 0.424100
H666 H 0.423600 0.311700 0.424900
C667 C 0.315800 0.349500 0.345500
H668 H 0.286900 0.328000 0.366800
H669 H 0.274800 0.359600 0.322100
C670 C 0.343800 0.392300 0.372500
C671 C 0.283700 0.421900 0.390700
H672 H 0.226500 0.416200 0.384500
C673 C 0.306200 0.459400 0.417700
H674 H 0.263600 0.478800 0.429900
C675 C 0.386300 0.469700 0.427400
H676 H 0.400000 0.495200 0.446800
C677 C 0.448800 0.441800 0.408200
H678 H 0.505700 0.449200 0.413200
C679 C 0.426200 0.401100 0.380200
H680 H 0.468000 0.381300 0.367800
C681 C 0.532800 0.409100 0.232900
C682 C 0.601500 0.456600 0.291800
H683 H 0.641100 0.462900 0.266900
H684 H 0.628500 0.437500 0.315400
H685 H 0.583200 0.486100 0.305400
C686 C 0.419100 0.419600 0.179600
C687 C 0.351800 0.486800 0.160000
H688 H 0.393300 0.502700 0.141000
H689 H 0.318900 0.510000 0.176800
H690 H 0.314900 0.468200 0.140400
C691 C 0.602600 0.222100 0.125300
C692 C 0.662400 0.224300 0.090200
H693 H 0.700500 0.249600 0.089600
C694 C 0.667300 0.189900 0.055800
H695 H 0.708400 0.191900 0.032400
C696 C 0.611300 0.153000 0.056600
C697 C 0.552400 0.150600 0.090600
H698 H 0.513500 0.125600 0.090300
C699 C 0.547700 0.183500 0.125500
H700 H 0.507800 0.180100 0.149400
Br701 Br 0.378950 0.105700 0.989300
N702 N 0.618200 0.324000 0.677500
O703 O 0.346900 0.289700 0.839000
O704 O 0.403200 0.408100 0.786200
O705 O 0.472700 0.431000 0.727100
O706 O 0.594100 0.408000 0.859300
O707 O 0.606100 0.456400 0.807500
C708 C 0.400700 0.259000 0.838800
C709 C 0.467400 0.258700 0.801400
H710 H 0.521600 0.250500 0.815600
H711 H 0.453700 0.234000 0.778800
C712 C 0.476100 0.304500 0.776600
H713 H 0.419100 0.316000 0.768500
C714 C 0.518400 0.341200 0.809900
H715 H 0.479200 0.349100 0.835000
H716 H 0.568800 0.327200 0.823900
C717 C 0.543200 0.386600 0.784000
C718 C 0.608100 0.377400 0.746800
H719 H 0.612800 0.405000 0.726600
H720 H 0.663200 0.371900 0.761200
C721 C 0.584000 0.336200 0.719300
C722 C 0.527900 0.302200 0.732700
C723 C 0.532100 0.267600 0.697200
H724 H 0.501800 0.239200 0.697100
C725 C 0.585600 0.281300 0.663700
C726 C 0.604600 0.260300 0.617300
C727 C 0.632800 0.213400 0.616000
H728 H 0.643100 0.197300 0.643900
C729 C 0.645300 0.190700 0.574700
H730 H 0.661400 0.158800 0.575000
C731 C 0.635300 0.213000 0.532900
H732 H 0.645700 0.197300 0.504800
C733 C 0.610300 0.257700 0.533600
H734 H 0.602900 0.274100 0.505500
C735 C 0.594900 0.280300 0.575900
H736 H 0.576400 0.311700 0.575100
C737 C 0.684200 0.349500 0.654500
H738 H 0.713100 0.328000 0.633200
H739 H 0.725200 0.359600 0.677900
C740 C 0.656200 0.392300 0.627500
C741 C 0.716300 0.421900 0.609300
H742 H 0.773500 0.416200 0.615500
C743 C 0.693800 0.459400 0.582300
H744 H 0.736400 0.478800 0.570100
C745 C 0.613700 0.469700 0.572600
H746 H 0.600000 0.495200 0.553200
C747 C 0.551200 0.441800 0.591800
H748 H 0.494300 0.449200 0.586800
C749 C 0.573800 0.401100 0.619800
H750 H 0.532000 0.381300 0.632200
C751 C 0.467200 0.409100 0.767100
C752 C 0.398500 0.456600 0.708200
H753 H 0.358900 0.462900 0.733100
H754 H 0.371500 0.437500 0.684600
H755 H 0.416800 0.486100 0.694600
C756 C 0.580900 0.419600 0.820400
C757 C 0.648200 0.486800 0.840000
H758 H 0.606700 0.502700 0.859000
H759 H 0.681100 0.510000 0.823200
H760 H 0.685100 0.468200 0.859600
C761 C 0.397400 0.222100 0.874700
C762 C 0.337600 0.224300 0.909800
H763 H 0.299500 0.249600 0.910400
C764 C 0.332700 0.189900 0.944200
H765 H 0.291600 0.191900 0.967600
C766 C 0.388700 0.153000 0.943400
C767 C 0.447600 0.150600 0.909400
H768 H 0.486500 0.125600 0.909700
C769 C 0.452300 0.183500 0.874500
H770 H 0.492200 0.180100 0.850600
Br771 Br 0.621050 0.894300 0.989300
N772 N 0.381800 0.676000 0.677500
O773 O 0.653100 0.710300 0.839000
O774 O 0.596800 0.591900 0.786200
O775 O 0.527300 0.569000 0.727100
O776 O 0.405900 0.592000 0.859300
O777 O 0.393900 0.543600 0.807500
C778 C 0.599300 0.741000 0.838800
C779 C 0.532600 0.741300 0.801400
H780 H 0.478400 0.749500 0.815600
H781 H 0.546300 0.766000 0.778800
C782 C 0.523900 0.695500 0.776600
H783 H 0.580900 0.684000 0.768500
C784 C 0.481600 0.658800 0.809900
H785 H 0.520800 0.650900 0.835000
H786 H 0.431200 0.672800 0.823900
C787 C 0.456800 0.613400 0.784000
C788 C 0.391900 0.622600 0.746800
H789 H 0.387200 0.595000 0.726600
H790 H 0.336800 0.628100 0.761200
C791 C 0.416000 0.663800 0.719300
C792 C 0.472100 0.697800 0.732700
C793 C 0.467900 0.732400 0.697200
H794 H 0.498200 0.760800 0.697100
C795 C 0.414400 0.718700 0.663700
C796 C 0.395400 0.739700 0.617300
C797 C 0.367200 0.786600 0.616000
H798 H 0.356900 0.802700 0.643900
C799 C 0.354700 0.809300 0.574700
H800 H 0.338600 0.841200 0.575000
C801 C 0.364700 0.787000 0.532900
H802 H 0.354300 0.802700 0.504800
C803 C 0.389700 0.742300 0.533600
H804 H 0.397100 0.725900 0.505500
C805 C 0.405100 0.719700 0.575900
H806 H 0.423600 0.688300 0.575100
C807 C 0.315800 0.650500 0.654500
H808 H 0.286900 0.672000 0.633200
H809 H 0.274800 0.640400 0.677900
C810 C 0.343800 0.607700 0.627500
C811 C 0.283700 0.578100 0.609300
H812 H 0.226500 0.583800 0.615500
C813 C 0.306200 0.540600 0.582300
H814 H 0.263600 0.521200 0.570100
C815 C 0.386300 0.530300 0.572600
H816 H 0.400000 0.504800 0.553200
C817 C 0.448800 0.558200 0.591800
H818 H 0.505700 0.550800 0.586800
C819 C 0.426200 0.598900 0.619800
H820 H 0.468000 0.618700 0.632200
C821 C 0.532800 0.590900 0.767100
C822 C 0.601500 0.543400 0.708200
H823 H 0.641100 0.537100 0.733100
H824 H 0.628500 0.562500 0.684600
H825 H 0.583200 0.513900 0.694600
C826 C 0.419100 0.580400 0.820400
C827 C 0.351800 0.513200 0.840000
H828 H 0.393300 0.497300 0.859000
H829 H 0.318900 0.490000 0.823200
H830 H 0.314900 0.531800 0.859600
C831 C 0.602600 0.777900 0.874700
C832 C 0.662400 0.775700 0.909800
H833 H 0.700500 0.750400 0.910400
C834 C 0.667300 0.810100 0.944200
H835 H 0.708400 0.808100 0.967600
C836 C 0.611300 0.847000 0.943400
C837 C 0.552400 0.849400 0.909400
H838 H 0.513500 0.874400 0.909700
C839 C 0.547700 0.816500 0.874500
H840 H 0.507800 0.819900 0.850600
Br841 Br -0.121050 0.394300 0.510700
N842 N 0.118200 0.176000 0.822500
O843 O -0.153100 0.210300 0.661000
O844 O -0.096800 0.091900 0.713800
O845 O -0.027300 0.069000 0.772900
O846 O 0.094100 0.092000 0.640700
O847 O 0.106100 0.043600 0.692500
C848 C -0.099300 0.241000 0.661200
C849 C -0.032600 0.241300 0.698600
H850 H 0.021600 0.249500 0.684400
H851 H -0.046300 0.266000 0.721200
C852 C -0.023900 0.195500 0.723400
H853 H -0.080900 0.184000 0.731500
C854 C 0.018400 0.158800 0.690100
H855 H -0.020800 0.150900 0.665000
H856 H 0.068800 0.172800 0.676100
C857 C 0.043200 0.113400 0.716000
C858 C 0.108100 0.122600 0.753200
H859 H 0.112800 0.095000 0.773400
H860 H 0.163200 0.128100 0.738800
C861 C 0.084000 0.163800 0.780700
C862 C 0.027900 0.197800 0.767300
C863 C 0.032100 0.232400 0.802800
H864 H 0.001800 0.260800 0.802900
C865 C 0.085600 0.218700 0.836300
C866 C 0.104600 0.239700 0.882700
C867 C 0.132800 0.286600 0.884000
H868 H 0.143100 0.302700 0.856100
C869 C 0.145300 0.309300 0.925300
H870 H 0.161400 0.341200 0.925000
C871 C 0.135300 0.287000 0.967100
H872 H 0.145700 0.302700 0.995200
C873 C 0.110300 0.242300 0.966400
H874 H 0.102900 0.225900 0.994500
C875 C 0.094900 0.219700 0.924100
H876 H 0.076400 0.188300 0.924900
C877 C 0.184200 0.150500 0.845500
H878 H 0.213100 0.172000 0.866800
H879 H 0.225200 0.140400 0.822100
C880 C 0.156200 0.107700 0.872500
C881 C 0.216300 0.078100 0.890700
H882 H 0.273500 0.083800 0.884500
C883 C 0.193800 0.040600 0.917700
H884 H 0.236400 0.021200 0.929900
C885 C 0.113700 0.030300 0.927400
H886 H 0.100000 0.004800 0.946800
C887 C 0.051200 0.058200 0.908200
H888 H -0.005700 0.050800 0.913200
C889 C 0.073800 0.098900 0.880200
H890 H 0.032000 0.118700 0.867800
C891 C -0.032800 0.090900 0.732900
C892 C -0.101500 0.043400 0.791800
H893 H -0.141100 0.037100 0.766900
H894 H -0.128500 0.062500 0.815400
H895 H -0.083200 0.013900 0.805400
C896 C 0.080900 0.080400 0.679600
C897 C 0.148200 0.013200 0.660000
H898 H 0.106700 -0.002700 0.641000
H899 H 0.181100 -0.010000 0.676800
H900 H 0.185100 0.031800 0.640400
C901 C -0.102600 0.277900 0.625300
C902 C -0.162400 0.275700 0.590200
H903 H -0.200500 0.250400 0.589600
C904 C -0.167300 0.310100 0.555800
H905 H -0.208400 0.308100 0.532400
C906 C -0.111300 0.347000 0.556600
C907 C -0.052400 0.349400 0.590600
H908 H -0.013500 0.374400 0.590300
C909 C -0.047700 0.316500 0.625500
H910 H -0.007800 0.319900 0.649400
Br911 Br 1.121050 0.605700 0.510700
N912 N 0.881800 0.824000 0.822500
O913 O 1.153100 0.789700 0.661000
O914 O 1.096800 0.908100 0.713800
O915 O 1.027300 0.931000 0.772900
O916 O 0.905900 0.908000 0.640700
O917 O 0.893900 0.956400 0.692500
C918 C 1.099300 0.759000 0.661200
C919 C 1.032600 0.758700 0.698600
H920 H 0.978400 0.750500 0.684400
H921 H 1.046300 0.734000 0.721200
C922 C 1.023900 0.804500 0.723400
H923 H 1.080900 0.816000 0.731500
C924 C 0.981600 0.841200 0.690100
H925 H 1.020800 0.849100 0.665000
H926 H 0.931200 0.827200 0.676100
C927 C 0.956800 0.886600 0.716000
C928 C 0.891900 0.877400 0.753200
H929 H 0.887200 0.905000 0.773400
H930 H 0.836800 0.871900 0.738800
C931 C 0.916000 0.836200 0.780700
C932 C 0.972100 0.802200 0.767300
C933 C 0.967900 0.767600 0.802800
H934 H 0.998200 0.739200 0.802900
C935 C 0.914400 0.781300 0.836300
C936 C 0.895400 0.760300 0.882700
C937 C 0.867200 0.713400 0.884000
H938 H 0.856900 0.697300 0.856100
C939 C 0.854700 0.690700 0.925300
H940 H 0.838600 0.658800 0.925000
C941 C 0.864700 0.713000 0.967100
H942 H 0.854300 0.697300 0.995200
C943 C 0.889700 0.757700 0.966400
H944 H 0.897100 0.774100 0.994500
C945 C 0.905100 0.780300 0.924100
H946 H 0.923600 0.811700 0.924900
C947 C 0.815800 0.849500 0.845500
H948 H 0.786900 0.828000 0.866800
H949 H 0.774800 0.859600 0.822100
C950 C 0.843800 0.892300 0.872500
C951 C 0.783700 0.921900 0.890700
H952 H 0.726500 0.916200 0.884500
C953 C 0.806200 0.959400 0.917700
H954 H 0.763600 0.978800 0.929900
C955 C 0.886300 0.969700 0.927400
H956 H 0.900000 0.995200 0.946800
C957 C 0.948800 0.941800 0.908200
H958 H 1.005700 0.949200 0.913200
C959 C 0.926200 0.901100 0.880200
H960 H 0.968000 0.881300 0.867800
C961 C 1.032800 0.909100 0.732900
C962 C 1.101500 0.956600 0.791800
H963 H 1.141100 0.962900 0.766900
H964 H 1.128500 0.937500 0.815400
H965 H 1.083200 0.986100 0.805400
C966 C 0.919100 0.919600 0.679600
C967 C 0.851800 0.986800 0.660000
H968 H 0.893300 1.002700 0.641000
H969 H 0.818900 1.010000 0.676800
H970 H 0.814900 0.968200 0.640400
C971 C 1.102600 0.722100 0.625300
C972 C 1.162400 0.724300 0.590200
H973 H 1.200500 0.749600 0.589600
C974 C 1.167300 0.689900 0.555800
H975 H 1.208400 0.691900 0.532400
C976 C 1.111300 0.653000 0.556600
C977 C 1.052400 0.650600 0.590600
H978 H 1.013500 0.625600 0.590300
C979 C 1.047700 0.683500 0.625500
H980 H 1.007800 0.680100 0.649400
Br981 Br -0.121050 0.605700 0.489300
N982 N 0.118200 0.824000 0.177500
O983 O -0.153100 0.789700 0.339000
O984 O -0.096800 0.908100 0.286200
O985 O -0.027300 0.931000 0.227100
O986 O 0.094100 0.908000 0.359300
O987 O 0.106100 0.956400 0.307500
C988 C -0.099300 0.759000 0.338800
C989 C -0.032600 0.758700 0.301400
H990 H 0.021600 0.750500 0.315600
H991 H -0.046300 0.734000 0.278800
C992 C -0.023900 0.804500 0.276600
H993 H -0.080900 0.816000 0.268500
C994 C 0.018400 0.841200 0.309900
H995 H -0.020800 0.849100 0.335000
H996 H 0.068800 0.827200 0.323900
C997 C 0.043200 0.886600 0.284000
C998 C 0.108100 0.877400 0.246800
H999 H 0.112800 0.905000 0.226600
H1000 H 0.163200 0.871900 0.261200
C1001 C 0.084000 0.836200 0.219300
C1002 C 0.027900 0.802200 0.232700
C1003 C 0.032100 0.767600 0.197200
H1004 H 0.001800 0.739200 0.197100
C1005 C 0.085600 0.781300 0.163700
C1006 C 0.104600 0.760300 0.117300
C1007 C 0.132800 0.713400 0.116000
H1008 H 0.143100 0.697300 0.143900
C1009 C 0.145300 0.690700 0.074700
H1010 H 0.161400 0.658800 0.075000
C1011 C 0.135300 0.713000 0.032900
H1012 H 0.145700 0.697300 0.004800
C1013 C 0.110300 0.757700 0.033600
H1014 H 0.102900 0.774100 0.005500
C1015 C 0.094900 0.780300 0.075900
H1016 H 0.076400 0.811700 0.075100
C1017 C 0.184200 0.849500 0.154500
H1018 H 0.213100 0.828000 0.133200
H1019 H 0.225200 0.859600 0.177900
C1020 C 0.156200 0.892300 0.127500
C1021 C 0.216300 0.921900 0.109300
H1022 H 0.273500 0.916200 0.115500
C1023 C 0.193800 0.959400 0.082300
H1024 H 0.236400 0.978800 0.070100
C1025 C 0.113700 0.969700 0.072600
H1026 H 0.100000 0.995200 0.053200
C1027 C 0.051200 0.941800 0.091800
H1028 H -0.005700 0.949200 0.086800
C1029 C 0.073800 0.901100 0.119800
H1030 H 0.032000 0.881300 0.132200
C1031 C -0.032800 0.909100 0.267100
C1032 C -0.101500 0.956600 0.208200
H1033 H -0.141100 0.962900 0.233100
H1034 H -0.128500 0.937500 0.184600
H1035 H -0.083200 0.986100 0.194600
C1036 C 0.080900 0.919600 0.320400
C1037 C 0.148200 0.986800 0.340000
H1038 H 0.106700 1.002700 0.359000
H1039 H 0.181100 1.010000 0.323200
H1040 H 0.185100 0.968200 0.359600
C1041 C -0.102600 0.722100 0.374700
C1042 C -0.162400 0.724300 0.409800
H1043 H -0.200500 0.749600 0.410400
C1044 C -0.167300 0.689900 0.444200
H1045 H -0.208400 0.691900 0.467600
C1046 C -0.111300 0.653000 0.443400
C1047 C -0.052400 0.650600 0.409400
H1048 H -0.013500 0.625600 0.409700
C1049 C -0.047700 0.683500 0.374500
H1050 H -0.007800 0.680100 0.350600
Br1051 Br 1.121050 0.394300 0.489300
N1052 N 0.881800 0.176000 0.177500
O1053 O 1.153100 0.210300 0.339000
O1054 O 1.096800 0.091900 0.286200
O1055 O 1.027300 0.069000 0.227100
O1056 O 0.905900 0.092000 0.359300
O1057 O 0.893900 0.043600 0.307500
C1058 C 1.099300 0.241000 0.338800
C1059 C 1.032600 0.241300 0.301400
H1060 H 0.978400 0.249500 0.315600
H1061 H 1.046300 0.266000 0.278800
C1062 C 1.023900 0.195500 0.276600
H1063 H 1.080900 0.184000 0.268500
C1064 C 0.981600 0.158800 0.309900
H1065 H 1.020800 0.150900 0.335000
H1066 H 0.931200 0.172800 0.323900
C1067 C 0.956800 0.113400 0.284000
C1068 C 0.891900 0.122600 0.246800
H1069 H 0.887200 0.095000 0.226600
H1070 H 0.836800 0.128100 0.261200
C1071 C 0.916000 0.163800 0.219300
C1072 C 0.972100 0.197800 0.232700
C1073 C 0.967900 0.232400 0.197200
H1074 H 0.998200 0.260800 0.197100
C1075 C 0.914400 0.218700 0.163700
C1076 C 0.895400 0.239700 0.117300
C1077 C 0.867200 0.286600 0.116000
H1078 H 0.856900 0.302700 0.143900
C1079 C 0.854700 0.309300 0.074700
H1080 H 0.838600 0.341200 0.075000
C1081 C 0.864700 0.287000 0.032900
H1082 H 0.854300 0.302700 0.004800
C1083 C 0.889700 0.242300 0.033600
H1084 H 0.897100 0.225900 0.005500
C1085 C 0.905100 0.219700 0.075900
H1086 H 0.923600 0.188300 0.075100
C1087 C 0.815800 0.150500 0.154500
H1088 H 0.786900 0.172000 0.133200
H1089 H 0.774800 0.140400 0.177900
C1090 C 0.843800 0.107700 0.127500
C1091 C 0.783700 0.078100 0.109300
H1092 H 0.726500 0.083800 0.115500
C1093 C 0.806200 0.040600 0.082300
H1094 H 0.763600 0.021200 0.070100
C1095 C 0.886300 0.030300 0.072600
H1096 H 0.900000 0.004800 0.053200
C1097 C 0.948800 0.058200 0.091800
H1098 H 1.005700 0.050800 0.086800
C1099 C 0.926200 0.098900 0.119800
H1100 H 0.968000 0.118700 0.132200
C1101 C 1.032800 0.090900 0.267100
C1102 C 1.101500 0.043400 0.208200
H1103 H 1.141100 0.037100 0.233100
H1104 H 1.128500 0.062500 0.184600
H1105 H 1.083200 0.013900 0.194600
C1106 C 0.919100 0.080400 0.320400
C1107 C 0.851800 0.013200 0.340000
H1108 H 0.893300 -0.002700 0.359000
H1109 H 0.818900 -0.010000 0.323200
H1110 H 0.814900 0.031800 0.359600
C1111 C 1.102600 0.277900 0.374700
C1112 C 1.162400 0.275700 0.409800
H1113 H 1.200500 0.250400 0.410400
C1114 C 1.167300 0.310100 0.444200
H1115 H 1.208400 0.308100 0.467600
C1116 C 1.111300 0.347000 0.443400
C1117 C 1.052400 0.349400 0.409400
H1118 H 1.013500 0.374400 0.409700
C1119 C 1.047700 0.316500 0.374500
H1120 H 1.007800 0.319900 0.350600

#END
