./KAFSES_from_xyz.cif_generated_by_CrystalShift
_symmetry_cell_setting triclinic
_symmetry_space_group_name_H-M 'P 1'
loop_
_symmetry_equiv_pos_site_id
_symmetry_equiv_pos_as_xyz
1 x,y,z
_cell_length_a 11.104000
_cell_length_b 11.535000
_cell_length_c 13.956000
_cell_angle_alpha 95.274000
_cell_angle_beta 100.098000
_cell_angle_gamma 113.620000
_cell_volume 1586.150803
loop_
_atom_site_label
_atom_site_type_symbol
_atom_site_fract_x
_atom_site_fract_y
_atom_site_fract_z
O1 O 1.206500 0.752200 0.443670
Pt2 Pt 0.779350 0.765380 0.896280
N3 N 0.820400 0.933100 0.985300
N4 N 0.726700 0.804400 0.756080
N5 N 0.786200 0.787700 0.687130
N6 N 0.806900 0.602800 0.736310
N7 N 0.748900 0.602800 0.810110
F8 F 0.974700 0.909200 1.280330
F9 F 0.949300 0.508900 1.152710
C10 C 0.844800 0.705200 0.691440
C11 C 0.847600 0.728200 1.026750
C12 C 0.882100 0.827500 1.108000
C13 C 0.938800 0.814000 1.201100
C14 C 0.962200 0.708900 1.218800
H15 H 1.000500 0.701800 1.283200
C16 C 0.927200 0.614300 1.138000
C17 C 0.872700 0.621200 1.043400
H18 H 0.852200 0.554000 0.989900
C19 C 0.864300 0.940900 1.084440
C20 C 0.890100 1.051100 1.150600
H21 H 0.917400 1.055000 1.219700
C22 C 0.876000 1.154200 1.115900
H23 H 0.893800 1.229300 1.160700
C24 C 0.836000 1.147000 1.015300
H25 H 0.827000 1.217400 0.989700
C26 C 0.809300 1.035300 0.952800
H27 H 0.781700 1.030400 0.883600
C28 C 0.635400 0.860100 0.726900
C29 C 0.522900 0.828100 0.767800
H30 H 0.508700 0.770700 0.813600
C31 C 0.431700 0.880300 0.741400
H32 H 0.354400 0.856800 0.768700
C33 C 0.451000 0.966100 0.675800
C34 C 0.564400 0.997100 0.635500
H35 H 0.579600 1.056000 0.590800
C36 C 0.655100 0.943700 0.659500
H37 H 0.730400 0.964200 0.630100
C38 C 0.355500 1.027800 0.651000
H39 H 0.394300 1.114700 0.690400
H40 H 0.268800 0.976100 0.666100
H41 H 0.341200 1.032800 0.580500
C42 C 0.936500 0.713000 0.625240
C43 C 0.954000 0.795700 0.555900
H44 H 0.903800 0.845800 0.549700
C45 C 1.043700 0.805000 0.496600
H46 H 1.054100 0.861000 0.449700
C47 C 1.118800 0.733300 0.504930
C48 C 1.103800 0.651300 0.573000
H49 H 1.154700 0.601800 0.579000
C50 C 1.013000 0.642200 0.632660
H51 H 1.003100 0.586300 0.679600
C52 C 1.293000 0.687600 0.456700
H53 H 1.345200 0.711800 0.525400
H54 H 1.355000 0.712300 0.412400
H55 H 1.238200 0.594300 0.441000
C56 C 0.679000 0.479700 0.833180
C57 C 0.578200 0.462400 0.884500
H58 H 0.551400 0.529600 0.897700
C59 C 0.517000 0.347100 0.916400
H60 H 0.448500 0.336400 0.951800
C61 C 0.553600 0.247300 0.897900
C62 C 0.650700 0.263800 0.842160
H63 H 0.674400 0.194900 0.826500
C64 C 0.712700 0.377300 0.809610
H65 H 0.777800 0.386400 0.771400
C66 C 0.491600 0.125000 0.937800
H67 H 0.491400 0.146300 1.007300
H68 H 0.544600 0.075200 0.932500
H69 H 0.398600 0.074000 0.899400
O70 O -0.206500 0.247800 0.556330
Pt71 Pt 0.220650 0.234620 0.103720
N72 N 0.179600 0.066900 0.014700
N73 N 0.273300 0.195600 0.243920
N74 N 0.213800 0.212300 0.312870
N75 N 0.193100 0.397200 0.263690
N76 N 0.251100 0.397200 0.189890
F77 F 0.025300 0.090800 -0.280330
F78 F 0.050700 0.491100 -0.152710
C79 C 0.155200 0.294800 0.308560
C80 C 0.152400 0.271800 -0.026750
C81 C 0.117900 0.172500 -0.108000
C82 C 0.061200 0.186000 -0.201100
C83 C 0.037800 0.291100 -0.218800
H84 H -0.000500 0.298200 -0.283200
C85 C 0.072800 0.385700 -0.138000
C86 C 0.127300 0.378800 -0.043400
H87 H 0.147800 0.446000 0.010100
C88 C 0.135700 0.059100 -0.084440
C89 C 0.109900 -0.051100 -0.150600
H90 H 0.082600 -0.055000 -0.219700
C91 C 0.124000 -0.154200 -0.115900
H92 H 0.106200 -0.229300 -0.160700
C93 C 0.164000 -0.147000 -0.015300
H94 H 0.173000 -0.217400 0.010300
C95 C 0.190700 -0.035300 0.047200
H96 H 0.218300 -0.030400 0.116400
C97 C 0.364600 0.139900 0.273100
C98 C 0.477100 0.171900 0.232200
H99 H 0.491300 0.229300 0.186400
C100 C 0.568300 0.119700 0.258600
H101 H 0.645600 0.143200 0.231300
C102 C 0.549000 0.033900 0.324200
C103 C 0.435600 0.002900 0.364500
H104 H 0.420400 -0.056000 0.409200
C105 C 0.344900 0.056300 0.340500
H106 H 0.269600 0.035800 0.369900
C107 C 0.644500 -0.027800 0.349000
H108 H 0.605700 -0.114700 0.309600
H109 H 0.731200 0.023900 0.333900
H110 H 0.658800 -0.032800 0.419500
C111 C 0.063500 0.287000 0.374760
C112 C 0.046000 0.204300 0.444100
H113 H 0.096200 0.154200 0.450300
C114 C -0.043700 0.195000 0.503400
H115 H -0.054100 0.139000 0.550300
C116 C -0.118800 0.266700 0.495070
C117 C -0.103800 0.348700 0.427000
H118 H -0.154700 0.398200 0.421000
C119 C -0.013000 0.357800 0.367340
H120 H -0.003100 0.413700 0.320400
C121 C -0.293000 0.312400 0.543300
H122 H -0.345200 0.288200 0.474600
H123 H -0.355000 0.287700 0.587600
H124 H -0.238200 0.405700 0.559000
C125 C 0.321000 0.520300 0.166820
C126 C 0.421800 0.537600 0.115500
H127 H 0.448600 0.470400 0.102300
C128 C 0.483000 0.652900 0.083600
H129 H 0.551500 0.663600 0.048200
C130 C 0.446400 0.752700 0.102100
C131 C 0.349300 0.736200 0.157840
H132 H 0.325600 0.805100 0.173500
C133 C 0.287300 0.622700 0.190390
H134 H 0.222200 0.613600 0.228600
C135 C 0.508400 0.875000 0.062200
H136 H 0.508600 0.853700 -0.007300
H137 H 0.455400 0.924800 0.067500
H138 H 0.601400 0.926000 0.100600

#END
