./KAFYEW_from_xyz.cif_generated_by_CrystalShift
_symmetry_cell_setting triclinic
_symmetry_space_group_name_H-M 'P 1'
loop_
_symmetry_equiv_pos_site_id
_symmetry_equiv_pos_as_xyz
1 x,y,z
_cell_length_a 10.774500
_cell_length_b 8.174500
_cell_length_c 10.662500
_cell_angle_alpha 90.000000
_cell_angle_beta 90.000000
_cell_angle_gamma 90.000000
_cell_volume 939.111952
loop_
_atom_site_label
_atom_site_type_symbol
_atom_site_fract_x
_atom_site_fract_y
_atom_site_fract_z
N1 N 0.603260 0.378700 0.653350
N2 N 0.677620 0.235600 0.649120
H3 H 0.740000 0.256000 0.597000
C4 C 0.731000 0.207900 0.774100
H5 H 0.788100 0.111800 0.768000
N6 N 0.803300 0.346400 0.819200
H7 H 0.877200 0.349000 0.783000
N8 N 0.741200 0.498100 0.793460
C9 C 0.635000 0.508600 0.725100
C10 C 0.484500 0.365100 0.589700
H11 H 0.437900 0.467100 0.600200
H12 H 0.437200 0.274200 0.625800
H13 H 0.498400 0.344800 0.500200
C14 C 0.778000 0.627400 0.878400
H15 H 0.760100 0.594300 0.964800
H16 H 0.731600 0.727200 0.858500
H17 H 0.867100 0.648200 0.869300
O18 O 0.570300 0.636200 0.727840
N19 N 0.509400 0.177800 1.023000
H20 H 0.476000 0.219000 1.089000
N21 N 0.604620 0.255800 0.964200
C22 C 0.627900 0.163200 0.864300
C23 C 0.549400 0.027600 0.859600
H24 H 0.548100 -0.056700 0.798200
C25 C 0.474600 0.042700 0.962700
H26 H 0.409900 -0.029700 0.986700
N27 N 0.396740 0.621300 0.153350
N28 N 0.322380 0.764400 0.149120
H29 H 0.260000 0.744000 0.097000
C30 C 0.269000 0.792100 0.274100
H31 H 0.211900 0.888200 0.268000
N32 N 0.196700 0.653600 0.319200
H33 H 0.122800 0.651000 0.283000
N34 N 0.258800 0.501900 0.293460
C35 C 0.365000 0.491400 0.225100
C36 C 0.515500 0.634900 0.089700
H37 H 0.562100 0.532900 0.100200
H38 H 0.562800 0.725800 0.125800
H39 H 0.501600 0.655200 0.000200
C40 C 0.222000 0.372600 0.378400
H41 H 0.239900 0.405700 0.464800
H42 H 0.268400 0.272800 0.358500
H43 H 0.132900 0.351800 0.369300
O44 O 0.429700 0.363800 0.227840
N45 N 0.490600 0.822200 0.523000
H46 H 0.524000 0.781000 0.589000
N47 N 0.395380 0.744200 0.464200
C48 C 0.372100 0.836800 0.364300
C49 C 0.450600 0.972400 0.359600
H50 H 0.451900 1.056700 0.298200
C51 C 0.525400 0.957300 0.462700
H52 H 0.590100 1.029700 0.486700
N53 N 0.896740 0.378700 0.153350
N54 N 0.822380 0.235600 0.149120
H55 H 0.760000 0.256000 0.097000
C56 C 0.769000 0.207900 0.274100
H57 H 0.711900 0.111800 0.268000
N58 N 0.696700 0.346400 0.319200
H59 H 0.622800 0.349000 0.283000
N60 N 0.758800 0.498100 0.293460
C61 C 0.865000 0.508600 0.225100
C62 C 1.015500 0.365100 0.089700
H63 H 1.062100 0.467100 0.100200
H64 H 1.062800 0.274200 0.125800
H65 H 1.001600 0.344800 0.000200
C66 C 0.722000 0.627400 0.378400
H67 H 0.739900 0.594300 0.464800
H68 H 0.768400 0.727200 0.358500
H69 H 0.632900 0.648200 0.369300
O70 O 0.929700 0.636200 0.227840
N71 N 0.990600 0.177800 0.523000
H72 H 1.024000 0.219000 0.589000
N73 N 0.895380 0.255800 0.464200
C74 C 0.872100 0.163200 0.364300
C75 C 0.950600 0.027600 0.359600
H76 H 0.951900 -0.056700 0.298200
C77 C 1.025400 0.042700 0.462700
H78 H 1.090100 -0.029700 0.486700
N79 N 0.103260 0.621300 0.653350
N80 N 0.177620 0.764400 0.649120
H81 H 0.240000 0.744000 0.597000
C82 C 0.231000 0.792100 0.774100
H83 H 0.288100 0.888200 0.768000
N84 N 0.303300 0.653600 0.819200
H85 H 0.377200 0.651000 0.783000
N86 N 0.241200 0.501900 0.793460
C87 C 0.135000 0.491400 0.725100
C88 C -0.015500 0.634900 0.589700
H89 H -0.062100 0.532900 0.600200
H90 H -0.062800 0.725800 0.625800
H91 H -0.001600 0.655200 0.500200
C92 C 0.278000 0.372600 0.878400
H93 H 0.260100 0.405700 0.964800
H94 H 0.231600 0.272800 0.858500
H95 H 0.367100 0.351800 0.869300
O96 O 0.070300 0.363800 0.727840
N97 N 0.009400 0.822200 1.023000
H98 H -0.024000 0.781000 1.089000
N99 N 0.104620 0.744200 0.964200
C100 C 0.127900 0.836800 0.864300
C101 C 0.049400 0.972400 0.859600
H102 H 0.048100 1.056700 0.798200
C103 C -0.025400 0.957300 0.962700
H104 H -0.090100 1.029700 0.986700

#END
