./KAGFOP_from_xyz.cif_generated_by_CrystalShift
_symmetry_cell_setting triclinic
_symmetry_space_group_name_H-M 'P 1'
loop_
_symmetry_equiv_pos_site_id
_symmetry_equiv_pos_as_xyz
1 x,y,z
_cell_length_a 12.337000
_cell_length_b 17.164100
_cell_length_c 12.389700
_cell_angle_alpha 90.000000
_cell_angle_beta 114.989000
_cell_angle_gamma 90.000000
_cell_volume 2377.967896
loop_
_atom_site_label
_atom_site_type_symbol
_atom_site_fract_x
_atom_site_fract_y
_atom_site_fract_z
C1 C 0.065300 0.113190 0.126900
C2 C 0.185900 0.085740 0.157200
C3 C 0.244300 0.095400 0.083700
H4 H 0.208200 0.124700 0.014500
C5 C 0.356800 0.061700 0.112100
H6 H 0.395700 0.071300 0.063500
C7 C 0.409300 0.016000 0.208300
H8 H 0.482800 -0.006900 0.224000
C9 C 0.353600 0.002100 0.286700
C10 C 0.403000 -0.047500 0.385200
H11 H 0.473400 -0.074200 0.399800
C12 C 0.348800 -0.057000 0.459900
H13 H 0.380500 -0.092400 0.522400
C14 C 0.248100 -0.015340 0.444400
H15 H 0.214800 -0.021500 0.498700
C16 C 0.194500 0.036070 0.349100
C17 C 0.089000 0.083110 0.329000
C18 C 0.061700 0.111190 0.418600
C19 C -0.053600 0.148950 0.391100
C20 C -0.082500 0.180500 0.477900
H21 H -0.024600 0.183800 0.555900
C22 C -0.198000 0.207400 0.449600
H23 H -0.215100 0.230300 0.508800
C24 C -0.285900 0.201100 0.337900
H25 H -0.363000 0.217400 0.322300
C26 C -0.261500 0.170000 0.244500
C27 C -0.349300 0.162100 0.126700
H28 H -0.427900 0.176300 0.108300
C29 C -0.321100 0.134300 0.041500
H30 H -0.381300 0.127900 -0.034800
C31 C -0.204700 0.114700 0.063000
H32 H -0.188000 0.095900 0.001300
C33 C -0.112800 0.123190 0.176700
C34 C 0.013400 0.105160 0.205400
C35 C 0.244800 0.041490 0.264400
C36 C -0.142700 0.147270 0.270700
C37 C 0.003200 0.155260 0.010100
C38 C -0.017200 0.234300 0.009700
H39 H 0.008600 0.260700 0.081900
C40 C -0.074600 0.275100 -0.094200
H41 H -0.086900 0.328500 -0.092600
C42 C -0.114400 0.235500 -0.202600
H43 H -0.156700 0.261800 -0.273700
C44 C -0.090600 0.157100 -0.203400
H45 H -0.113700 0.131000 -0.275500
C46 C -0.033200 0.117300 -0.098600
H47 H -0.018400 0.064300 -0.100200
C48 C 0.150000 0.108680 0.546500
C49 C 0.254500 0.152220 0.582900
H50 H 0.268800 0.182300 0.527800
C51 C 0.336900 0.151000 0.699900
H52 H 0.406300 0.180500 0.722600
C53 C 0.319800 0.108500 0.782200
H54 H 0.377800 0.107000 0.860300
C55 C 0.214700 0.066700 0.749200
H56 H 0.200500 0.038600 0.806100
C57 C 0.131000 0.066600 0.632700
H58 H 0.060900 0.038000 0.611300
C59 C 0.434700 0.613190 0.373100
C60 C 0.314100 0.585740 0.342800
C61 C 0.255700 0.595400 0.416300
H62 H 0.291800 0.624700 0.485500
C63 C 0.143200 0.561700 0.387900
H64 H 0.104300 0.571300 0.436500
C65 C 0.090700 0.516000 0.291700
H66 H 0.017200 0.493100 0.276000
C67 C 0.146400 0.502100 0.213300
C68 C 0.097000 0.452500 0.114800
H69 H 0.026600 0.425800 0.100200
C70 C 0.151200 0.443000 0.040100
H71 H 0.119500 0.407600 -0.022400
C72 C 0.251900 0.484660 0.055600
H73 H 0.285200 0.478500 0.001300
C74 C 0.305500 0.536070 0.150900
C75 C 0.411000 0.583110 0.171000
C76 C 0.438300 0.611190 0.081400
C77 C 0.553600 0.648950 0.108900
C78 C 0.582500 0.680500 0.022100
H79 H 0.524600 0.683800 -0.055900
C80 C 0.698000 0.707400 0.050400
H81 H 0.715100 0.730300 -0.008800
C82 C 0.785900 0.701100 0.162100
H83 H 0.863000 0.717400 0.177700
C84 C 0.761500 0.670000 0.255500
C85 C 0.849300 0.662100 0.373300
H86 H 0.927900 0.676300 0.391700
C87 C 0.821100 0.634300 0.458500
H88 H 0.881300 0.627900 0.534800
C89 C 0.704700 0.614700 0.437000
H90 H 0.688000 0.595900 0.498700
C91 C 0.612800 0.623190 0.323300
C92 C 0.486600 0.605160 0.294600
C93 C 0.255200 0.541490 0.235600
C94 C 0.642700 0.647270 0.229300
C95 C 0.496800 0.655260 0.489900
C96 C 0.517200 0.734300 0.490300
H97 H 0.491400 0.760700 0.418100
C98 C 0.574600 0.775100 0.594200
H99 H 0.586900 0.828500 0.592600
C100 C 0.614400 0.735500 0.702600
H101 H 0.656700 0.761800 0.773700
C102 C 0.590600 0.657100 0.703400
H103 H 0.613700 0.631000 0.775500
C104 C 0.533200 0.617300 0.598600
H105 H 0.518400 0.564300 0.600200
C106 C 0.350000 0.608680 -0.046500
C107 C 0.245500 0.652220 -0.082900
H108 H 0.231200 0.682300 -0.027800
C109 C 0.163100 0.651000 -0.199900
H110 H 0.093700 0.680500 -0.222600
C111 C 0.180200 0.608500 -0.282200
H112 H 0.122200 0.607000 -0.360300
C113 C 0.285300 0.566700 -0.249200
H114 H 0.299500 0.538600 -0.306100
C115 C 0.369000 0.566600 -0.132700
H116 H 0.439100 0.538000 -0.111300
C117 C 0.934700 0.886810 0.873100
C118 C 0.814100 0.914260 0.842800
C119 C 0.755700 0.904600 0.916300
H120 H 0.791800 0.875300 0.985500
C121 C 0.643200 0.938300 0.887900
H122 H 0.604300 0.928700 0.936500
C123 C 0.590700 0.984000 0.791700
H124 H 0.517200 1.006900 0.776000
C125 C 0.646400 0.997900 0.713300
C126 C 0.597000 1.047500 0.614800
H127 H 0.526600 1.074200 0.600200
C128 C 0.651200 1.057000 0.540100
H129 H 0.619500 1.092400 0.477600
C130 C 0.751900 1.015340 0.555600
H131 H 0.785200 1.021500 0.501300
C132 C 0.805500 0.963930 0.650900
C133 C 0.911000 0.916890 0.671000
C134 C 0.938300 0.888810 0.581400
C135 C 1.053600 0.851050 0.608900
C136 C 1.082500 0.819500 0.522100
H137 H 1.024600 0.816200 0.444100
C138 C 1.198000 0.792600 0.550400
H139 H 1.215100 0.769700 0.491200
C140 C 1.285900 0.798900 0.662100
H141 H 1.363000 0.782600 0.677700
C142 C 1.261500 0.830000 0.755500
C143 C 1.349300 0.837900 0.873300
H144 H 1.427900 0.823700 0.891700
C145 C 1.321100 0.865700 0.958500
H146 H 1.381300 0.872100 1.034800
C147 C 1.204700 0.885300 0.937000
H148 H 1.188000 0.904100 0.998700
C149 C 1.112800 0.876810 0.823300
C150 C 0.986600 0.894840 0.794600
C151 C 0.755200 0.958510 0.735600
C152 C 1.142700 0.852730 0.729300
C153 C 0.996800 0.844740 0.989900
C154 C 1.017200 0.765700 0.990300
H155 H 0.991400 0.739300 0.918100
C156 C 1.074600 0.724900 1.094200
H157 H 1.086900 0.671500 1.092600
C158 C 1.114400 0.764500 1.202600
H159 H 1.156700 0.738200 1.273700
C160 C 1.090600 0.842900 1.203400
H161 H 1.113700 0.869000 1.275500
C162 C 1.033200 0.882700 1.098600
H163 H 1.018400 0.935700 1.100200
C164 C 0.850000 0.891320 0.453500
C165 C 0.745500 0.847780 0.417100
H166 H 0.731200 0.817700 0.472200
C167 C 0.663100 0.849000 0.300100
H168 H 0.593700 0.819500 0.277400
C169 C 0.680200 0.891500 0.217800
H170 H 0.622200 0.893000 0.139700
C171 C 0.785300 0.933300 0.250800
H172 H 0.799500 0.961400 0.193900
C173 C 0.869000 0.933400 0.367300
H174 H 0.939100 0.962000 0.388700
C175 C 0.565300 0.386810 0.626900
C176 C 0.685900 0.414260 0.657200
C177 C 0.744300 0.404600 0.583700
H178 H 0.708200 0.375300 0.514500
C179 C 0.856800 0.438300 0.612100
H180 H 0.895700 0.428700 0.563500
C181 C 0.909300 0.484000 0.708300
H182 H 0.982800 0.506900 0.724000
C183 C 0.853600 0.497900 0.786700
C184 C 0.903000 0.547500 0.885200
H185 H 0.973400 0.574200 0.899800
C186 C 0.848800 0.557000 0.959900
H187 H 0.880500 0.592400 1.022400
C188 C 0.748100 0.515340 0.944400
H189 H 0.714800 0.521500 0.998700
C190 C 0.694500 0.463930 0.849100
C191 C 0.589000 0.416890 0.829000
C192 C 0.561700 0.388810 0.918600
C193 C 0.446400 0.351050 0.891100
C194 C 0.417500 0.319500 0.977900
H195 H 0.475400 0.316200 1.055900
C196 C 0.302000 0.292600 0.949600
H197 H 0.284900 0.269700 1.008800
C198 C 0.214100 0.298900 0.837900
H199 H 0.137000 0.282600 0.822300
C200 C 0.238500 0.330000 0.744500
C201 C 0.150700 0.337900 0.626700
H202 H 0.072100 0.323700 0.608300
C203 C 0.178900 0.365700 0.541500
H204 H 0.118700 0.372100 0.465200
C205 C 0.295300 0.385300 0.563000
H206 H 0.312000 0.404100 0.501300
C207 C 0.387200 0.376810 0.676700
C208 C 0.513400 0.394840 0.705400
C209 C 0.744800 0.458510 0.764400
C210 C 0.357300 0.352730 0.770700
C211 C 0.503200 0.344740 0.510100
C212 C 0.482800 0.265700 0.509700
H213 H 0.508600 0.239300 0.581900
C214 C 0.425400 0.224900 0.405800
H215 H 0.413100 0.171500 0.407400
C216 C 0.385600 0.264500 0.297400
H217 H 0.343300 0.238200 0.226300
C218 C 0.409400 0.342900 0.296600
H219 H 0.386300 0.369000 0.224500
C220 C 0.466800 0.382700 0.401400
H221 H 0.481600 0.435700 0.399800
C222 C 0.650000 0.391320 1.046500
C223 C 0.754500 0.347780 1.082900
H224 H 0.768800 0.317700 1.027800
C225 C 0.836900 0.349000 1.199900
H226 H 0.906300 0.319500 1.222600
C227 C 0.819800 0.391500 1.282200
H228 H 0.877800 0.393000 1.360300
C229 C 0.714700 0.433300 1.249200
H230 H 0.700500 0.461400 1.306100
C231 C 0.631000 0.433400 1.132700
H232 H 0.560900 0.462000 1.111300

#END
