./KAGSAN_from_xyz.cif_generated_by_CrystalShift
_symmetry_cell_setting triclinic
_symmetry_space_group_name_H-M 'P 1'
loop_
_symmetry_equiv_pos_site_id
_symmetry_equiv_pos_as_xyz
1 x,y,z
_cell_length_a 6.234000
_cell_length_b 9.344000
_cell_length_c 12.612000
_cell_angle_alpha 70.957000
_cell_angle_beta 77.614000
_cell_angle_gamma 84.160000
_cell_volume 677.885422
loop_
_atom_site_label
_atom_site_type_symbol
_atom_site_fract_x
_atom_site_fract_y
_atom_site_fract_z
Cl1 Cl 0.488440 0.648280 0.296720
Cl2 Cl 0.852290 0.651770 0.406070
Cl3 Cl 0.418220 0.764090 0.489150
C4 C 0.606900 0.746000 0.367970
H5 H 0.643000 0.849800 0.314400
Cl6 Cl 0.511560 0.351720 0.703280
Cl7 Cl 0.147710 0.348230 0.593930
Cl8 Cl 0.581780 0.235910 0.510850
C9 C 0.393100 0.254000 0.632030
H10 H 0.357000 0.150200 0.685600
N11 N 0.705000 0.098040 0.225390
C12 C 0.857300 0.172480 0.249920
C13 C 0.981400 0.089530 0.333230
H14 H 0.956900 -0.015100 0.371200
C15 C 1.174700 0.314790 0.304420
H16 H 1.281400 0.362300 0.324000
C17 C 1.137300 0.159390 0.359580
H18 H 1.220400 0.102500 0.415400
C19 C 1.057700 0.397820 0.222560
H20 H 1.084700 0.502400 0.185500
C21 C 0.897100 0.328820 0.192820
C22 C 0.776000 0.407170 0.106280
H23 H 0.796000 0.512000 0.067000
C24 C 0.630600 0.330290 0.080220
H25 H 0.552500 0.379900 0.020500
C26 C 0.597500 0.175400 0.143370
C27 C 0.437000 0.090250 0.119810
H28 H 0.422800 -0.014800 0.160000
N29 N 0.316650 0.155120 0.046220
C30 C 0.159600 0.070970 0.026970
C31 C 0.094700 -0.074870 0.095070
H32 H 0.157900 -0.126300 0.160100
C33 C 0.062000 0.144040 -0.067300
H34 H 0.104000 0.243500 -0.113500
C35 C -0.062000 -0.144040 0.067300
C36 C -0.159600 -0.070970 -0.026970
N37 N -0.316650 -0.155120 -0.046220
C38 C -0.437000 -0.090250 -0.119810
C39 C -0.597500 -0.175400 -0.143370
N40 N -0.705000 -0.098040 -0.225390
C41 C -0.857300 -0.172480 -0.249920
C42 C -0.981400 -0.089530 -0.333230
H43 H -0.956900 0.015100 -0.371200
C44 C -1.137300 -0.159390 -0.359580
C45 C -1.174700 -0.314790 -0.304420
H46 H -1.281400 -0.362300 -0.324000
C47 C -1.057700 -0.397820 -0.222560
H48 H -1.084700 -0.502400 -0.185500
C49 C -0.897100 -0.328820 -0.192820
C50 C -0.776000 -0.407170 -0.106280
H51 H -0.796000 -0.512000 -0.067000
C52 C -0.630600 -0.330290 -0.080220
H53 H -0.552500 -0.379900 -0.020500
H54 H -1.220400 -0.102500 -0.415400
H55 H -0.422800 0.014800 -0.160000
C56 C -0.094700 0.074870 -0.095070
H57 H -0.157900 0.126300 -0.160100
H58 H -0.104000 -0.243500 0.113500
N59 N 0.705000 0.098040 1.225390
C60 C 0.857300 0.172480 1.249920
C61 C 0.981400 0.089530 1.333230
H62 H 0.956900 -0.015100 1.371200
C63 C 1.174700 0.314790 1.304420
H64 H 1.281400 0.362300 1.324000
C65 C 1.137300 0.159390 1.359580
H66 H 1.220400 0.102500 1.415400
C67 C 1.057700 0.397820 1.222560
H68 H 1.084700 0.502400 1.185500
C69 C 0.897100 0.328820 1.192820
C70 C 0.776000 0.407170 1.106280
H71 H 0.796000 0.512000 1.067000
C72 C 0.630600 0.330290 1.080220
H73 H 0.552500 0.379900 1.020500
C74 C 0.597500 0.175400 1.143370
C75 C 0.437000 0.090250 1.119810
H76 H 0.422800 -0.014800 1.160000
N77 N 0.316650 0.155120 1.046220
C78 C 0.159600 0.070970 1.026970
C79 C 0.094700 -0.074870 1.095070
H80 H 0.157900 -0.126300 1.160100
C81 C 0.062000 0.144040 0.932700
H82 H 0.104000 0.243500 0.886500
C83 C -0.062000 -0.144040 1.067300
C84 C -0.159600 -0.070970 0.973030
N85 N -0.316650 -0.155120 0.953780
C86 C -0.437000 -0.090250 0.880190
C87 C -0.597500 -0.175400 0.856630
N88 N -0.705000 -0.098040 0.774610
C89 C -0.857300 -0.172480 0.750080
C90 C -0.981400 -0.089530 0.666770
H91 H -0.956900 0.015100 0.628800
C92 C -1.137300 -0.159390 0.640420
C93 C -1.174700 -0.314790 0.695580
H94 H -1.281400 -0.362300 0.676000
C95 C -1.057700 -0.397820 0.777440
H96 H -1.084700 -0.502400 0.814500
C97 C -0.897100 -0.328820 0.807180
C98 C -0.776000 -0.407170 0.893720
H99 H -0.796000 -0.512000 0.933000
C100 C -0.630600 -0.330290 0.919780
H101 H -0.552500 -0.379900 0.979500
H102 H -1.220400 -0.102500 0.584600
H103 H -0.422800 0.014800 0.840000
C104 C -0.094700 0.074870 0.904930
H105 H -0.157900 0.126300 0.839900
H106 H -0.104000 -0.243500 1.113500
N107 N 0.705000 1.098040 0.225390
C108 C 0.857300 1.172480 0.249920
C109 C 0.981400 1.089530 0.333230
H110 H 0.956900 0.984900 0.371200
C111 C 1.174700 1.314790 0.304420
H112 H 1.281400 1.362300 0.324000
C113 C 1.137300 1.159390 0.359580
H114 H 1.220400 1.102500 0.415400
C115 C 1.057700 1.397820 0.222560
H116 H 1.084700 1.502400 0.185500
C117 C 0.897100 1.328820 0.192820
C118 C 0.776000 1.407170 0.106280
H119 H 0.796000 1.512000 0.067000
C120 C 0.630600 1.330290 0.080220
H121 H 0.552500 1.379900 0.020500
C122 C 0.597500 1.175400 0.143370
C123 C 0.437000 1.090250 0.119810
H124 H 0.422800 0.985200 0.160000
N125 N 0.316650 1.155120 0.046220
C126 C 0.159600 1.070970 0.026970
C127 C 0.094700 0.925130 0.095070
H128 H 0.157900 0.873700 0.160100
C129 C 0.062000 1.144040 -0.067300
H130 H 0.104000 1.243500 -0.113500
C131 C -0.062000 0.855960 0.067300
C132 C -0.159600 0.929030 -0.026970
N133 N -0.316650 0.844880 -0.046220
C134 C -0.437000 0.909750 -0.119810
C135 C -0.597500 0.824600 -0.143370
N136 N -0.705000 0.901960 -0.225390
C137 C -0.857300 0.827520 -0.249920
C138 C -0.981400 0.910470 -0.333230
H139 H -0.956900 1.015100 -0.371200
C140 C -1.137300 0.840610 -0.359580
C141 C -1.174700 0.685210 -0.304420
H142 H -1.281400 0.637700 -0.324000
C143 C -1.057700 0.602180 -0.222560
H144 H -1.084700 0.497600 -0.185500
C145 C -0.897100 0.671180 -0.192820
C146 C -0.776000 0.592830 -0.106280
H147 H -0.796000 0.488000 -0.067000
C148 C -0.630600 0.669710 -0.080220
H149 H -0.552500 0.620100 -0.020500
H150 H -1.220400 0.897500 -0.415400
H151 H -0.422800 1.014800 -0.160000
C152 C -0.094700 1.074870 -0.095070
H153 H -0.157900 1.126300 -0.160100
H154 H -0.104000 0.756500 0.113500
N155 N 0.705000 1.098040 1.225390
C156 C 0.857300 1.172480 1.249920
C157 C 0.981400 1.089530 1.333230
H158 H 0.956900 0.984900 1.371200
C159 C 1.174700 1.314790 1.304420
H160 H 1.281400 1.362300 1.324000
C161 C 1.137300 1.159390 1.359580
H162 H 1.220400 1.102500 1.415400
C163 C 1.057700 1.397820 1.222560
H164 H 1.084700 1.502400 1.185500
C165 C 0.897100 1.328820 1.192820
C166 C 0.776000 1.407170 1.106280
H167 H 0.796000 1.512000 1.067000
C168 C 0.630600 1.330290 1.080220
H169 H 0.552500 1.379900 1.020500
C170 C 0.597500 1.175400 1.143370
C171 C 0.437000 1.090250 1.119810
H172 H 0.422800 0.985200 1.160000
N173 N 0.316650 1.155120 1.046220
C174 C 0.159600 1.070970 1.026970
C175 C 0.094700 0.925130 1.095070
H176 H 0.157900 0.873700 1.160100
C177 C 0.062000 1.144040 0.932700
H178 H 0.104000 1.243500 0.886500
C179 C -0.062000 0.855960 1.067300
C180 C -0.159600 0.929030 0.973030
N181 N -0.316650 0.844880 0.953780
C182 C -0.437000 0.909750 0.880190
C183 C -0.597500 0.824600 0.856630
N184 N -0.705000 0.901960 0.774610
C185 C -0.857300 0.827520 0.750080
C186 C -0.981400 0.910470 0.666770
H187 H -0.956900 1.015100 0.628800
C188 C -1.137300 0.840610 0.640420
C189 C -1.174700 0.685210 0.695580
H190 H -1.281400 0.637700 0.676000
C191 C -1.057700 0.602180 0.777440
H192 H -1.084700 0.497600 0.814500
C193 C -0.897100 0.671180 0.807180
C194 C -0.776000 0.592830 0.893720
H195 H -0.796000 0.488000 0.933000
C196 C -0.630600 0.669710 0.919780
H197 H -0.552500 0.620100 0.979500
H198 H -1.220400 0.897500 0.584600
H199 H -0.422800 1.014800 0.840000
C200 C -0.094700 1.074870 0.904930
H201 H -0.157900 1.126300 0.839900
H202 H -0.104000 0.756500 1.113500
N203 N 1.705000 0.098040 0.225390
C204 C 1.857300 0.172480 0.249920
C205 C 1.981400 0.089530 0.333230
H206 H 1.956900 -0.015100 0.371200
C207 C 2.174700 0.314790 0.304420
H208 H 2.281400 0.362300 0.324000
C209 C 2.137300 0.159390 0.359580
H210 H 2.220400 0.102500 0.415400
C211 C 2.057700 0.397820 0.222560
H212 H 2.084700 0.502400 0.185500
C213 C 1.897100 0.328820 0.192820
C214 C 1.776000 0.407170 0.106280
H215 H 1.796000 0.512000 0.067000
C216 C 1.630600 0.330290 0.080220
H217 H 1.552500 0.379900 0.020500
C218 C 1.597500 0.175400 0.143370
C219 C 1.437000 0.090250 0.119810
H220 H 1.422800 -0.014800 0.160000
N221 N 1.316650 0.155120 0.046220
C222 C 1.159600 0.070970 0.026970
C223 C 1.094700 -0.074870 0.095070
H224 H 1.157900 -0.126300 0.160100
C225 C 1.062000 0.144040 -0.067300
H226 H 1.104000 0.243500 -0.113500
C227 C 0.938000 -0.144040 0.067300
C228 C 0.840400 -0.070970 -0.026970
N229 N 0.683350 -0.155120 -0.046220
C230 C 0.563000 -0.090250 -0.119810
C231 C 0.402500 -0.175400 -0.143370
N232 N 0.295000 -0.098040 -0.225390
C233 C 0.142700 -0.172480 -0.249920
C234 C 0.018600 -0.089530 -0.333230
H235 H 0.043100 0.015100 -0.371200
C236 C -0.137300 -0.159390 -0.359580
C237 C -0.174700 -0.314790 -0.304420
H238 H -0.281400 -0.362300 -0.324000
C239 C -0.057700 -0.397820 -0.222560
H240 H -0.084700 -0.502400 -0.185500
C241 C 0.102900 -0.328820 -0.192820
C242 C 0.224000 -0.407170 -0.106280
H243 H 0.204000 -0.512000 -0.067000
C244 C 0.369400 -0.330290 -0.080220
H245 H 0.447500 -0.379900 -0.020500
H246 H -0.220400 -0.102500 -0.415400
H247 H 0.577200 0.014800 -0.160000
C248 C 0.905300 0.074870 -0.095070
H249 H 0.842100 0.126300 -0.160100
H250 H 0.896000 -0.243500 0.113500
N251 N 1.705000 0.098040 1.225390
C252 C 1.857300 0.172480 1.249920
C253 C 1.981400 0.089530 1.333230
H254 H 1.956900 -0.015100 1.371200
C255 C 2.174700 0.314790 1.304420
H256 H 2.281400 0.362300 1.324000
C257 C 2.137300 0.159390 1.359580
H258 H 2.220400 0.102500 1.415400
C259 C 2.057700 0.397820 1.222560
H260 H 2.084700 0.502400 1.185500
C261 C 1.897100 0.328820 1.192820
C262 C 1.776000 0.407170 1.106280
H263 H 1.796000 0.512000 1.067000
C264 C 1.630600 0.330290 1.080220
H265 H 1.552500 0.379900 1.020500
C266 C 1.597500 0.175400 1.143370
C267 C 1.437000 0.090250 1.119810
H268 H 1.422800 -0.014800 1.160000
N269 N 1.316650 0.155120 1.046220
C270 C 1.159600 0.070970 1.026970
C271 C 1.094700 -0.074870 1.095070
H272 H 1.157900 -0.126300 1.160100
C273 C 1.062000 0.144040 0.932700
H274 H 1.104000 0.243500 0.886500
C275 C 0.938000 -0.144040 1.067300
C276 C 0.840400 -0.070970 0.973030
N277 N 0.683350 -0.155120 0.953780
C278 C 0.563000 -0.090250 0.880190
C279 C 0.402500 -0.175400 0.856630
N280 N 0.295000 -0.098040 0.774610
C281 C 0.142700 -0.172480 0.750080
C282 C 0.018600 -0.089530 0.666770
H283 H 0.043100 0.015100 0.628800
C284 C -0.137300 -0.159390 0.640420
C285 C -0.174700 -0.314790 0.695580
H286 H -0.281400 -0.362300 0.676000
C287 C -0.057700 -0.397820 0.777440
H288 H -0.084700 -0.502400 0.814500
C289 C 0.102900 -0.328820 0.807180
C290 C 0.224000 -0.407170 0.893720
H291 H 0.204000 -0.512000 0.933000
C292 C 0.369400 -0.330290 0.919780
H293 H 0.447500 -0.379900 0.979500
H294 H -0.220400 -0.102500 0.584600
H295 H 0.577200 0.014800 0.840000
C296 C 0.905300 0.074870 0.904930
H297 H 0.842100 0.126300 0.839900
H298 H 0.896000 -0.243500 1.113500
N299 N 1.705000 1.098040 0.225390
C300 C 1.857300 1.172480 0.249920
C301 C 1.981400 1.089530 0.333230
H302 H 1.956900 0.984900 0.371200
C303 C 2.174700 1.314790 0.304420
H304 H 2.281400 1.362300 0.324000
C305 C 2.137300 1.159390 0.359580
H306 H 2.220400 1.102500 0.415400
C307 C 2.057700 1.397820 0.222560
H308 H 2.084700 1.502400 0.185500
C309 C 1.897100 1.328820 0.192820
C310 C 1.776000 1.407170 0.106280
H311 H 1.796000 1.512000 0.067000
C312 C 1.630600 1.330290 0.080220
H313 H 1.552500 1.379900 0.020500
C314 C 1.597500 1.175400 0.143370
C315 C 1.437000 1.090250 0.119810
H316 H 1.422800 0.985200 0.160000
N317 N 1.316650 1.155120 0.046220
C318 C 1.159600 1.070970 0.026970
C319 C 1.094700 0.925130 0.095070
H320 H 1.157900 0.873700 0.160100
C321 C 1.062000 1.144040 -0.067300
H322 H 1.104000 1.243500 -0.113500
C323 C 0.938000 0.855960 0.067300
C324 C 0.840400 0.929030 -0.026970
N325 N 0.683350 0.844880 -0.046220
C326 C 0.563000 0.909750 -0.119810
C327 C 0.402500 0.824600 -0.143370
N328 N 0.295000 0.901960 -0.225390
C329 C 0.142700 0.827520 -0.249920
C330 C 0.018600 0.910470 -0.333230
H331 H 0.043100 1.015100 -0.371200
C332 C -0.137300 0.840610 -0.359580
C333 C -0.174700 0.685210 -0.304420
H334 H -0.281400 0.637700 -0.324000
C335 C -0.057700 0.602180 -0.222560
H336 H -0.084700 0.497600 -0.185500
C337 C 0.102900 0.671180 -0.192820
C338 C 0.224000 0.592830 -0.106280
H339 H 0.204000 0.488000 -0.067000
C340 C 0.369400 0.669710 -0.080220
H341 H 0.447500 0.620100 -0.020500
H342 H -0.220400 0.897500 -0.415400
H343 H 0.577200 1.014800 -0.160000
C344 C 0.905300 1.074870 -0.095070
H345 H 0.842100 1.126300 -0.160100
H346 H 0.896000 0.756500 0.113500
N347 N 1.705000 1.098040 1.225390
C348 C 1.857300 1.172480 1.249920
C349 C 1.981400 1.089530 1.333230
H350 H 1.956900 0.984900 1.371200
C351 C 2.174700 1.314790 1.304420
H352 H 2.281400 1.362300 1.324000
C353 C 2.137300 1.159390 1.359580
H354 H 2.220400 1.102500 1.415400
C355 C 2.057700 1.397820 1.222560
H356 H 2.084700 1.502400 1.185500
C357 C 1.897100 1.328820 1.192820
C358 C 1.776000 1.407170 1.106280
H359 H 1.796000 1.512000 1.067000
C360 C 1.630600 1.330290 1.080220
H361 H 1.552500 1.379900 1.020500
C362 C 1.597500 1.175400 1.143370
C363 C 1.437000 1.090250 1.119810
H364 H 1.422800 0.985200 1.160000
N365 N 1.316650 1.155120 1.046220
C366 C 1.159600 1.070970 1.026970
C367 C 1.094700 0.925130 1.095070
H368 H 1.157900 0.873700 1.160100
C369 C 1.062000 1.144040 0.932700
H370 H 1.104000 1.243500 0.886500
C371 C 0.938000 0.855960 1.067300
C372 C 0.840400 0.929030 0.973030
N373 N 0.683350 0.844880 0.953780
C374 C 0.563000 0.909750 0.880190
C375 C 0.402500 0.824600 0.856630
N376 N 0.295000 0.901960 0.774610
C377 C 0.142700 0.827520 0.750080
C378 C 0.018600 0.910470 0.666770
H379 H 0.043100 1.015100 0.628800
C380 C -0.137300 0.840610 0.640420
C381 C -0.174700 0.685210 0.695580
H382 H -0.281400 0.637700 0.676000
C383 C -0.057700 0.602180 0.777440
H384 H -0.084700 0.497600 0.814500
C385 C 0.102900 0.671180 0.807180
C386 C 0.224000 0.592830 0.893720
H387 H 0.204000 0.488000 0.933000
C388 C 0.369400 0.669710 0.919780
H389 H 0.447500 0.620100 0.979500
H390 H -0.220400 0.897500 0.584600
H391 H 0.577200 1.014800 0.840000
C392 C 0.905300 1.074870 0.904930
H393 H 0.842100 1.126300 0.839900
H394 H 0.896000 0.756500 1.113500

#END
