./AACMHX10_from_xyz.cif_generated_by_CrystalShift
_symmetry_cell_setting triclinic
_symmetry_space_group_name_H-M 'P 1'
loop_
_symmetry_equiv_pos_site_id
_symmetry_equiv_pos_as_xyz
1 x,y,z
_cell_length_a 24.157000
_cell_length_b 16.758000
_cell_length_c 8.535000
_cell_angle_alpha 90.000000
_cell_angle_beta 90.000000
_cell_angle_gamma 90.000000
_cell_volume 3455.164356
loop_
_atom_site_label
_atom_site_type_symbol
_atom_site_fract_x
_atom_site_fract_y
_atom_site_fract_z
C1 C 0.145500 0.971800 0.256200
C2 C 0.015000 1.119700 0.578900
C3 C 0.039100 1.105200 0.718900
C4 C 0.089500 1.067800 0.726000
C5 C 0.116100 1.046200 0.589800
C6 C 0.141500 0.905100 -0.008400
C7 C 0.166000 0.863600 -0.132300
C8 C 0.133900 0.817400 -0.232700
C9 C 0.078500 0.810700 -0.214400
C10 C 0.053400 0.850000 -0.094800
C11 C 0.084700 0.898100 0.004300
C12 C 0.173800 0.961700 0.099100
C13 C 0.152000 1.159400 0.185800
C14 C 0.139400 1.221100 0.064500
C15 C 0.233900 0.936900 0.128600
C16 C 0.238500 0.863500 0.230600
C17 C 0.208700 0.874600 0.386000
C18 C 0.148300 0.899200 0.359200
C19 C 0.120100 1.038800 0.297300
C20 C 0.092400 1.060300 0.444900
C21 C 0.041500 1.097900 0.441500
H22 H -0.021000 1.155000 0.565000
H23 H 0.022000 1.121000 0.815000
H24 H 0.107000 1.058000 0.825000
H25 H 0.153000 1.018000 0.589000
H26 H 0.206000 0.869000 -0.137000
H27 H 0.152000 0.789000 -0.315000
H28 H 0.054000 0.780000 -0.287000
H29 H 0.010000 0.843000 -0.084000
H30 H 0.068000 0.922000 0.088000
H31 H 0.173000 1.013000 0.041000
H32 H 0.121000 1.201000 -0.012000
H33 H 0.101000 1.247000 0.097000
H34 H 0.165000 1.260000 0.054000
H35 H 0.252000 0.986000 0.185000
H36 H 0.255000 0.933000 0.019000
H37 H 0.277000 0.856000 0.255000
H38 H 0.222000 0.823000 0.172000
H39 H 0.229000 0.927000 0.447000
H40 H 0.208000 0.833000 0.443000
H41 H 0.131000 0.857000 0.303000
H42 H 0.129000 0.908000 0.458000
H43 H 0.026000 1.112000 0.338000
O44 O 0.114300 1.099400 0.180900
O45 O 0.189900 1.160500 0.273600
C46 C 0.354500 0.028200 0.756200
C47 C 0.485000 -0.119700 1.078900
C48 C 0.460900 -0.105200 1.218900
C49 C 0.410500 -0.067800 1.226000
C50 C 0.383900 -0.046200 1.089800
C51 C 0.358500 0.094900 0.491600
C52 C 0.334000 0.136400 0.367700
C53 C 0.366100 0.182600 0.267300
C54 C 0.421500 0.189300 0.285600
C55 C 0.446600 0.150000 0.405200
C56 C 0.415300 0.101900 0.504300
C57 C 0.326200 0.038300 0.599100
C58 C 0.348000 -0.159400 0.685800
C59 C 0.360600 -0.221100 0.564500
C60 C 0.266100 0.063100 0.628600
C61 C 0.261500 0.136500 0.730600
C62 C 0.291300 0.125400 0.886000
C63 C 0.351700 0.100800 0.859200
C64 C 0.379900 -0.038800 0.797300
C65 C 0.407600 -0.060300 0.944900
C66 C 0.458500 -0.097900 0.941500
H67 H 0.521000 -0.155000 1.065000
H68 H 0.478000 -0.121000 1.315000
H69 H 0.393000 -0.058000 1.325000
H70 H 0.347000 -0.018000 1.089000
H71 H 0.294000 0.131000 0.363000
H72 H 0.348000 0.211000 0.185000
H73 H 0.446000 0.220000 0.213000
H74 H 0.490000 0.157000 0.416000
H75 H 0.432000 0.078000 0.588000
H76 H 0.327000 -0.013000 0.541000
H77 H 0.379000 -0.201000 0.488000
H78 H 0.399000 -0.247000 0.597000
H79 H 0.335000 -0.260000 0.554000
H80 H 0.248000 0.014000 0.685000
H81 H 0.245000 0.067000 0.519000
H82 H 0.223000 0.144000 0.755000
H83 H 0.278000 0.177000 0.672000
H84 H 0.271000 0.073000 0.947000
H85 H 0.292000 0.167000 0.943000
H86 H 0.369000 0.143000 0.803000
H87 H 0.371000 0.092000 0.958000
H88 H 0.474000 -0.112000 0.838000
O89 O 0.385700 -0.099400 0.680900
O90 O 0.310100 -0.160500 0.773600
C91 C 0.645500 0.528200 0.743800
C92 C 0.515000 0.380300 0.421100
C93 C 0.539100 0.394800 0.281100
C94 C 0.589500 0.432200 0.274000
C95 C 0.616100 0.453800 0.410200
C96 C 0.641500 0.594900 1.008400
C97 C 0.666000 0.636400 1.132300
C98 C 0.633900 0.682600 1.232700
C99 C 0.578500 0.689300 1.214400
C100 C 0.553400 0.650000 1.094800
C101 C 0.584700 0.601900 0.995700
C102 C 0.673800 0.538300 0.900900
C103 C 0.652000 0.340600 0.814200
C104 C 0.639400 0.278900 0.935500
C105 C 0.733900 0.563100 0.871400
C106 C 0.738500 0.636500 0.769400
C107 C 0.708700 0.625400 0.614000
C108 C 0.648300 0.600800 0.640800
C109 C 0.620100 0.461200 0.702700
C110 C 0.592400 0.439700 0.555100
C111 C 0.541500 0.402100 0.558500
H112 H 0.479000 0.345000 0.435000
H113 H 0.522000 0.379000 0.185000
H114 H 0.607000 0.442000 0.175000
H115 H 0.653000 0.482000 0.411000
H116 H 0.706000 0.631000 1.137000
H117 H 0.652000 0.711000 1.315000
H118 H 0.554000 0.720000 1.287000
H119 H 0.510000 0.657000 1.084000
H120 H 0.568000 0.578000 0.912000
H121 H 0.673000 0.487000 0.959000
H122 H 0.621000 0.299000 1.012000
H123 H 0.601000 0.253000 0.903000
H124 H 0.665000 0.240000 0.946000
H125 H 0.752000 0.514000 0.815000
H126 H 0.755000 0.567000 0.981000
H127 H 0.777000 0.644000 0.745000
H128 H 0.722000 0.677000 0.828000
H129 H 0.729000 0.573000 0.553000
H130 H 0.708000 0.667000 0.557000
H131 H 0.631000 0.643000 0.697000
H132 H 0.629000 0.592000 0.542000
H133 H 0.526000 0.388000 0.662000
O134 O 0.614300 0.400600 0.819100
O135 O 0.689900 0.339500 0.726400
C136 C 0.854500 0.471800 0.243800
C137 C 0.985000 0.619700 -0.078900
C138 C 0.960900 0.605200 -0.218900
C139 C 0.910500 0.567800 -0.226000
C140 C 0.883900 0.546200 -0.089800
C141 C 0.858500 0.405100 0.508400
C142 C 0.834000 0.363600 0.632300
C143 C 0.866100 0.317400 0.732700
C144 C 0.921500 0.310700 0.714400
C145 C 0.946600 0.350000 0.594800
C146 C 0.915300 0.398100 0.495700
C147 C 0.826200 0.461700 0.400900
C148 C 0.848000 0.659400 0.314200
C149 C 0.860600 0.721100 0.435500
C150 C 0.766100 0.436900 0.371400
C151 C 0.761500 0.363500 0.269400
C152 C 0.791300 0.374600 0.114000
C153 C 0.851700 0.399200 0.140800
C154 C 0.879900 0.538800 0.202700
C155 C 0.907600 0.560300 0.055100
C156 C 0.958500 0.597900 0.058500
H157 H 1.021000 0.655000 -0.065000
H158 H 0.978000 0.621000 -0.315000
H159 H 0.893000 0.558000 -0.325000
H160 H 0.847000 0.518000 -0.089000
H161 H 0.794000 0.369000 0.637000
H162 H 0.848000 0.289000 0.815000
H163 H 0.946000 0.280000 0.787000
H164 H 0.990000 0.343000 0.584000
H165 H 0.932000 0.422000 0.412000
H166 H 0.827000 0.513000 0.459000
H167 H 0.879000 0.701000 0.512000
H168 H 0.899000 0.747000 0.403000
H169 H 0.835000 0.760000 0.446000
H170 H 0.748000 0.486000 0.315000
H171 H 0.745000 0.433000 0.481000
H172 H 0.723000 0.356000 0.245000
H173 H 0.778000 0.323000 0.328000
H174 H 0.771000 0.427000 0.053000
H175 H 0.792000 0.333000 0.057000
H176 H 0.869000 0.357000 0.197000
H177 H 0.871000 0.408000 0.042000
H178 H 0.974000 0.612000 0.162000
O179 O 0.885700 0.599400 0.319100
O180 O 0.810100 0.660500 0.226400
C181 C 0.854500 0.028200 0.743800
C182 C 0.985000 -0.119700 0.421100
C183 C 0.960900 -0.105200 0.281100
C184 C 0.910500 -0.067800 0.274000
C185 C 0.883900 -0.046200 0.410200
C186 C 0.858500 0.094900 1.008400
C187 C 0.834000 0.136400 1.132300
C188 C 0.866100 0.182600 1.232700
C189 C 0.921500 0.189300 1.214400
C190 C 0.946600 0.150000 1.094800
C191 C 0.915300 0.101900 0.995700
C192 C 0.826200 0.038300 0.900900
C193 C 0.848000 -0.159400 0.814200
C194 C 0.860600 -0.221100 0.935500
C195 C 0.766100 0.063100 0.871400
C196 C 0.761500 0.136500 0.769400
C197 C 0.791300 0.125400 0.614000
C198 C 0.851700 0.100800 0.640800
C199 C 0.879900 -0.038800 0.702700
C200 C 0.907600 -0.060300 0.555100
C201 C 0.958500 -0.097900 0.558500
H202 H 1.021000 -0.155000 0.435000
H203 H 0.978000 -0.121000 0.185000
H204 H 0.893000 -0.058000 0.175000
H205 H 0.847000 -0.018000 0.411000
H206 H 0.794000 0.131000 1.137000
H207 H 0.848000 0.211000 1.315000
H208 H 0.946000 0.220000 1.287000
H209 H 0.990000 0.157000 1.084000
H210 H 0.932000 0.078000 0.912000
H211 H 0.827000 -0.013000 0.959000
H212 H 0.879000 -0.201000 1.012000
H213 H 0.899000 -0.247000 0.903000
H214 H 0.835000 -0.260000 0.946000
H215 H 0.748000 0.014000 0.815000
H216 H 0.745000 0.067000 0.981000
H217 H 0.723000 0.144000 0.745000
H218 H 0.778000 0.177000 0.828000
H219 H 0.771000 0.073000 0.553000
H220 H 0.792000 0.167000 0.557000
H221 H 0.869000 0.143000 0.697000
H222 H 0.871000 0.092000 0.542000
H223 H 0.974000 -0.112000 0.662000
O224 O 0.885700 -0.099400 0.819100
O225 O 0.810100 -0.160500 0.726400
C226 C 0.645500 0.971800 0.243800
C227 C 0.515000 1.119700 -0.078900
C228 C 0.539100 1.105200 -0.218900
C229 C 0.589500 1.067800 -0.226000
C230 C 0.616100 1.046200 -0.089800
C231 C 0.641500 0.905100 0.508400
C232 C 0.666000 0.863600 0.632300
C233 C 0.633900 0.817400 0.732700
C234 C 0.578500 0.810700 0.714400
C235 C 0.553400 0.850000 0.594800
C236 C 0.584700 0.898100 0.495700
C237 C 0.673800 0.961700 0.400900
C238 C 0.652000 1.159400 0.314200
C239 C 0.639400 1.221100 0.435500
C240 C 0.733900 0.936900 0.371400
C241 C 0.738500 0.863500 0.269400
C242 C 0.708700 0.874600 0.114000
C243 C 0.648300 0.899200 0.140800
C244 C 0.620100 1.038800 0.202700
C245 C 0.592400 1.060300 0.055100
C246 C 0.541500 1.097900 0.058500
H247 H 0.479000 1.155000 -0.065000
H248 H 0.522000 1.121000 -0.315000
H249 H 0.607000 1.058000 -0.325000
H250 H 0.653000 1.018000 -0.089000
H251 H 0.706000 0.869000 0.637000
H252 H 0.652000 0.789000 0.815000
H253 H 0.554000 0.780000 0.787000
H254 H 0.510000 0.843000 0.584000
H255 H 0.568000 0.922000 0.412000
H256 H 0.673000 1.013000 0.459000
H257 H 0.621000 1.201000 0.512000
H258 H 0.601000 1.247000 0.403000
H259 H 0.665000 1.260000 0.446000
H260 H 0.752000 0.986000 0.315000
H261 H 0.755000 0.933000 0.481000
H262 H 0.777000 0.856000 0.245000
H263 H 0.722000 0.823000 0.328000
H264 H 0.729000 0.927000 0.053000
H265 H 0.708000 0.833000 0.057000
H266 H 0.631000 0.857000 0.197000
H267 H 0.629000 0.908000 0.042000
H268 H 0.526000 1.112000 0.162000
O269 O 0.614300 1.099400 0.319100
O270 O 0.689900 1.160500 0.226400
C271 C 0.354500 0.471800 0.256200
C272 C 0.485000 0.619700 0.578900
C273 C 0.460900 0.605200 0.718900
C274 C 0.410500 0.567800 0.726000
C275 C 0.383900 0.546200 0.589800
C276 C 0.358500 0.405100 -0.008400
C277 C 0.334000 0.363600 -0.132300
C278 C 0.366100 0.317400 -0.232700
C279 C 0.421500 0.310700 -0.214400
C280 C 0.446600 0.350000 -0.094800
C281 C 0.415300 0.398100 0.004300
C282 C 0.326200 0.461700 0.099100
C283 C 0.348000 0.659400 0.185800
C284 C 0.360600 0.721100 0.064500
C285 C 0.266100 0.436900 0.128600
C286 C 0.261500 0.363500 0.230600
C287 C 0.291300 0.374600 0.386000
C288 C 0.351700 0.399200 0.359200
C289 C 0.379900 0.538800 0.297300
C290 C 0.407600 0.560300 0.444900
C291 C 0.458500 0.597900 0.441500
H292 H 0.521000 0.655000 0.565000
H293 H 0.478000 0.621000 0.815000
H294 H 0.393000 0.558000 0.825000
H295 H 0.347000 0.518000 0.589000
H296 H 0.294000 0.369000 -0.137000
H297 H 0.348000 0.289000 -0.315000
H298 H 0.446000 0.280000 -0.287000
H299 H 0.490000 0.343000 -0.084000
H300 H 0.432000 0.422000 0.088000
H301 H 0.327000 0.513000 0.041000
H302 H 0.379000 0.701000 -0.012000
H303 H 0.399000 0.747000 0.097000
H304 H 0.335000 0.760000 0.054000
H305 H 0.248000 0.486000 0.185000
H306 H 0.245000 0.433000 0.019000
H307 H 0.223000 0.356000 0.255000
H308 H 0.278000 0.323000 0.172000
H309 H 0.271000 0.427000 0.447000
H310 H 0.292000 0.333000 0.443000
H311 H 0.369000 0.357000 0.303000
H312 H 0.371000 0.408000 0.458000
H313 H 0.474000 0.612000 0.338000
O314 O 0.385700 0.599400 0.180900
O315 O 0.310100 0.660500 0.273600
C316 C 0.145500 0.528200 0.756200
C317 C 0.015000 0.380300 1.078900
C318 C 0.039100 0.394800 1.218900
C319 C 0.089500 0.432200 1.226000
C320 C 0.116100 0.453800 1.089800
C321 C 0.141500 0.594900 0.491600
C322 C 0.166000 0.636400 0.367700
C323 C 0.133900 0.682600 0.267300
C324 C 0.078500 0.689300 0.285600
C325 C 0.053400 0.650000 0.405200
C326 C 0.084700 0.601900 0.504300
C327 C 0.173800 0.538300 0.599100
C328 C 0.152000 0.340600 0.685800
C329 C 0.139400 0.278900 0.564500
C330 C 0.233900 0.563100 0.628600
C331 C 0.238500 0.636500 0.730600
C332 C 0.208700 0.625400 0.886000
C333 C 0.148300 0.600800 0.859200
C334 C 0.120100 0.461200 0.797300
C335 C 0.092400 0.439700 0.944900
C336 C 0.041500 0.402100 0.941500
H337 H -0.021000 0.345000 1.065000
H338 H 0.022000 0.379000 1.315000
H339 H 0.107000 0.442000 1.325000
H340 H 0.153000 0.482000 1.089000
H341 H 0.206000 0.631000 0.363000
H342 H 0.152000 0.711000 0.185000
H343 H 0.054000 0.720000 0.213000
H344 H 0.010000 0.657000 0.416000
H345 H 0.068000 0.578000 0.588000
H346 H 0.173000 0.487000 0.541000
H347 H 0.121000 0.299000 0.488000
H348 H 0.101000 0.253000 0.597000
H349 H 0.165000 0.240000 0.554000
H350 H 0.252000 0.514000 0.685000
H351 H 0.255000 0.567000 0.519000
H352 H 0.277000 0.644000 0.755000
H353 H 0.222000 0.677000 0.672000
H354 H 0.229000 0.573000 0.947000
H355 H 0.208000 0.667000 0.943000
H356 H 0.131000 0.643000 0.803000
H357 H 0.129000 0.592000 0.958000
H358 H 0.026000 0.388000 0.838000
O359 O 0.114300 0.400600 0.680900
O360 O 0.189900 0.339500 0.773600

#END
