./AACRUB01_from_xyz.cif_generated_by_CrystalShift
_symmetry_cell_setting triclinic
_symmetry_space_group_name_H-M 'P 1'
loop_
_symmetry_equiv_pos_site_id
_symmetry_equiv_pos_as_xyz
1 x,y,z
_cell_length_a 14.246000
_cell_length_b 6.904000
_cell_length_c 17.687000
_cell_angle_alpha 90.000000
_cell_angle_beta 97.190000
_cell_angle_gamma 90.000000
_cell_volume 1725.914764
loop_
_atom_site_label
_atom_site_type_symbol
_atom_site_fract_x
_atom_site_fract_y
_atom_site_fract_z
Ru1 Ru 0.304020 0.152680 -0.021630
O2 O 0.305500 0.325400 -0.112800
O3 O 0.408800 0.313100 0.035600
O4 O 0.301400 -0.016600 0.069700
O5 O 0.199400 -0.001600 -0.079100
O6 O 0.417300 -0.045300 -0.063900
C7 C 0.252400 0.472500 -0.119500
C8 C 0.254300 0.603400 -0.187200
C9 C 0.386400 0.456100 0.074900
C10 C 0.462500 0.574400 0.117800
Ru11 Ru 0.195980 0.347320 0.021630
C12 C 0.247600 0.027500 0.119500
C13 C 0.113600 0.043900 -0.074900
O14 O 0.198600 0.516600 -0.069700
O15 O 0.300600 0.501600 0.079100
O16 O 0.194500 0.174600 0.112800
O17 O 0.091200 0.186900 -0.035600
O18 O 0.082700 0.545300 0.063900
C19 C 0.245700 -0.103400 0.187200
C20 C 0.037500 -0.074400 -0.117800
Ru21 Ru 0.304020 0.152680 0.978370
O22 O 0.305500 0.325400 0.887200
O23 O 0.408800 0.313100 1.035600
O24 O 0.301400 -0.016600 1.069700
O25 O 0.199400 -0.001600 0.920900
O26 O 0.417300 -0.045300 0.936100
C27 C 0.252400 0.472500 0.880500
C28 C 0.254300 0.603400 0.812800
C29 C 0.386400 0.456100 1.074900
C30 C 0.462500 0.574400 1.117800
Ru31 Ru 0.195980 0.347320 1.021630
C32 C 0.247600 0.027500 1.119500
C33 C 0.113600 0.043900 0.925100
O34 O 0.198600 0.516600 0.930300
O35 O 0.300600 0.501600 1.079100
O36 O 0.194500 0.174600 1.112800
O37 O 0.091200 0.186900 0.964400
O38 O 0.082700 0.545300 1.063900
C39 C 0.245700 -0.103400 1.187200
C40 C 0.037500 -0.074400 0.882200
Ru41 Ru 0.804020 0.652680 -0.021630
O42 O 0.805500 0.825400 -0.112800
O43 O 0.908800 0.813100 0.035600
O44 O 0.801400 0.483400 0.069700
O45 O 0.699400 0.498400 -0.079100
O46 O 0.917300 0.454700 -0.063900
C47 C 0.752400 0.972500 -0.119500
C48 C 0.754300 1.103400 -0.187200
C49 C 0.886400 0.956100 0.074900
C50 C 0.962500 1.074400 0.117800
Ru51 Ru 0.695980 0.847320 0.021630
C52 C 0.747600 0.527500 0.119500
C53 C 0.613600 0.543900 -0.074900
O54 O 0.698600 1.016600 -0.069700
O55 O 0.800600 1.001600 0.079100
O56 O 0.694500 0.674600 0.112800
O57 O 0.591200 0.686900 -0.035600
O58 O 0.582700 1.045300 0.063900
C59 C 0.745700 0.396600 0.187200
C60 C 0.537500 0.425600 -0.117800
Ru61 Ru 0.804020 0.652680 0.978370
O62 O 0.805500 0.825400 0.887200
O63 O 0.908800 0.813100 1.035600
O64 O 0.801400 0.483400 1.069700
O65 O 0.699400 0.498400 0.920900
O66 O 0.917300 0.454700 0.936100
C67 C 0.752400 0.972500 0.880500
C68 C 0.754300 1.103400 0.812800
C69 C 0.886400 0.956100 1.074900
C70 C 0.962500 1.074400 1.117800
Ru71 Ru 0.695980 0.847320 1.021630
C72 C 0.747600 0.527500 1.119500
C73 C 0.613600 0.543900 0.925100
O74 O 0.698600 1.016600 0.930300
O75 O 0.800600 1.001600 1.079100
O76 O 0.694500 0.674600 1.112800
O77 O 0.591200 0.686900 0.964400
O78 O 0.582700 1.045300 1.063900
C79 C 0.745700 0.396600 1.187200
C80 C 0.537500 0.425600 0.882200
Ru81 Ru 0.695980 0.152680 0.521630
O82 O 0.694500 0.325400 0.612800
O83 O 0.591200 0.313100 0.464400
O84 O 0.698600 -0.016600 0.430300
O85 O 0.800600 -0.001600 0.579100
O86 O 0.582700 -0.045300 0.563900
C87 C 0.747600 0.472500 0.619500
C88 C 0.745700 0.603400 0.687200
C89 C 0.613600 0.456100 0.425100
C90 C 0.537500 0.574400 0.382200
Ru91 Ru 0.804020 0.347320 0.478370
C92 C 0.752400 0.027500 0.380500
C93 C 0.886400 0.043900 0.574900
O94 O 0.801400 0.516600 0.569700
O95 O 0.699400 0.501600 0.420900
O96 O 0.805500 0.174600 0.387200
O97 O 0.908800 0.186900 0.535600
O98 O 0.917300 0.545300 0.436100
C99 C 0.754300 -0.103400 0.312800
C100 C 0.962500 -0.074400 0.617800
Ru101 Ru 0.195980 0.652680 0.521630
O102 O 0.194500 0.825400 0.612800
O103 O 0.091200 0.813100 0.464400
O104 O 0.198600 0.483400 0.430300
O105 O 0.300600 0.498400 0.579100
O106 O 0.082700 0.454700 0.563900
C107 C 0.247600 0.972500 0.619500
C108 C 0.245700 1.103400 0.687200
C109 C 0.113600 0.956100 0.425100
C110 C 0.037500 1.074400 0.382200
Ru111 Ru 0.304020 0.847320 0.478370
C112 C 0.252400 0.527500 0.380500
C113 C 0.386400 0.543900 0.574900
O114 O 0.301400 1.016600 0.569700
O115 O 0.199400 1.001600 0.420900
O116 O 0.305500 0.674600 0.387200
O117 O 0.408800 0.686900 0.535600
O118 O 0.417300 1.045300 0.436100
C119 C 0.254300 0.396600 0.312800
C120 C 0.462500 0.425600 0.617800
F121 F -0.070100 0.705600 0.214600
F122 F -0.035200 0.480700 0.300300
B123 B -0.000000 0.597000 0.250000
F124 F 0.070100 0.705600 0.285400
F125 F 0.035200 0.480700 0.199700
F126 F 0.929900 0.705600 0.214600
F127 F 0.964800 0.480700 0.300300
B128 B 1.000000 0.597000 0.250000
F129 F 1.070100 0.705600 0.285400
F130 F 1.035200 0.480700 0.199700
F131 F 0.429900 0.205600 0.214600
F132 F 0.464800 -0.019300 0.300300
B133 B 0.500000 0.097000 0.250000
F134 F 0.570100 0.205600 0.285400
F135 F 0.535200 -0.019300 0.199700
F136 F 0.070100 0.294400 0.785400
F137 F 0.035200 0.519300 0.699700
B138 B -0.000000 0.403000 0.750000
F139 F -0.070100 0.294400 0.714600
F140 F -0.035200 0.519300 0.800300
F141 F 1.070100 0.294400 0.785400
F142 F 1.035200 0.519300 0.699700
B143 B 1.000000 0.403000 0.750000
F144 F 0.929900 0.294400 0.714600
F145 F 0.964800 0.519300 0.800300
F146 F 0.570100 0.794400 0.785400
F147 F 0.535200 1.019300 0.699700
B148 B 0.500000 0.903000 0.750000
F149 F 0.429900 0.794400 0.714600
F150 F 0.464800 1.019300 0.800300

#END
