
#######################################################################
#
#                 Cambridge Crystallographic Data Centre
#                                CCDC 
#
#######################################################################
#
# If this CIF has been generated from an entry in the Cambridge 
# Structural Database, then it will include bibliographic, chemical, 
# crystal, experimental, refinement or atomic coordinate data resulting 
# from the CCDC's data processing and validation procedures.
#
#######################################################################

data_ABACIQ
_symmetry_cell_setting           triclinic
_symmetry_space_group_name_H-M   'P -1'
_symmetry_Int_Tables_number      2
_space_group_name_Hall           '-P 1'
loop_
_symmetry_equiv_pos_site_id
_symmetry_equiv_pos_as_xyz
1 x,y,z
2 -x,-y,-z
_cell_length_a                   5.4105(6)
_cell_length_b                   9.3372(11)
_cell_length_c                   10.7931(13)
_cell_angle_alpha                76.442(2)
_cell_angle_beta                 87.201(2)
_cell_angle_gamma                82.199(2)
_cell_volume                     525.074
loop_
_atom_site_label
_atom_site_type_symbol
_atom_site_fract_x
_atom_site_fract_y
_atom_site_fract_z
O1 O 0.0451(2) 0.62523(13) 0.09581(12)
O2 O 0.7482(2) 0.45820(14) 0.34624(11)
N1 N 0.2734(2) 0.40279(16) 0.08571(13)
H1 H 0.1743 0.3920 0.0296
C1 C 0.4676(3) 0.29368(19) 0.12299(16)
C2 C 0.5149(3) 0.1556(2) 0.07453(19)
H2 H 0.5223 0.1782 -0.0179
H3 H 0.3867 0.0917 0.1043
C3 C 0.7691(4) 0.0831(2) 0.1310(2)
H4 H 0.8983 0.0942 0.0652
H5 H 0.7652 -0.0220 0.1669
C4 C 0.8225(3) 0.1616(2) 0.23569(19)
H6 H 0.7962 0.1001 0.3199
H7 H 0.9921 0.1858 0.2284
C5 C 0.6375(3) 0.29918(19) 0.21026(16)
C6 C 0.6005(3) 0.4265(2) 0.25885(15)
C7 C 0.4040(3) 0.53819(18) 0.22374(15)
C8 C 0.2264(3) 0.52973(18) 0.13273(16)
C9 C 0.4279(3) 0.64822(19) 0.29415(16)
C10 C 0.2930(3) 0.7827(2) 0.30484(18)
H8 H 0.1503 0.8214 0.2573
C11 C 0.3761(4) 0.8572(2) 0.3877(2)
H9 H 0.2876 0.9470 0.3965
C12 C 0.5909(4) 0.8000(2) 0.4586(2)
H10 H 0.6427 0.8530 0.5134
C13 C 0.7282(3) 0.6674(2) 0.44959(18)
H11 H 0.8714 0.6293 0.4967
C14 C 0.6416(3) 0.59423(19) 0.36696(16)
O1 O 0.9549(2) 0.37477(13) 0.90419(12)
O2 O 0.2518(2) 0.54180(14) 0.65376(11)
N1 N 0.7266(2) 0.59721(16) 0.91429(13)
H1 H 0.8257 0.6080 0.9704
C1 C 0.5324(3) 0.70632(19) 0.87701(16)
C2 C 0.4851(3) 0.8444(2) 0.92547(19)
H2 H 0.4777 0.8218 1.0179
H3 H 0.6133 0.9083 0.8957
C3 C 0.2309(4) 0.9169(2) 0.8690(2)
H4 H 0.1017 0.9058 0.9348
H5 H 0.2348 1.0220 0.8331
C4 C 0.1775(3) 0.8384(2) 0.76431(19)
H6 H 0.2038 0.8999 0.6801
H7 H 0.0079 0.8142 0.7716
C5 C 0.3625(3) 0.70082(19) 0.78974(16)
C6 C 0.3995(3) 0.5735(2) 0.74115(15)
C7 C 0.5960(3) 0.46181(18) 0.77626(15)
C8 C 0.7736(3) 0.47027(18) 0.86727(16)
C9 C 0.5721(3) 0.35178(19) 0.70585(16)
C10 C 0.7070(3) 0.2173(2) 0.69516(18)
H8 H 0.8497 0.1786 0.7427
C11 C 0.6239(4) 0.1428(2) 0.6123(2)
H9 H 0.7124 0.0530 0.6035
C12 C 0.4091(4) 0.2000(2) 0.5414(2)
H10 H 0.3573 0.1470 0.4866
C13 C 0.2718(3) 0.3326(2) 0.55041(18)
H11 H 0.1286 0.3707 0.5033
C14 C 0.3584(3) 0.40577(19) 0.63304(16)

#END
