./ABADIS_from_xyz.cif_generated_by_CrystalShift
_symmetry_cell_setting triclinic
_symmetry_space_group_name_H-M 'P 1'
loop_
_symmetry_equiv_pos_site_id
_symmetry_equiv_pos_as_xyz
1 x,y,z
_cell_length_a 10.435000
_cell_length_b 14.360000
_cell_length_c 8.292200
_cell_angle_alpha 90.000000
_cell_angle_beta 96.925000
_cell_angle_gamma 90.000000
_cell_volume 1233.493306
loop_
_atom_site_label
_atom_site_type_symbol
_atom_site_fract_x
_atom_site_fract_y
_atom_site_fract_z
N1 N 0.622380 0.429130 0.167670
N2 N 0.434620 0.366690 0.064160
O3 O 1.305750 0.331530 0.436470
O4 O 1.199580 0.203700 0.492870
H5 H 1.272900 0.183400 0.516500
C6 C 0.636550 0.404730 0.010000
C7 C 1.076910 0.334150 0.395500
C8 C 0.737580 0.414930 -0.082800
H9 H 0.815600 0.441700 -0.040600
C10 C 0.518590 0.365480 -0.053300
C11 C 0.846210 0.337030 0.378500
H12 H 0.769300 0.307500 0.393900
C13 C 0.717330 0.478820 0.279700
H14 H 0.681500 0.490000 0.380600
H15 H 0.734700 0.538800 0.233300
C16 C 0.842940 0.425810 0.316000
C17 C 1.205630 0.289950 0.442100
C18 C 0.500530 0.404700 0.192000
H19 H 0.467100 0.414000 0.289800
C20 C 1.073100 0.421620 0.329700
H21 H 1.149700 0.450300 0.310600
C22 C 0.499410 0.334160 -0.212300
H23 H 0.421400 0.307500 -0.255000
C24 C 0.957720 0.468100 0.291200
H25 H 0.957300 0.528000 0.248400
C26 C 0.599400 0.343760 -0.305300
H27 H 0.588800 0.323500 -0.412600
C28 C 0.962260 0.290790 0.418800
H29 H 0.963000 0.230900 0.461400
C30 C 0.716700 0.383560 -0.240500
H31 H 0.782700 0.389000 -0.306000
N32 N 0.377620 0.929130 0.332330
N33 N 0.565380 0.866690 0.435840
O34 O -0.305750 0.831530 0.063530
O35 O -0.199580 0.703700 0.007130
H36 H -0.272900 0.683400 -0.016500
C37 C 0.363450 0.904730 0.490000
C38 C -0.076910 0.834150 0.104500
C39 C 0.262420 0.914930 0.582800
H40 H 0.184400 0.941700 0.540600
C41 C 0.481410 0.865480 0.553300
C42 C 0.153790 0.837030 0.121500
H43 H 0.230700 0.807500 0.106100
C44 C 0.282670 0.978820 0.220300
H45 H 0.318500 0.990000 0.119400
H46 H 0.265300 1.038800 0.266700
C47 C 0.157060 0.925810 0.184000
C48 C -0.205630 0.789950 0.057900
C49 C 0.499470 0.904700 0.308000
H50 H 0.532900 0.914000 0.210200
C51 C -0.073100 0.921620 0.170300
H52 H -0.149700 0.950300 0.189400
C53 C 0.500590 0.834160 0.712300
H54 H 0.578600 0.807500 0.755000
C55 C 0.042280 0.968100 0.208800
H56 H 0.042700 1.028000 0.251600
C57 C 0.400600 0.843760 0.805300
H58 H 0.411200 0.823500 0.912600
C59 C 0.037740 0.790790 0.081200
H60 H 0.037000 0.730900 0.038600
C61 C 0.283300 0.883560 0.740500
H62 H 0.217300 0.889000 0.806000
N63 N 0.377620 0.570870 0.832330
N64 N 0.565380 0.633310 0.935840
O65 O -0.305750 0.668470 0.563530
O66 O -0.199580 0.796300 0.507130
H67 H -0.272900 0.816600 0.483500
C68 C 0.363450 0.595270 0.990000
C69 C -0.076910 0.665850 0.604500
C70 C 0.262420 0.585070 1.082800
H71 H 0.184400 0.558300 1.040600
C72 C 0.481410 0.634520 1.053300
C73 C 0.153790 0.662970 0.621500
H74 H 0.230700 0.692500 0.606100
C75 C 0.282670 0.521180 0.720300
H76 H 0.318500 0.510000 0.619400
H77 H 0.265300 0.461200 0.766700
C78 C 0.157060 0.574190 0.684000
C79 C -0.205630 0.710050 0.557900
C80 C 0.499470 0.595300 0.808000
H81 H 0.532900 0.586000 0.710200
C82 C -0.073100 0.578380 0.670300
H83 H -0.149700 0.549700 0.689400
C84 C 0.500590 0.665840 1.212300
H85 H 0.578600 0.692500 1.255000
C86 C 0.042280 0.531900 0.708800
H87 H 0.042700 0.472000 0.751600
C88 C 0.400600 0.656240 1.305300
H89 H 0.411200 0.676500 1.412600
C90 C 0.037740 0.709210 0.581200
H91 H 0.037000 0.769100 0.538600
C92 C 0.283300 0.616440 1.240500
H93 H 0.217300 0.611000 1.306000
N94 N 0.622380 0.070870 0.667670
N95 N 0.434620 0.133310 0.564160
O96 O 1.305750 0.168470 0.936470
O97 O 1.199580 0.296300 0.992870
H98 H 1.272900 0.316600 1.016500
C99 C 0.636550 0.095270 0.510000
C100 C 1.076910 0.165850 0.895500
C101 C 0.737580 0.085070 0.417200
H102 H 0.815600 0.058300 0.459400
C103 C 0.518590 0.134520 0.446700
C104 C 0.846210 0.162970 0.878500
H105 H 0.769300 0.192500 0.893900
C106 C 0.717330 0.021180 0.779700
H107 H 0.681500 0.010000 0.880600
H108 H 0.734700 -0.038800 0.733300
C109 C 0.842940 0.074190 0.816000
C110 C 1.205630 0.210050 0.942100
C111 C 0.500530 0.095300 0.692000
H112 H 0.467100 0.086000 0.789800
C113 C 1.073100 0.078380 0.829700
H114 H 1.149700 0.049700 0.810600
C115 C 0.499410 0.165840 0.287700
H116 H 0.421400 0.192500 0.245000
C117 C 0.957720 0.031900 0.791200
H118 H 0.957300 -0.028000 0.748400
C119 C 0.599400 0.156240 0.194700
H120 H 0.588800 0.176500 0.087400
C121 C 0.962260 0.209210 0.918800
H122 H 0.963000 0.269100 0.961400
C123 C 0.716700 0.116440 0.259500
H124 H 0.782700 0.111000 0.194000

#END
