./ABADAL_from_xyz.cif_generated_by_CrystalShift
_symmetry_cell_setting triclinic
_symmetry_space_group_name_H-M 'P 1'
loop_
_symmetry_equiv_pos_site_id
_symmetry_equiv_pos_as_xyz
1 x,y,z
_cell_length_a 11.760000
_cell_length_b 17.778000
_cell_length_c 10.320000
_cell_angle_alpha 90.000000
_cell_angle_beta 101.340000
_cell_angle_gamma 90.000000
_cell_volume 2115.473573
loop_
_atom_site_label
_atom_site_type_symbol
_atom_site_fract_x
_atom_site_fract_y
_atom_site_fract_z
Cu1 Cu 0.174720 0.055650 0.135280
P2 P 0.170210 0.131460 0.301270
P3 P 0.349250 0.032780 0.098100
O4 O 0.083760 -0.044020 0.150300
C5 C 0.006000 -0.034570 0.048700
O6 O -0.061860 -0.090000 0.036980
C7 C 0.323200 0.152400 0.300000
C8 C 0.393700 0.117700 0.197300
H9 H 0.325100 0.206100 0.285000
H10 H 0.365100 0.135300 0.385100
H11 H 0.394000 0.157300 0.133100
H12 H 0.468500 0.105100 0.251000
C13 C 0.050300 0.197800 0.269500
C14 C -0.028300 0.196800 0.355100
C15 C 0.032100 0.248900 0.165300
C16 C -0.062100 0.297400 0.148700
C17 C -0.139300 0.296100 0.234000
C18 C -0.122200 0.245500 0.337800
H19 H -0.016400 0.162000 0.426400
H20 H -0.174600 0.244000 0.397100
H21 H -0.203400 0.329600 0.221000
H22 H -0.073600 0.332100 0.077300
H23 H 0.084400 0.250400 0.105900
C24 C 0.332300 0.028400 -0.081200
C25 C 0.397000 -0.061150 0.154300
C26 C 0.353300 0.089400 -0.157700
C27 C 0.295900 -0.039300 -0.144800
C28 C 0.338700 0.082600 -0.293900
C29 C 0.302800 0.015300 -0.355800
C30 C 0.281400 -0.045800 -0.281000
C31 C 0.425000 -0.115900 0.068900
C32 C 0.405800 -0.079800 0.287400
C33 C 0.441800 -0.150900 0.333500
C34 C 0.469400 -0.204600 0.247800
C35 C 0.460900 -0.187000 0.115600
H36 H 0.386900 -0.043000 0.346500
H37 H 0.447400 -0.162600 0.424400
H38 H 0.494100 -0.253300 0.279000
H39 H 0.479800 -0.223600 0.056000
H40 H 0.419400 -0.104100 -0.022000
H41 H 0.378000 0.135900 -0.116100
H42 H 0.353500 0.124700 -0.344900
H43 H 0.293000 0.011000 -0.449000
H44 H 0.256800 -0.092200 -0.322800
H45 H 0.281200 -0.081300 -0.093400
C46 C 0.130810 0.078100 0.436800
C47 C 0.131900 0.110300 0.560000
C48 C 0.101100 0.067200 0.659500
C49 C 0.069300 -0.007400 0.637200
C50 C 0.068200 -0.039600 0.514800
C51 C 0.098800 0.002800 0.414100
H52 H 0.153600 0.161500 0.575300
H53 H 0.101800 0.089000 0.743700
H54 H 0.049300 -0.033600 0.709900
H55 H 0.046400 -0.090800 0.499500
H56 H 0.098100 -0.018800 0.329900
O57 O -0.083760 0.044020 -0.150300
C58 C -0.006000 0.034570 -0.048700
O59 O 0.061860 0.090000 -0.036980
Cu60 Cu -0.174720 -0.055650 -0.135280
P61 P -0.170210 -0.131460 -0.301270
P62 P -0.349250 -0.032780 -0.098100
C63 C -0.323200 -0.152400 -0.300000
C64 C -0.393700 -0.117700 -0.197300
H65 H -0.325100 -0.206100 -0.285000
H66 H -0.365100 -0.135300 -0.385100
H67 H -0.394000 -0.157300 -0.133100
H68 H -0.468500 -0.105100 -0.251000
C69 C -0.050300 -0.197800 -0.269500
C70 C 0.028300 -0.196800 -0.355100
C71 C -0.032100 -0.248900 -0.165300
C72 C 0.062100 -0.297400 -0.148700
C73 C 0.139300 -0.296100 -0.234000
C74 C 0.122200 -0.245500 -0.337800
H75 H 0.016400 -0.162000 -0.426400
H76 H 0.174600 -0.244000 -0.397100
H77 H 0.203400 -0.329600 -0.221000
H78 H 0.073600 -0.332100 -0.077300
H79 H -0.084400 -0.250400 -0.105900
C80 C -0.332300 -0.028400 0.081200
C81 C -0.397000 0.061150 -0.154300
C82 C -0.353300 -0.089400 0.157700
C83 C -0.295900 0.039300 0.144800
C84 C -0.338700 -0.082600 0.293900
C85 C -0.302800 -0.015300 0.355800
C86 C -0.281400 0.045800 0.281000
C87 C -0.425000 0.115900 -0.068900
C88 C -0.405800 0.079800 -0.287400
C89 C -0.441800 0.150900 -0.333500
C90 C -0.469400 0.204600 -0.247800
C91 C -0.460900 0.187000 -0.115600
H92 H -0.386900 0.043000 -0.346500
H93 H -0.447400 0.162600 -0.424400
H94 H -0.494100 0.253300 -0.279000
H95 H -0.479800 0.223600 -0.056000
H96 H -0.419400 0.104100 0.022000
H97 H -0.378000 -0.135900 0.116100
H98 H -0.353500 -0.124700 0.344900
H99 H -0.293000 -0.011000 0.449000
H100 H -0.256800 0.092200 0.322800
H101 H -0.281200 0.081300 0.093400
C102 C -0.130810 -0.078100 -0.436800
C103 C -0.131900 -0.110300 -0.560000
C104 C -0.101100 -0.067200 -0.659500
C105 C -0.069300 0.007400 -0.637200
C106 C -0.068200 0.039600 -0.514800
C107 C -0.098800 -0.002800 -0.414100
H108 H -0.153600 -0.161500 -0.575300
H109 H -0.101800 -0.089000 -0.743700
H110 H -0.049300 0.033600 -0.709900
H111 H -0.046400 0.090800 -0.499500
H112 H -0.098100 0.018800 -0.329900
Cu113 Cu 0.174720 0.055650 1.135280
P114 P 0.170210 0.131460 1.301270
P115 P 0.349250 0.032780 1.098100
O116 O 0.083760 -0.044020 1.150300
C117 C 0.006000 -0.034570 1.048700
O118 O -0.061860 -0.090000 1.036980
C119 C 0.323200 0.152400 1.300000
C120 C 0.393700 0.117700 1.197300
H121 H 0.325100 0.206100 1.285000
H122 H 0.365100 0.135300 1.385100
H123 H 0.394000 0.157300 1.133100
H124 H 0.468500 0.105100 1.251000
C125 C 0.050300 0.197800 1.269500
C126 C -0.028300 0.196800 1.355100
C127 C 0.032100 0.248900 1.165300
C128 C -0.062100 0.297400 1.148700
C129 C -0.139300 0.296100 1.234000
C130 C -0.122200 0.245500 1.337800
H131 H -0.016400 0.162000 1.426400
H132 H -0.174600 0.244000 1.397100
H133 H -0.203400 0.329600 1.221000
H134 H -0.073600 0.332100 1.077300
H135 H 0.084400 0.250400 1.105900
C136 C 0.332300 0.028400 0.918800
C137 C 0.397000 -0.061150 1.154300
C138 C 0.353300 0.089400 0.842300
C139 C 0.295900 -0.039300 0.855200
C140 C 0.338700 0.082600 0.706100
C141 C 0.302800 0.015300 0.644200
C142 C 0.281400 -0.045800 0.719000
C143 C 0.425000 -0.115900 1.068900
C144 C 0.405800 -0.079800 1.287400
C145 C 0.441800 -0.150900 1.333500
C146 C 0.469400 -0.204600 1.247800
C147 C 0.460900 -0.187000 1.115600
H148 H 0.386900 -0.043000 1.346500
H149 H 0.447400 -0.162600 1.424400
H150 H 0.494100 -0.253300 1.279000
H151 H 0.479800 -0.223600 1.056000
H152 H 0.419400 -0.104100 0.978000
H153 H 0.378000 0.135900 0.883900
H154 H 0.353500 0.124700 0.655100
H155 H 0.293000 0.011000 0.551000
H156 H 0.256800 -0.092200 0.677200
H157 H 0.281200 -0.081300 0.906600
C158 C 0.130810 0.078100 1.436800
C159 C 0.131900 0.110300 1.560000
C160 C 0.101100 0.067200 1.659500
C161 C 0.069300 -0.007400 1.637200
C162 C 0.068200 -0.039600 1.514800
C163 C 0.098800 0.002800 1.414100
H164 H 0.153600 0.161500 1.575300
H165 H 0.101800 0.089000 1.743700
H166 H 0.049300 -0.033600 1.709900
H167 H 0.046400 -0.090800 1.499500
H168 H 0.098100 -0.018800 1.329900
O169 O -0.083760 0.044020 0.849700
C170 C -0.006000 0.034570 0.951300
O171 O 0.061860 0.090000 0.963020
Cu172 Cu -0.174720 -0.055650 0.864720
P173 P -0.170210 -0.131460 0.698730
P174 P -0.349250 -0.032780 0.901900
C175 C -0.323200 -0.152400 0.700000
C176 C -0.393700 -0.117700 0.802700
H177 H -0.325100 -0.206100 0.715000
H178 H -0.365100 -0.135300 0.614900
H179 H -0.394000 -0.157300 0.866900
H180 H -0.468500 -0.105100 0.749000
C181 C -0.050300 -0.197800 0.730500
C182 C 0.028300 -0.196800 0.644900
C183 C -0.032100 -0.248900 0.834700
C184 C 0.062100 -0.297400 0.851300
C185 C 0.139300 -0.296100 0.766000
C186 C 0.122200 -0.245500 0.662200
H187 H 0.016400 -0.162000 0.573600
H188 H 0.174600 -0.244000 0.602900
H189 H 0.203400 -0.329600 0.779000
H190 H 0.073600 -0.332100 0.922700
H191 H -0.084400 -0.250400 0.894100
C192 C -0.332300 -0.028400 1.081200
C193 C -0.397000 0.061150 0.845700
C194 C -0.353300 -0.089400 1.157700
C195 C -0.295900 0.039300 1.144800
C196 C -0.338700 -0.082600 1.293900
C197 C -0.302800 -0.015300 1.355800
C198 C -0.281400 0.045800 1.281000
C199 C -0.425000 0.115900 0.931100
C200 C -0.405800 0.079800 0.712600
C201 C -0.441800 0.150900 0.666500
C202 C -0.469400 0.204600 0.752200
C203 C -0.460900 0.187000 0.884400
H204 H -0.386900 0.043000 0.653500
H205 H -0.447400 0.162600 0.575600
H206 H -0.494100 0.253300 0.721000
H207 H -0.479800 0.223600 0.944000
H208 H -0.419400 0.104100 1.022000
H209 H -0.378000 -0.135900 1.116100
H210 H -0.353500 -0.124700 1.344900
H211 H -0.293000 -0.011000 1.449000
H212 H -0.256800 0.092200 1.322800
H213 H -0.281200 0.081300 1.093400
C214 C -0.130810 -0.078100 0.563200
C215 C -0.131900 -0.110300 0.440000
C216 C -0.101100 -0.067200 0.340500
C217 C -0.069300 0.007400 0.362800
C218 C -0.068200 0.039600 0.485200
C219 C -0.098800 -0.002800 0.585900
H220 H -0.153600 -0.161500 0.424700
H221 H -0.101800 -0.089000 0.256300
H222 H -0.049300 0.033600 0.290100
H223 H -0.046400 0.090800 0.500500
H224 H -0.098100 0.018800 0.670100
Cu225 Cu 0.174720 1.055650 0.135280
P226 P 0.170210 1.131460 0.301270
P227 P 0.349250 1.032780 0.098100
O228 O 0.083760 0.955980 0.150300
C229 C 0.006000 0.965430 0.048700
O230 O -0.061860 0.910000 0.036980
C231 C 0.323200 1.152400 0.300000
C232 C 0.393700 1.117700 0.197300
H233 H 0.325100 1.206100 0.285000
H234 H 0.365100 1.135300 0.385100
H235 H 0.394000 1.157300 0.133100
H236 H 0.468500 1.105100 0.251000
C237 C 0.050300 1.197800 0.269500
C238 C -0.028300 1.196800 0.355100
C239 C 0.032100 1.248900 0.165300
C240 C -0.062100 1.297400 0.148700
C241 C -0.139300 1.296100 0.234000
C242 C -0.122200 1.245500 0.337800
H243 H -0.016400 1.162000 0.426400
H244 H -0.174600 1.244000 0.397100
H245 H -0.203400 1.329600 0.221000
H246 H -0.073600 1.332100 0.077300
H247 H 0.084400 1.250400 0.105900
C248 C 0.332300 1.028400 -0.081200
C249 C 0.397000 0.938850 0.154300
C250 C 0.353300 1.089400 -0.157700
C251 C 0.295900 0.960700 -0.144800
C252 C 0.338700 1.082600 -0.293900
C253 C 0.302800 1.015300 -0.355800
C254 C 0.281400 0.954200 -0.281000
C255 C 0.425000 0.884100 0.068900
C256 C 0.405800 0.920200 0.287400
C257 C 0.441800 0.849100 0.333500
C258 C 0.469400 0.795400 0.247800
C259 C 0.460900 0.813000 0.115600
H260 H 0.386900 0.957000 0.346500
H261 H 0.447400 0.837400 0.424400
H262 H 0.494100 0.746700 0.279000
H263 H 0.479800 0.776400 0.056000
H264 H 0.419400 0.895900 -0.022000
H265 H 0.378000 1.135900 -0.116100
H266 H 0.353500 1.124700 -0.344900
H267 H 0.293000 1.011000 -0.449000
H268 H 0.256800 0.907800 -0.322800
H269 H 0.281200 0.918700 -0.093400
C270 C 0.130810 1.078100 0.436800
C271 C 0.131900 1.110300 0.560000
C272 C 0.101100 1.067200 0.659500
C273 C 0.069300 0.992600 0.637200
C274 C 0.068200 0.960400 0.514800
C275 C 0.098800 1.002800 0.414100
H276 H 0.153600 1.161500 0.575300
H277 H 0.101800 1.089000 0.743700
H278 H 0.049300 0.966400 0.709900
H279 H 0.046400 0.909200 0.499500
H280 H 0.098100 0.981200 0.329900
O281 O -0.083760 1.044020 -0.150300
C282 C -0.006000 1.034570 -0.048700
O283 O 0.061860 1.090000 -0.036980
Cu284 Cu -0.174720 0.944350 -0.135280
P285 P -0.170210 0.868540 -0.301270
P286 P -0.349250 0.967220 -0.098100
C287 C -0.323200 0.847600 -0.300000
C288 C -0.393700 0.882300 -0.197300
H289 H -0.325100 0.793900 -0.285000
H290 H -0.365100 0.864700 -0.385100
H291 H -0.394000 0.842700 -0.133100
H292 H -0.468500 0.894900 -0.251000
C293 C -0.050300 0.802200 -0.269500
C294 C 0.028300 0.803200 -0.355100
C295 C -0.032100 0.751100 -0.165300
C296 C 0.062100 0.702600 -0.148700
C297 C 0.139300 0.703900 -0.234000
C298 C 0.122200 0.754500 -0.337800
H299 H 0.016400 0.838000 -0.426400
H300 H 0.174600 0.756000 -0.397100
H301 H 0.203400 0.670400 -0.221000
H302 H 0.073600 0.667900 -0.077300
H303 H -0.084400 0.749600 -0.105900
C304 C -0.332300 0.971600 0.081200
C305 C -0.397000 1.061150 -0.154300
C306 C -0.353300 0.910600 0.157700
C307 C -0.295900 1.039300 0.144800
C308 C -0.338700 0.917400 0.293900
C309 C -0.302800 0.984700 0.355800
C310 C -0.281400 1.045800 0.281000
C311 C -0.425000 1.115900 -0.068900
C312 C -0.405800 1.079800 -0.287400
C313 C -0.441800 1.150900 -0.333500
C314 C -0.469400 1.204600 -0.247800
C315 C -0.460900 1.187000 -0.115600
H316 H -0.386900 1.043000 -0.346500
H317 H -0.447400 1.162600 -0.424400
H318 H -0.494100 1.253300 -0.279000
H319 H -0.479800 1.223600 -0.056000
H320 H -0.419400 1.104100 0.022000
H321 H -0.378000 0.864100 0.116100
H322 H -0.353500 0.875300 0.344900
H323 H -0.293000 0.989000 0.449000
H324 H -0.256800 1.092200 0.322800
H325 H -0.281200 1.081300 0.093400
C326 C -0.130810 0.921900 -0.436800
C327 C -0.131900 0.889700 -0.560000
C328 C -0.101100 0.932800 -0.659500
C329 C -0.069300 1.007400 -0.637200
C330 C -0.068200 1.039600 -0.514800
C331 C -0.098800 0.997200 -0.414100
H332 H -0.153600 0.838500 -0.575300
H333 H -0.101800 0.911000 -0.743700
H334 H -0.049300 1.033600 -0.709900
H335 H -0.046400 1.090800 -0.499500
H336 H -0.098100 1.018800 -0.329900
Cu337 Cu 0.174720 1.055650 1.135280
P338 P 0.170210 1.131460 1.301270
P339 P 0.349250 1.032780 1.098100
O340 O 0.083760 0.955980 1.150300
C341 C 0.006000 0.965430 1.048700
O342 O -0.061860 0.910000 1.036980
C343 C 0.323200 1.152400 1.300000
C344 C 0.393700 1.117700 1.197300
H345 H 0.325100 1.206100 1.285000
H346 H 0.365100 1.135300 1.385100
H347 H 0.394000 1.157300 1.133100
H348 H 0.468500 1.105100 1.251000
C349 C 0.050300 1.197800 1.269500
C350 C -0.028300 1.196800 1.355100
C351 C 0.032100 1.248900 1.165300
C352 C -0.062100 1.297400 1.148700
C353 C -0.139300 1.296100 1.234000
C354 C -0.122200 1.245500 1.337800
H355 H -0.016400 1.162000 1.426400
H356 H -0.174600 1.244000 1.397100
H357 H -0.203400 1.329600 1.221000
H358 H -0.073600 1.332100 1.077300
H359 H 0.084400 1.250400 1.105900
C360 C 0.332300 1.028400 0.918800
C361 C 0.397000 0.938850 1.154300
C362 C 0.353300 1.089400 0.842300
C363 C 0.295900 0.960700 0.855200
C364 C 0.338700 1.082600 0.706100
C365 C 0.302800 1.015300 0.644200
C366 C 0.281400 0.954200 0.719000
C367 C 0.425000 0.884100 1.068900
C368 C 0.405800 0.920200 1.287400
C369 C 0.441800 0.849100 1.333500
C370 C 0.469400 0.795400 1.247800
C371 C 0.460900 0.813000 1.115600
H372 H 0.386900 0.957000 1.346500
H373 H 0.447400 0.837400 1.424400
H374 H 0.494100 0.746700 1.279000
H375 H 0.479800 0.776400 1.056000
H376 H 0.419400 0.895900 0.978000
H377 H 0.378000 1.135900 0.883900
H378 H 0.353500 1.124700 0.655100
H379 H 0.293000 1.011000 0.551000
H380 H 0.256800 0.907800 0.677200
H381 H 0.281200 0.918700 0.906600
C382 C 0.130810 1.078100 1.436800
C383 C 0.131900 1.110300 1.560000
C384 C 0.101100 1.067200 1.659500
C385 C 0.069300 0.992600 1.637200
C386 C 0.068200 0.960400 1.514800
C387 C 0.098800 1.002800 1.414100
H388 H 0.153600 1.161500 1.575300
H389 H 0.101800 1.089000 1.743700
H390 H 0.049300 0.966400 1.709900
H391 H 0.046400 0.909200 1.499500
H392 H 0.098100 0.981200 1.329900
O393 O -0.083760 1.044020 0.849700
C394 C -0.006000 1.034570 0.951300
O395 O 0.061860 1.090000 0.963020
Cu396 Cu -0.174720 0.944350 0.864720
P397 P -0.170210 0.868540 0.698730
P398 P -0.349250 0.967220 0.901900
C399 C -0.323200 0.847600 0.700000
C400 C -0.393700 0.882300 0.802700
H401 H -0.325100 0.793900 0.715000
H402 H -0.365100 0.864700 0.614900
H403 H -0.394000 0.842700 0.866900
H404 H -0.468500 0.894900 0.749000
C405 C -0.050300 0.802200 0.730500
C406 C 0.028300 0.803200 0.644900
C407 C -0.032100 0.751100 0.834700
C408 C 0.062100 0.702600 0.851300
C409 C 0.139300 0.703900 0.766000
C410 C 0.122200 0.754500 0.662200
H411 H 0.016400 0.838000 0.573600
H412 H 0.174600 0.756000 0.602900
H413 H 0.203400 0.670400 0.779000
H414 H 0.073600 0.667900 0.922700
H415 H -0.084400 0.749600 0.894100
C416 C -0.332300 0.971600 1.081200
C417 C -0.397000 1.061150 0.845700
C418 C -0.353300 0.910600 1.157700
C419 C -0.295900 1.039300 1.144800
C420 C -0.338700 0.917400 1.293900
C421 C -0.302800 0.984700 1.355800
C422 C -0.281400 1.045800 1.281000
C423 C -0.425000 1.115900 0.931100
C424 C -0.405800 1.079800 0.712600
C425 C -0.441800 1.150900 0.666500
C426 C -0.469400 1.204600 0.752200
C427 C -0.460900 1.187000 0.884400
H428 H -0.386900 1.043000 0.653500
H429 H -0.447400 1.162600 0.575600
H430 H -0.494100 1.253300 0.721000
H431 H -0.479800 1.223600 0.944000
H432 H -0.419400 1.104100 1.022000
H433 H -0.378000 0.864100 1.116100
H434 H -0.353500 0.875300 1.344900
H435 H -0.293000 0.989000 1.449000
H436 H -0.256800 1.092200 1.322800
H437 H -0.281200 1.081300 1.093400
C438 C -0.130810 0.921900 0.563200
C439 C -0.131900 0.889700 0.440000
C440 C -0.101100 0.932800 0.340500
C441 C -0.069300 1.007400 0.362800
C442 C -0.068200 1.039600 0.485200
C443 C -0.098800 0.997200 0.585900
H444 H -0.153600 0.838500 0.424700
H445 H -0.101800 0.911000 0.256300
H446 H -0.049300 1.033600 0.290100
H447 H -0.046400 1.090800 0.500500
H448 H -0.098100 1.018800 0.670100
Cu449 Cu 1.174720 0.055650 0.135280
P450 P 1.170210 0.131460 0.301270
P451 P 1.349250 0.032780 0.098100
O452 O 1.083760 -0.044020 0.150300
C453 C 1.006000 -0.034570 0.048700
O454 O 0.938140 -0.090000 0.036980
C455 C 1.323200 0.152400 0.300000
C456 C 1.393700 0.117700 0.197300
H457 H 1.325100 0.206100 0.285000
H458 H 1.365100 0.135300 0.385100
H459 H 1.394000 0.157300 0.133100
H460 H 1.468500 0.105100 0.251000
C461 C 1.050300 0.197800 0.269500
C462 C 0.971700 0.196800 0.355100
C463 C 1.032100 0.248900 0.165300
C464 C 0.937900 0.297400 0.148700
C465 C 0.860700 0.296100 0.234000
C466 C 0.877800 0.245500 0.337800
H467 H 0.983600 0.162000 0.426400
H468 H 0.825400 0.244000 0.397100
H469 H 0.796600 0.329600 0.221000
H470 H 0.926400 0.332100 0.077300
H471 H 1.084400 0.250400 0.105900
C472 C 1.332300 0.028400 -0.081200
C473 C 1.397000 -0.061150 0.154300
C474 C 1.353300 0.089400 -0.157700
C475 C 1.295900 -0.039300 -0.144800
C476 C 1.338700 0.082600 -0.293900
C477 C 1.302800 0.015300 -0.355800
C478 C 1.281400 -0.045800 -0.281000
C479 C 1.425000 -0.115900 0.068900
C480 C 1.405800 -0.079800 0.287400
C481 C 1.441800 -0.150900 0.333500
C482 C 1.469400 -0.204600 0.247800
C483 C 1.460900 -0.187000 0.115600
H484 H 1.386900 -0.043000 0.346500
H485 H 1.447400 -0.162600 0.424400
H486 H 1.494100 -0.253300 0.279000
H487 H 1.479800 -0.223600 0.056000
H488 H 1.419400 -0.104100 -0.022000
H489 H 1.378000 0.135900 -0.116100
H490 H 1.353500 0.124700 -0.344900
H491 H 1.293000 0.011000 -0.449000
H492 H 1.256800 -0.092200 -0.322800
H493 H 1.281200 -0.081300 -0.093400
C494 C 1.130810 0.078100 0.436800
C495 C 1.131900 0.110300 0.560000
C496 C 1.101100 0.067200 0.659500
C497 C 1.069300 -0.007400 0.637200
C498 C 1.068200 -0.039600 0.514800
C499 C 1.098800 0.002800 0.414100
H500 H 1.153600 0.161500 0.575300
H501 H 1.101800 0.089000 0.743700
H502 H 1.049300 -0.033600 0.709900
H503 H 1.046400 -0.090800 0.499500
H504 H 1.098100 -0.018800 0.329900
O505 O 0.916240 0.044020 -0.150300
C506 C 0.994000 0.034570 -0.048700
O507 O 1.061860 0.090000 -0.036980
Cu508 Cu 0.825280 -0.055650 -0.135280
P509 P 0.829790 -0.131460 -0.301270
P510 P 0.650750 -0.032780 -0.098100
C511 C 0.676800 -0.152400 -0.300000
C512 C 0.606300 -0.117700 -0.197300
H513 H 0.674900 -0.206100 -0.285000
H514 H 0.634900 -0.135300 -0.385100
H515 H 0.606000 -0.157300 -0.133100
H516 H 0.531500 -0.105100 -0.251000
C517 C 0.949700 -0.197800 -0.269500
C518 C 1.028300 -0.196800 -0.355100
C519 C 0.967900 -0.248900 -0.165300
C520 C 1.062100 -0.297400 -0.148700
C521 C 1.139300 -0.296100 -0.234000
C522 C 1.122200 -0.245500 -0.337800
H523 H 1.016400 -0.162000 -0.426400
H524 H 1.174600 -0.244000 -0.397100
H525 H 1.203400 -0.329600 -0.221000
H526 H 1.073600 -0.332100 -0.077300
H527 H 0.915600 -0.250400 -0.105900
C528 C 0.667700 -0.028400 0.081200
C529 C 0.603000 0.061150 -0.154300
C530 C 0.646700 -0.089400 0.157700
C531 C 0.704100 0.039300 0.144800
C532 C 0.661300 -0.082600 0.293900
C533 C 0.697200 -0.015300 0.355800
C534 C 0.718600 0.045800 0.281000
C535 C 0.575000 0.115900 -0.068900
C536 C 0.594200 0.079800 -0.287400
C537 C 0.558200 0.150900 -0.333500
C538 C 0.530600 0.204600 -0.247800
C539 C 0.539100 0.187000 -0.115600
H540 H 0.613100 0.043000 -0.346500
H541 H 0.552600 0.162600 -0.424400
H542 H 0.505900 0.253300 -0.279000
H543 H 0.520200 0.223600 -0.056000
H544 H 0.580600 0.104100 0.022000
H545 H 0.622000 -0.135900 0.116100
H546 H 0.646500 -0.124700 0.344900
H547 H 0.707000 -0.011000 0.449000
H548 H 0.743200 0.092200 0.322800
H549 H 0.718800 0.081300 0.093400
C550 C 0.869190 -0.078100 -0.436800
C551 C 0.868100 -0.110300 -0.560000
C552 C 0.898900 -0.067200 -0.659500
C553 C 0.930700 0.007400 -0.637200
C554 C 0.931800 0.039600 -0.514800
C555 C 0.901200 -0.002800 -0.414100
H556 H 0.846400 -0.161500 -0.575300
H557 H 0.898200 -0.089000 -0.743700
H558 H 0.950700 0.033600 -0.709900
H559 H 0.953600 0.090800 -0.499500
H560 H 0.901900 0.018800 -0.329900
Cu561 Cu 1.174720 0.055650 1.135280
P562 P 1.170210 0.131460 1.301270
P563 P 1.349250 0.032780 1.098100
O564 O 1.083760 -0.044020 1.150300
C565 C 1.006000 -0.034570 1.048700
O566 O 0.938140 -0.090000 1.036980
C567 C 1.323200 0.152400 1.300000
C568 C 1.393700 0.117700 1.197300
H569 H 1.325100 0.206100 1.285000
H570 H 1.365100 0.135300 1.385100
H571 H 1.394000 0.157300 1.133100
H572 H 1.468500 0.105100 1.251000
C573 C 1.050300 0.197800 1.269500
C574 C 0.971700 0.196800 1.355100
C575 C 1.032100 0.248900 1.165300
C576 C 0.937900 0.297400 1.148700
C577 C 0.860700 0.296100 1.234000
C578 C 0.877800 0.245500 1.337800
H579 H 0.983600 0.162000 1.426400
H580 H 0.825400 0.244000 1.397100
H581 H 0.796600 0.329600 1.221000
H582 H 0.926400 0.332100 1.077300
H583 H 1.084400 0.250400 1.105900
C584 C 1.332300 0.028400 0.918800
C585 C 1.397000 -0.061150 1.154300
C586 C 1.353300 0.089400 0.842300
C587 C 1.295900 -0.039300 0.855200
C588 C 1.338700 0.082600 0.706100
C589 C 1.302800 0.015300 0.644200
C590 C 1.281400 -0.045800 0.719000
C591 C 1.425000 -0.115900 1.068900
C592 C 1.405800 -0.079800 1.287400
C593 C 1.441800 -0.150900 1.333500
C594 C 1.469400 -0.204600 1.247800
C595 C 1.460900 -0.187000 1.115600
H596 H 1.386900 -0.043000 1.346500
H597 H 1.447400 -0.162600 1.424400
H598 H 1.494100 -0.253300 1.279000
H599 H 1.479800 -0.223600 1.056000
H600 H 1.419400 -0.104100 0.978000
H601 H 1.378000 0.135900 0.883900
H602 H 1.353500 0.124700 0.655100
H603 H 1.293000 0.011000 0.551000
H604 H 1.256800 -0.092200 0.677200
H605 H 1.281200 -0.081300 0.906600
C606 C 1.130810 0.078100 1.436800
C607 C 1.131900 0.110300 1.560000
C608 C 1.101100 0.067200 1.659500
C609 C 1.069300 -0.007400 1.637200
C610 C 1.068200 -0.039600 1.514800
C611 C 1.098800 0.002800 1.414100
H612 H 1.153600 0.161500 1.575300
H613 H 1.101800 0.089000 1.743700
H614 H 1.049300 -0.033600 1.709900
H615 H 1.046400 -0.090800 1.499500
H616 H 1.098100 -0.018800 1.329900
O617 O 0.916240 0.044020 0.849700
C618 C 0.994000 0.034570 0.951300
O619 O 1.061860 0.090000 0.963020
Cu620 Cu 0.825280 -0.055650 0.864720
P621 P 0.829790 -0.131460 0.698730
P622 P 0.650750 -0.032780 0.901900
C623 C 0.676800 -0.152400 0.700000
C624 C 0.606300 -0.117700 0.802700
H625 H 0.674900 -0.206100 0.715000
H626 H 0.634900 -0.135300 0.614900
H627 H 0.606000 -0.157300 0.866900
H628 H 0.531500 -0.105100 0.749000
C629 C 0.949700 -0.197800 0.730500
C630 C 1.028300 -0.196800 0.644900
C631 C 0.967900 -0.248900 0.834700
C632 C 1.062100 -0.297400 0.851300
C633 C 1.139300 -0.296100 0.766000
C634 C 1.122200 -0.245500 0.662200
H635 H 1.016400 -0.162000 0.573600
H636 H 1.174600 -0.244000 0.602900
H637 H 1.203400 -0.329600 0.779000
H638 H 1.073600 -0.332100 0.922700
H639 H 0.915600 -0.250400 0.894100
C640 C 0.667700 -0.028400 1.081200
C641 C 0.603000 0.061150 0.845700
C642 C 0.646700 -0.089400 1.157700
C643 C 0.704100 0.039300 1.144800
C644 C 0.661300 -0.082600 1.293900
C645 C 0.697200 -0.015300 1.355800
C646 C 0.718600 0.045800 1.281000
C647 C 0.575000 0.115900 0.931100
C648 C 0.594200 0.079800 0.712600
C649 C 0.558200 0.150900 0.666500
C650 C 0.530600 0.204600 0.752200
C651 C 0.539100 0.187000 0.884400
H652 H 0.613100 0.043000 0.653500
H653 H 0.552600 0.162600 0.575600
H654 H 0.505900 0.253300 0.721000
H655 H 0.520200 0.223600 0.944000
H656 H 0.580600 0.104100 1.022000
H657 H 0.622000 -0.135900 1.116100
H658 H 0.646500 -0.124700 1.344900
H659 H 0.707000 -0.011000 1.449000
H660 H 0.743200 0.092200 1.322800
H661 H 0.718800 0.081300 1.093400
C662 C 0.869190 -0.078100 0.563200
C663 C 0.868100 -0.110300 0.440000
C664 C 0.898900 -0.067200 0.340500
C665 C 0.930700 0.007400 0.362800
C666 C 0.931800 0.039600 0.485200
C667 C 0.901200 -0.002800 0.585900
H668 H 0.846400 -0.161500 0.424700
H669 H 0.898200 -0.089000 0.256300
H670 H 0.950700 0.033600 0.290100
H671 H 0.953600 0.090800 0.500500
H672 H 0.901900 0.018800 0.670100
Cu673 Cu 1.174720 1.055650 0.135280
P674 P 1.170210 1.131460 0.301270
P675 P 1.349250 1.032780 0.098100
O676 O 1.083760 0.955980 0.150300
C677 C 1.006000 0.965430 0.048700
O678 O 0.938140 0.910000 0.036980
C679 C 1.323200 1.152400 0.300000
C680 C 1.393700 1.117700 0.197300
H681 H 1.325100 1.206100 0.285000
H682 H 1.365100 1.135300 0.385100
H683 H 1.394000 1.157300 0.133100
H684 H 1.468500 1.105100 0.251000
C685 C 1.050300 1.197800 0.269500
C686 C 0.971700 1.196800 0.355100
C687 C 1.032100 1.248900 0.165300
C688 C 0.937900 1.297400 0.148700
C689 C 0.860700 1.296100 0.234000
C690 C 0.877800 1.245500 0.337800
H691 H 0.983600 1.162000 0.426400
H692 H 0.825400 1.244000 0.397100
H693 H 0.796600 1.329600 0.221000
H694 H 0.926400 1.332100 0.077300
H695 H 1.084400 1.250400 0.105900
C696 C 1.332300 1.028400 -0.081200
C697 C 1.397000 0.938850 0.154300
C698 C 1.353300 1.089400 -0.157700
C699 C 1.295900 0.960700 -0.144800
C700 C 1.338700 1.082600 -0.293900
C701 C 1.302800 1.015300 -0.355800
C702 C 1.281400 0.954200 -0.281000
C703 C 1.425000 0.884100 0.068900
C704 C 1.405800 0.920200 0.287400
C705 C 1.441800 0.849100 0.333500
C706 C 1.469400 0.795400 0.247800
C707 C 1.460900 0.813000 0.115600
H708 H 1.386900 0.957000 0.346500
H709 H 1.447400 0.837400 0.424400
H710 H 1.494100 0.746700 0.279000
H711 H 1.479800 0.776400 0.056000
H712 H 1.419400 0.895900 -0.022000
H713 H 1.378000 1.135900 -0.116100
H714 H 1.353500 1.124700 -0.344900
H715 H 1.293000 1.011000 -0.449000
H716 H 1.256800 0.907800 -0.322800
H717 H 1.281200 0.918700 -0.093400
C718 C 1.130810 1.078100 0.436800
C719 C 1.131900 1.110300 0.560000
C720 C 1.101100 1.067200 0.659500
C721 C 1.069300 0.992600 0.637200
C722 C 1.068200 0.960400 0.514800
C723 C 1.098800 1.002800 0.414100
H724 H 1.153600 1.161500 0.575300
H725 H 1.101800 1.089000 0.743700
H726 H 1.049300 0.966400 0.709900
H727 H 1.046400 0.909200 0.499500
H728 H 1.098100 0.981200 0.329900
O729 O 0.916240 1.044020 -0.150300
C730 C 0.994000 1.034570 -0.048700
O731 O 1.061860 1.090000 -0.036980
Cu732 Cu 0.825280 0.944350 -0.135280
P733 P 0.829790 0.868540 -0.301270
P734 P 0.650750 0.967220 -0.098100
C735 C 0.676800 0.847600 -0.300000
C736 C 0.606300 0.882300 -0.197300
H737 H 0.674900 0.793900 -0.285000
H738 H 0.634900 0.864700 -0.385100
H739 H 0.606000 0.842700 -0.133100
H740 H 0.531500 0.894900 -0.251000
C741 C 0.949700 0.802200 -0.269500
C742 C 1.028300 0.803200 -0.355100
C743 C 0.967900 0.751100 -0.165300
C744 C 1.062100 0.702600 -0.148700
C745 C 1.139300 0.703900 -0.234000
C746 C 1.122200 0.754500 -0.337800
H747 H 1.016400 0.838000 -0.426400
H748 H 1.174600 0.756000 -0.397100
H749 H 1.203400 0.670400 -0.221000
H750 H 1.073600 0.667900 -0.077300
H751 H 0.915600 0.749600 -0.105900
C752 C 0.667700 0.971600 0.081200
C753 C 0.603000 1.061150 -0.154300
C754 C 0.646700 0.910600 0.157700
C755 C 0.704100 1.039300 0.144800
C756 C 0.661300 0.917400 0.293900
C757 C 0.697200 0.984700 0.355800
C758 C 0.718600 1.045800 0.281000
C759 C 0.575000 1.115900 -0.068900
C760 C 0.594200 1.079800 -0.287400
C761 C 0.558200 1.150900 -0.333500
C762 C 0.530600 1.204600 -0.247800
C763 C 0.539100 1.187000 -0.115600
H764 H 0.613100 1.043000 -0.346500
H765 H 0.552600 1.162600 -0.424400
H766 H 0.505900 1.253300 -0.279000
H767 H 0.520200 1.223600 -0.056000
H768 H 0.580600 1.104100 0.022000
H769 H 0.622000 0.864100 0.116100
H770 H 0.646500 0.875300 0.344900
H771 H 0.707000 0.989000 0.449000
H772 H 0.743200 1.092200 0.322800
H773 H 0.718800 1.081300 0.093400
C774 C 0.869190 0.921900 -0.436800
C775 C 0.868100 0.889700 -0.560000
C776 C 0.898900 0.932800 -0.659500
C777 C 0.930700 1.007400 -0.637200
C778 C 0.931800 1.039600 -0.514800
C779 C 0.901200 0.997200 -0.414100
H780 H 0.846400 0.838500 -0.575300
H781 H 0.898200 0.911000 -0.743700
H782 H 0.950700 1.033600 -0.709900
H783 H 0.953600 1.090800 -0.499500
H784 H 0.901900 1.018800 -0.329900
Cu785 Cu 1.174720 1.055650 1.135280
P786 P 1.170210 1.131460 1.301270
P787 P 1.349250 1.032780 1.098100
O788 O 1.083760 0.955980 1.150300
C789 C 1.006000 0.965430 1.048700
O790 O 0.938140 0.910000 1.036980
C791 C 1.323200 1.152400 1.300000
C792 C 1.393700 1.117700 1.197300
H793 H 1.325100 1.206100 1.285000
H794 H 1.365100 1.135300 1.385100
H795 H 1.394000 1.157300 1.133100
H796 H 1.468500 1.105100 1.251000
C797 C 1.050300 1.197800 1.269500
C798 C 0.971700 1.196800 1.355100
C799 C 1.032100 1.248900 1.165300
C800 C 0.937900 1.297400 1.148700
C801 C 0.860700 1.296100 1.234000
C802 C 0.877800 1.245500 1.337800
H803 H 0.983600 1.162000 1.426400
H804 H 0.825400 1.244000 1.397100
H805 H 0.796600 1.329600 1.221000
H806 H 0.926400 1.332100 1.077300
H807 H 1.084400 1.250400 1.105900
C808 C 1.332300 1.028400 0.918800
C809 C 1.397000 0.938850 1.154300
C810 C 1.353300 1.089400 0.842300
C811 C 1.295900 0.960700 0.855200
C812 C 1.338700 1.082600 0.706100
C813 C 1.302800 1.015300 0.644200
C814 C 1.281400 0.954200 0.719000
C815 C 1.425000 0.884100 1.068900
C816 C 1.405800 0.920200 1.287400
C817 C 1.441800 0.849100 1.333500
C818 C 1.469400 0.795400 1.247800
C819 C 1.460900 0.813000 1.115600
H820 H 1.386900 0.957000 1.346500
H821 H 1.447400 0.837400 1.424400
H822 H 1.494100 0.746700 1.279000
H823 H 1.479800 0.776400 1.056000
H824 H 1.419400 0.895900 0.978000
H825 H 1.378000 1.135900 0.883900
H826 H 1.353500 1.124700 0.655100
H827 H 1.293000 1.011000 0.551000
H828 H 1.256800 0.907800 0.677200
H829 H 1.281200 0.918700 0.906600
C830 C 1.130810 1.078100 1.436800
C831 C 1.131900 1.110300 1.560000
C832 C 1.101100 1.067200 1.659500
C833 C 1.069300 0.992600 1.637200
C834 C 1.068200 0.960400 1.514800
C835 C 1.098800 1.002800 1.414100
H836 H 1.153600 1.161500 1.575300
H837 H 1.101800 1.089000 1.743700
H838 H 1.049300 0.966400 1.709900
H839 H 1.046400 0.909200 1.499500
H840 H 1.098100 0.981200 1.329900
O841 O 0.916240 1.044020 0.849700
C842 C 0.994000 1.034570 0.951300
O843 O 1.061860 1.090000 0.963020
Cu844 Cu 0.825280 0.944350 0.864720
P845 P 0.829790 0.868540 0.698730
P846 P 0.650750 0.967220 0.901900
C847 C 0.676800 0.847600 0.700000
C848 C 0.606300 0.882300 0.802700
H849 H 0.674900 0.793900 0.715000
H850 H 0.634900 0.864700 0.614900
H851 H 0.606000 0.842700 0.866900
H852 H 0.531500 0.894900 0.749000
C853 C 0.949700 0.802200 0.730500
C854 C 1.028300 0.803200 0.644900
C855 C 0.967900 0.751100 0.834700
C856 C 1.062100 0.702600 0.851300
C857 C 1.139300 0.703900 0.766000
C858 C 1.122200 0.754500 0.662200
H859 H 1.016400 0.838000 0.573600
H860 H 1.174600 0.756000 0.602900
H861 H 1.203400 0.670400 0.779000
H862 H 1.073600 0.667900 0.922700
H863 H 0.915600 0.749600 0.894100
C864 C 0.667700 0.971600 1.081200
C865 C 0.603000 1.061150 0.845700
C866 C 0.646700 0.910600 1.157700
C867 C 0.704100 1.039300 1.144800
C868 C 0.661300 0.917400 1.293900
C869 C 0.697200 0.984700 1.355800
C870 C 0.718600 1.045800 1.281000
C871 C 0.575000 1.115900 0.931100
C872 C 0.594200 1.079800 0.712600
C873 C 0.558200 1.150900 0.666500
C874 C 0.530600 1.204600 0.752200
C875 C 0.539100 1.187000 0.884400
H876 H 0.613100 1.043000 0.653500
H877 H 0.552600 1.162600 0.575600
H878 H 0.505900 1.253300 0.721000
H879 H 0.520200 1.223600 0.944000
H880 H 0.580600 1.104100 1.022000
H881 H 0.622000 0.864100 1.116100
H882 H 0.646500 0.875300 1.344900
H883 H 0.707000 0.989000 1.449000
H884 H 0.743200 1.092200 1.322800
H885 H 0.718800 1.081300 1.093400
C886 C 0.869190 0.921900 0.563200
C887 C 0.868100 0.889700 0.440000
C888 C 0.898900 0.932800 0.340500
C889 C 0.930700 1.007400 0.362800
C890 C 0.931800 1.039600 0.485200
C891 C 0.901200 0.997200 0.585900
H892 H 0.846400 0.838500 0.424700
H893 H 0.898200 0.911000 0.256300
H894 H 0.950700 1.033600 0.290100
H895 H 0.953600 1.090800 0.500500
H896 H 0.901900 1.018800 0.670100
Cu897 Cu -0.174720 0.555650 0.364720
P898 P -0.170210 0.631460 0.198730
P899 P -0.349250 0.532780 0.401900
O900 O -0.083760 0.455980 0.349700
C901 C -0.006000 0.465430 0.451300
O902 O 0.061860 0.410000 0.463020
C903 C -0.323200 0.652400 0.200000
C904 C -0.393700 0.617700 0.302700
H905 H -0.325100 0.706100 0.215000
H906 H -0.365100 0.635300 0.114900
H907 H -0.394000 0.657300 0.366900
H908 H -0.468500 0.605100 0.249000
C909 C -0.050300 0.697800 0.230500
C910 C 0.028300 0.696800 0.144900
C911 C -0.032100 0.748900 0.334700
C912 C 0.062100 0.797400 0.351300
C913 C 0.139300 0.796100 0.266000
C914 C 0.122200 0.745500 0.162200
H915 H 0.016400 0.662000 0.073600
H916 H 0.174600 0.744000 0.102900
H917 H 0.203400 0.829600 0.279000
H918 H 0.073600 0.832100 0.422700
H919 H -0.084400 0.750400 0.394100
C920 C -0.332300 0.528400 0.581200
C921 C -0.397000 0.438850 0.345700
C922 C -0.353300 0.589400 0.657700
C923 C -0.295900 0.460700 0.644800
C924 C -0.338700 0.582600 0.793900
C925 C -0.302800 0.515300 0.855800
C926 C -0.281400 0.454200 0.781000
C927 C -0.425000 0.384100 0.431100
C928 C -0.405800 0.420200 0.212600
C929 C -0.441800 0.349100 0.166500
C930 C -0.469400 0.295400 0.252200
C931 C -0.460900 0.313000 0.384400
H932 H -0.386900 0.457000 0.153500
H933 H -0.447400 0.337400 0.075600
H934 H -0.494100 0.246700 0.221000
H935 H -0.479800 0.276400 0.444000
H936 H -0.419400 0.395900 0.522000
H937 H -0.378000 0.635900 0.616100
H938 H -0.353500 0.624700 0.844900
H939 H -0.293000 0.511000 0.949000
H940 H -0.256800 0.407800 0.822800
H941 H -0.281200 0.418700 0.593400
C942 C -0.130810 0.578100 0.063200
C943 C -0.131900 0.610300 -0.060000
C944 C -0.101100 0.567200 -0.159500
C945 C -0.069300 0.492600 -0.137200
C946 C -0.068200 0.460400 -0.014800
C947 C -0.098800 0.502800 0.085900
H948 H -0.153600 0.661500 -0.075300
H949 H -0.101800 0.589000 -0.243700
H950 H -0.049300 0.466400 -0.209900
H951 H -0.046400 0.409200 0.000500
H952 H -0.098100 0.481200 0.170100
O953 O 0.083760 0.544020 0.650300
C954 C 0.006000 0.534570 0.548700
O955 O -0.061860 0.590000 0.536980
Cu956 Cu 0.174720 0.444350 0.635280
P957 P 0.170210 0.368540 0.801270
P958 P 0.349250 0.467220 0.598100
C959 C 0.323200 0.347600 0.800000
C960 C 0.393700 0.382300 0.697300
H961 H 0.325100 0.293900 0.785000
H962 H 0.365100 0.364700 0.885100
H963 H 0.394000 0.342700 0.633100
H964 H 0.468500 0.394900 0.751000
C965 C 0.050300 0.302200 0.769500
C966 C -0.028300 0.303200 0.855100
C967 C 0.032100 0.251100 0.665300
C968 C -0.062100 0.202600 0.648700
C969 C -0.139300 0.203900 0.734000
C970 C -0.122200 0.254500 0.837800
H971 H -0.016400 0.338000 0.926400
H972 H -0.174600 0.256000 0.897100
H973 H -0.203400 0.170400 0.721000
H974 H -0.073600 0.167900 0.577300
H975 H 0.084400 0.249600 0.605900
C976 C 0.332300 0.471600 0.418800
C977 C 0.397000 0.561150 0.654300
C978 C 0.353300 0.410600 0.342300
C979 C 0.295900 0.539300 0.355200
C980 C 0.338700 0.417400 0.206100
C981 C 0.302800 0.484700 0.144200
C982 C 0.281400 0.545800 0.219000
C983 C 0.425000 0.615900 0.568900
C984 C 0.405800 0.579800 0.787400
C985 C 0.441800 0.650900 0.833500
C986 C 0.469400 0.704600 0.747800
C987 C 0.460900 0.687000 0.615600
H988 H 0.386900 0.543000 0.846500
H989 H 0.447400 0.662600 0.924400
H990 H 0.494100 0.753300 0.779000
H991 H 0.479800 0.723600 0.556000
H992 H 0.419400 0.604100 0.478000
H993 H 0.378000 0.364100 0.383900
H994 H 0.353500 0.375300 0.155100
H995 H 0.293000 0.489000 0.051000
H996 H 0.256800 0.592200 0.177200
H997 H 0.281200 0.581300 0.406600
C998 C 0.130810 0.421900 0.936800
C999 C 0.131900 0.389700 1.060000
C1000 C 0.101100 0.432800 1.159500
C1001 C 0.069300 0.507400 1.137200
C1002 C 0.068200 0.539600 1.014800
C1003 C 0.098800 0.497200 0.914100
H1004 H 0.153600 0.338500 1.075300
H1005 H 0.101800 0.411000 1.243700
H1006 H 0.049300 0.533600 1.209900
H1007 H 0.046400 0.590800 0.999500
H1008 H 0.098100 0.518800 0.829900
Cu1009 Cu 0.825280 0.555650 0.364720
P1010 P 0.829790 0.631460 0.198730
P1011 P 0.650750 0.532780 0.401900
O1012 O 0.916240 0.455980 0.349700
C1013 C 0.994000 0.465430 0.451300
O1014 O 1.061860 0.410000 0.463020
C1015 C 0.676800 0.652400 0.200000
C1016 C 0.606300 0.617700 0.302700
H1017 H 0.674900 0.706100 0.215000
H1018 H 0.634900 0.635300 0.114900
H1019 H 0.606000 0.657300 0.366900
H1020 H 0.531500 0.605100 0.249000
C1021 C 0.949700 0.697800 0.230500
C1022 C 1.028300 0.696800 0.144900
C1023 C 0.967900 0.748900 0.334700
C1024 C 1.062100 0.797400 0.351300
C1025 C 1.139300 0.796100 0.266000
C1026 C 1.122200 0.745500 0.162200
H1027 H 1.016400 0.662000 0.073600
H1028 H 1.174600 0.744000 0.102900
H1029 H 1.203400 0.829600 0.279000
H1030 H 1.073600 0.832100 0.422700
H1031 H 0.915600 0.750400 0.394100
C1032 C 0.667700 0.528400 0.581200
C1033 C 0.603000 0.438850 0.345700
C1034 C 0.646700 0.589400 0.657700
C1035 C 0.704100 0.460700 0.644800
C1036 C 0.661300 0.582600 0.793900
C1037 C 0.697200 0.515300 0.855800
C1038 C 0.718600 0.454200 0.781000
C1039 C 0.575000 0.384100 0.431100
C1040 C 0.594200 0.420200 0.212600
C1041 C 0.558200 0.349100 0.166500
C1042 C 0.530600 0.295400 0.252200
C1043 C 0.539100 0.313000 0.384400
H1044 H 0.613100 0.457000 0.153500
H1045 H 0.552600 0.337400 0.075600
H1046 H 0.505900 0.246700 0.221000
H1047 H 0.520200 0.276400 0.444000
H1048 H 0.580600 0.395900 0.522000
H1049 H 0.622000 0.635900 0.616100
H1050 H 0.646500 0.624700 0.844900
H1051 H 0.707000 0.511000 0.949000
H1052 H 0.743200 0.407800 0.822800
H1053 H 0.718800 0.418700 0.593400
C1054 C 0.869190 0.578100 0.063200
C1055 C 0.868100 0.610300 -0.060000
C1056 C 0.898900 0.567200 -0.159500
C1057 C 0.930700 0.492600 -0.137200
C1058 C 0.931800 0.460400 -0.014800
C1059 C 0.901200 0.502800 0.085900
H1060 H 0.846400 0.661500 -0.075300
H1061 H 0.898200 0.589000 -0.243700
H1062 H 0.950700 0.466400 -0.209900
H1063 H 0.953600 0.409200 0.000500
H1064 H 0.901900 0.481200 0.170100
O1065 O 1.083760 0.544020 0.650300
C1066 C 1.006000 0.534570 0.548700
O1067 O 0.938140 0.590000 0.536980
Cu1068 Cu 1.174720 0.444350 0.635280
P1069 P 1.170210 0.368540 0.801270
P1070 P 1.349250 0.467220 0.598100
C1071 C 1.323200 0.347600 0.800000
C1072 C 1.393700 0.382300 0.697300
H1073 H 1.325100 0.293900 0.785000
H1074 H 1.365100 0.364700 0.885100
H1075 H 1.394000 0.342700 0.633100
H1076 H 1.468500 0.394900 0.751000
C1077 C 1.050300 0.302200 0.769500
C1078 C 0.971700 0.303200 0.855100
C1079 C 1.032100 0.251100 0.665300
C1080 C 0.937900 0.202600 0.648700
C1081 C 0.860700 0.203900 0.734000
C1082 C 0.877800 0.254500 0.837800
H1083 H 0.983600 0.338000 0.926400
H1084 H 0.825400 0.256000 0.897100
H1085 H 0.796600 0.170400 0.721000
H1086 H 0.926400 0.167900 0.577300
H1087 H 1.084400 0.249600 0.605900
C1088 C 1.332300 0.471600 0.418800
C1089 C 1.397000 0.561150 0.654300
C1090 C 1.353300 0.410600 0.342300
C1091 C 1.295900 0.539300 0.355200
C1092 C 1.338700 0.417400 0.206100
C1093 C 1.302800 0.484700 0.144200
C1094 C 1.281400 0.545800 0.219000
C1095 C 1.425000 0.615900 0.568900
C1096 C 1.405800 0.579800 0.787400
C1097 C 1.441800 0.650900 0.833500
C1098 C 1.469400 0.704600 0.747800
C1099 C 1.460900 0.687000 0.615600
H1100 H 1.386900 0.543000 0.846500
H1101 H 1.447400 0.662600 0.924400
H1102 H 1.494100 0.753300 0.779000
H1103 H 1.479800 0.723600 0.556000
H1104 H 1.419400 0.604100 0.478000
H1105 H 1.378000 0.364100 0.383900
H1106 H 1.353500 0.375300 0.155100
H1107 H 1.293000 0.489000 0.051000
H1108 H 1.256800 0.592200 0.177200
H1109 H 1.281200 0.581300 0.406600
C1110 C 1.130810 0.421900 0.936800
C1111 C 1.131900 0.389700 1.060000
C1112 C 1.101100 0.432800 1.159500
C1113 C 1.069300 0.507400 1.137200
C1114 C 1.068200 0.539600 1.014800
C1115 C 1.098800 0.497200 0.914100
H1116 H 1.153600 0.338500 1.075300
H1117 H 1.101800 0.411000 1.243700
H1118 H 1.049300 0.533600 1.209900
H1119 H 1.046400 0.590800 0.999500
H1120 H 1.098100 0.518800 0.829900

#END
