
#######################################################################
#
#                 Cambridge Crystallographic Data Centre
#                                CCDC 
#
#######################################################################
#
# If this CIF has been generated from an entry in the Cambridge 
# Structural Database, then it will include bibliographic, chemical, 
# crystal, experimental, refinement or atomic coordinate data resulting 
# from the CCDC's data processing and validation procedures.
#
#######################################################################

data_ABAFIV
_symmetry_cell_setting           orthorhombic
_symmetry_space_group_name_H-M   'P b c n'
_symmetry_Int_Tables_number      60
_space_group_name_Hall           '-P 2n 2ab'
loop_
_symmetry_equiv_pos_site_id
_symmetry_equiv_pos_as_xyz
1 x,y,z
2 1/2-x,1/2-y,1/2+z
3 -x,y,1/2-z
4 1/2+x,1/2-y,-z
5 -x,-y,-z
6 1/2+x,1/2+y,1/2-z
7 x,-y,1/2+z
8 1/2-x,1/2+y,z
_cell_length_a                   18.8800(6)
_cell_length_b                   9.6621(3)
_cell_length_c                   20.2576(6)
_cell_angle_alpha                90
_cell_angle_beta                 90
_cell_angle_gamma                90
_cell_volume                     3695.4
loop_
_atom_site_label
_atom_site_type_symbol
_atom_site_fract_x
_atom_site_fract_y
_atom_site_fract_z
Cu1 Cu 0.571086(13) -0.12571(3) 0.102375(11)
O1 O 0.46741(7) -0.10900(13) 0.06214(6)
O2 O 0.41117(7) -0.01449(14) -0.02386(6)
N1 N 0.58787(9) -0.00061(17) 0.23904(8)
N2 N 0.62680(10) -0.40098(18) 0.04960(8)
C1 C 0.46465(10) -0.0351(2) 0.01078(9)
C2 C 0.57937(11) -0.0451(2) 0.18667(10)
C3 C 0.60532(11) 0.0502(2) 0.30463(9)
H1 H 0.5804 -0.0087 0.3379
C4 C 0.58026(11) 0.1993(2) 0.31301(10)
H2 H 0.6018 0.2581 0.2784
H3 H 0.5281 0.2036 0.3080
C5 C 0.60124(12) 0.2532(2) 0.38088(10)
H4 H 0.5756 0.2004 0.4153
H5 H 0.5873 0.3517 0.3848
C6 C 0.68091(12) 0.2396(2) 0.39212(10)
H6 H 0.7065 0.2994 0.3604
H7 H 0.6927 0.2713 0.4373
C7 C 0.70497(12) 0.0900(2) 0.38339(10)
H8 H 0.7570 0.0844 0.3890
H9 H 0.6827 0.0314 0.4177
C8 C 0.68479(11) 0.0357(2) 0.31516(10)
H10 H 0.7105 0.0885 0.2808
H11 H 0.6986 -0.0629 0.3113
C9 C 0.60595(11) -0.2990(2) 0.07146(10)
C10 C 0.65495(11) -0.5310(2) 0.02402(10)
H12 H 0.6569 -0.5255 -0.0252
C11 C 0.72984(11) -0.5516(2) 0.05034(10)
H13 H 0.7586 -0.4684 0.0405
H14 H 0.7520 -0.6315 0.0277
C12 C 0.72962(12) -0.5772(3) 0.12470(11)
H15 H 0.7785 -0.5963 0.1398
H16 H 0.7126 -0.4931 0.1477
C13 C 0.68232(14) -0.6983(2) 0.14213(11)
H17 H 0.6816 -0.7104 0.1907
H18 H 0.7019 -0.7839 0.1224
C14 C 0.60688(14) -0.6768(2) 0.11735(11)
H19 H 0.5783 -0.7603 0.1270
H20 H 0.5852 -0.5976 0.1409
C15 C 0.60594(13) -0.6490(2) 0.04355(11)
H21 H 0.5570 -0.6262 0.0298
H22 H 0.6204 -0.7340 0.0199
O1D O 0.53259(7) 0.10900(13) -0.06214(6)
C1D C 0.53535(10) 0.0351(2) -0.01078(9)
O2D O 0.58883(7) 0.01449(14) 0.02386(6)
Cu1D Cu 0.428914(13) 0.12571(3) -0.102375(11)
N1D N 0.41213(9) 0.00061(17) -0.23904(8)
N2D N 0.37320(10) 0.40098(18) -0.04960(8)
C2D C 0.42063(11) 0.0451(2) -0.18667(10)
C3D C 0.39468(11) -0.0502(2) -0.30463(9)
H1D H 0.4196 0.0087 -0.3379
C4D C 0.41974(11) -0.1993(2) -0.31301(10)
H2D H 0.3982 -0.2581 -0.2784
H3D H 0.4719 -0.2036 -0.3080
C5D C 0.39876(12) -0.2532(2) -0.38088(10)
H4D H 0.4244 -0.2004 -0.4153
H5D H 0.4127 -0.3517 -0.3848
C6D C 0.31909(12) -0.2396(2) -0.39212(10)
H6D H 0.2935 -0.2994 -0.3604
H7D H 0.3073 -0.2713 -0.4373
C7D C 0.29503(12) -0.0900(2) -0.38339(10)
H8D H 0.2430 -0.0844 -0.3890
H9D H 0.3173 -0.0314 -0.4177
C8D C 0.31521(11) -0.0357(2) -0.31516(10)
H10D H 0.2895 -0.0885 -0.2808
H11D H 0.3014 0.0629 -0.3113
C9D C 0.39405(11) 0.2990(2) -0.07146(10)
C10D C 0.34505(11) 0.5310(2) -0.02402(10)
H12D H 0.3431 0.5255 0.0252
C11D C 0.27016(11) 0.5516(2) -0.05034(10)
H13D H 0.2414 0.4684 -0.0405
H14D H 0.2480 0.6315 -0.0277
C12D C 0.27038(12) 0.5772(3) -0.12470(11)
H15D H 0.2215 0.5963 -0.1398
H16D H 0.2874 0.4931 -0.1477
C13D C 0.31768(14) 0.6983(2) -0.14213(11)
H17D H 0.3184 0.7104 -0.1907
H18D H 0.2981 0.7839 -0.1224
C14D C 0.39312(14) 0.6768(2) -0.11735(11)
H19D H 0.4217 0.7603 -0.1270
H20D H 0.4148 0.5976 -0.1409
C15D C 0.39406(13) 0.6490(2) -0.04355(11)
H21D H 0.4430 0.6262 -0.0298
H22D H 0.3796 0.7340 -0.0199
Cu1 Cu 0.571086(13) -0.12571(3) 1.102375(11)
O1 O 0.46741(7) -0.10900(13) 1.06214(6)
O2 O 0.41117(7) -0.01449(14) 0.97614(6)
N1 N 0.58787(9) -0.00061(17) 1.23904(8)
N2 N 0.62680(10) -0.40098(18) 1.04960(8)
C1 C 0.46465(10) -0.0351(2) 1.01078(9)
C2 C 0.57937(11) -0.0451(2) 1.18667(10)
C3 C 0.60532(11) 0.0502(2) 1.30463(9)
H1 H 0.5804 -0.0087 1.3379
C4 C 0.58026(11) 0.1993(2) 1.31301(10)
H2 H 0.6018 0.2581 1.2784
H3 H 0.5281 0.2036 1.3080
C5 C 0.60124(12) 0.2532(2) 1.38088(10)
H4 H 0.5756 0.2004 1.4153
H5 H 0.5873 0.3517 1.3848
C6 C 0.68091(12) 0.2396(2) 1.39212(10)
H6 H 0.7065 0.2994 1.3604
H7 H 0.6927 0.2713 1.4373
C7 C 0.70497(12) 0.0900(2) 1.38339(10)
H8 H 0.7570 0.0844 1.3890
H9 H 0.6827 0.0314 1.4177
C8 C 0.68479(11) 0.0357(2) 1.31516(10)
H10 H 0.7105 0.0885 1.2808
H11 H 0.6986 -0.0629 1.3113
C9 C 0.60595(11) -0.2990(2) 1.07146(10)
C10 C 0.65495(11) -0.5310(2) 1.02402(10)
H12 H 0.6569 -0.5255 0.9748
C11 C 0.72984(11) -0.5516(2) 1.05034(10)
H13 H 0.7586 -0.4684 1.0405
H14 H 0.7520 -0.6315 1.0277
C12 C 0.72962(12) -0.5772(3) 1.12470(11)
H15 H 0.7785 -0.5963 1.1398
H16 H 0.7126 -0.4931 1.1477
C13 C 0.68232(14) -0.6983(2) 1.14213(11)
H17 H 0.6816 -0.7104 1.1907
H18 H 0.7019 -0.7839 1.1224
C14 C 0.60688(14) -0.6768(2) 1.11735(11)
H19 H 0.5783 -0.7603 1.1270
H20 H 0.5852 -0.5976 1.1409
C15 C 0.60594(13) -0.6490(2) 1.04355(11)
H21 H 0.5570 -0.6262 1.0298
H22 H 0.6204 -0.7340 1.0199
O1D O 0.53259(7) 0.10900(13) 0.93786(6)
C1D C 0.53535(10) 0.0351(2) 0.98922(9)
O2D O 0.58883(7) 0.01449(14) 1.02386(6)
Cu1D Cu 0.428914(13) 0.12571(3) 0.897625(11)
N1D N 0.41213(9) 0.00061(17) 0.76096(8)
N2D N 0.37320(10) 0.40098(18) 0.95040(8)
C2D C 0.42063(11) 0.0451(2) 0.81333(10)
C3D C 0.39468(11) -0.0502(2) 0.69537(9)
H1D H 0.4196 0.0087 0.6621
C4D C 0.41974(11) -0.1993(2) 0.68699(10)
H2D H 0.3982 -0.2581 0.7216
H3D H 0.4719 -0.2036 0.6920
C5D C 0.39876(12) -0.2532(2) 0.61912(10)
H4D H 0.4244 -0.2004 0.5847
H5D H 0.4127 -0.3517 0.6152
C6D C 0.31909(12) -0.2396(2) 0.60788(10)
H6D H 0.2935 -0.2994 0.6396
H7D H 0.3073 -0.2713 0.5627
C7D C 0.29503(12) -0.0900(2) 0.61661(10)
H8D H 0.2430 -0.0844 0.6110
H9D H 0.3173 -0.0314 0.5823
C8D C 0.31521(11) -0.0357(2) 0.68484(10)
H10D H 0.2895 -0.0885 0.7192
H11D H 0.3014 0.0629 0.6887
C9D C 0.39405(11) 0.2990(2) 0.92854(10)
C10D C 0.34505(11) 0.5310(2) 0.97598(10)
H12D H 0.3431 0.5255 1.0252
C11D C 0.27016(11) 0.5516(2) 0.94966(10)
H13D H 0.2414 0.4684 0.9595
H14D H 0.2480 0.6315 0.9723
C12D C 0.27038(12) 0.5772(3) 0.87530(11)
H15D H 0.2215 0.5963 0.8602
H16D H 0.2874 0.4931 0.8523
C13D C 0.31768(14) 0.6983(2) 0.85787(11)
H17D H 0.3184 0.7104 0.8093
H18D H 0.2981 0.7839 0.8776
C14D C 0.39312(14) 0.6768(2) 0.88265(11)
H19D H 0.4217 0.7603 0.8730
H20D H 0.4148 0.5976 0.8591
C15D C 0.39406(13) 0.6490(2) 0.95645(11)
H21D H 0.4430 0.6262 0.9702
H22D H 0.3796 0.7340 0.9801
Cu1 Cu 0.571086(13) 0.87429(3) 0.102375(11)
O1 O 0.46741(7) 0.89100(13) 0.06214(6)
O2 O 0.41117(7) 0.98551(14) -0.02386(6)
N1 N 0.58787(9) 0.99939(17) 0.23904(8)
N2 N 0.62680(10) 0.59902(18) 0.04960(8)
C1 C 0.46465(10) 0.9649(2) 0.01078(9)
C2 C 0.57937(11) 0.9549(2) 0.18667(10)
C3 C 0.60532(11) 1.0502(2) 0.30463(9)
H1 H 0.5804 0.9913 0.3379
C4 C 0.58026(11) 1.1993(2) 0.31301(10)
H2 H 0.6018 1.2581 0.2784
H3 H 0.5281 1.2036 0.3080
C5 C 0.60124(12) 1.2532(2) 0.38088(10)
H4 H 0.5756 1.2004 0.4153
H5 H 0.5873 1.3517 0.3848
C6 C 0.68091(12) 1.2396(2) 0.39212(10)
H6 H 0.7065 1.2994 0.3604
H7 H 0.6927 1.2713 0.4373
C7 C 0.70497(12) 1.0900(2) 0.38339(10)
H8 H 0.7570 1.0844 0.3890
H9 H 0.6827 1.0314 0.4177
C8 C 0.68479(11) 1.0357(2) 0.31516(10)
H10 H 0.7105 1.0885 0.2808
H11 H 0.6986 0.9371 0.3113
C9 C 0.60595(11) 0.7010(2) 0.07146(10)
C10 C 0.65495(11) 0.4690(2) 0.02402(10)
H12 H 0.6569 0.4745 -0.0252
C11 C 0.72984(11) 0.4484(2) 0.05034(10)
H13 H 0.7586 0.5316 0.0405
H14 H 0.7520 0.3685 0.0277
C12 C 0.72962(12) 0.4228(3) 0.12470(11)
H15 H 0.7785 0.4037 0.1398
H16 H 0.7126 0.5069 0.1477
C13 C 0.68232(14) 0.3017(2) 0.14213(11)
H17 H 0.6816 0.2896 0.1907
H18 H 0.7019 0.2161 0.1224
C14 C 0.60688(14) 0.3232(2) 0.11735(11)
H19 H 0.5783 0.2397 0.1270
H20 H 0.5852 0.4024 0.1409
C15 C 0.60594(13) 0.3510(2) 0.04355(11)
H21 H 0.5570 0.3738 0.0298
H22 H 0.6204 0.2660 0.0199
O1D O 0.53259(7) 1.10900(13) -0.06214(6)
C1D C 0.53535(10) 1.0351(2) -0.01078(9)
O2D O 0.58883(7) 1.01449(14) 0.02386(6)
Cu1D Cu 0.428914(13) 1.12571(3) -0.102375(11)
N1D N 0.41213(9) 1.00061(17) -0.23904(8)
N2D N 0.37320(10) 1.40098(18) -0.04960(8)
C2D C 0.42063(11) 1.0451(2) -0.18667(10)
C3D C 0.39468(11) 0.9498(2) -0.30463(9)
H1D H 0.4196 1.0087 -0.3379
C4D C 0.41974(11) 0.8007(2) -0.31301(10)
H2D H 0.3982 0.7419 -0.2784
H3D H 0.4719 0.7964 -0.3080
C5D C 0.39876(12) 0.7468(2) -0.38088(10)
H4D H 0.4244 0.7996 -0.4153
H5D H 0.4127 0.6483 -0.3848
C6D C 0.31909(12) 0.7604(2) -0.39212(10)
H6D H 0.2935 0.7006 -0.3604
H7D H 0.3073 0.7287 -0.4373
C7D C 0.29503(12) 0.9100(2) -0.38339(10)
H8D H 0.2430 0.9156 -0.3890
H9D H 0.3173 0.9686 -0.4177
C8D C 0.31521(11) 0.9643(2) -0.31516(10)
H10D H 0.2895 0.9115 -0.2808
H11D H 0.3014 1.0629 -0.3113
C9D C 0.39405(11) 1.2990(2) -0.07146(10)
C10D C 0.34505(11) 1.5310(2) -0.02402(10)
H12D H 0.3431 1.5255 0.0252
C11D C 0.27016(11) 1.5516(2) -0.05034(10)
H13D H 0.2414 1.4684 -0.0405
H14D H 0.2480 1.6315 -0.0277
C12D C 0.27038(12) 1.5772(3) -0.12470(11)
H15D H 0.2215 1.5963 -0.1398
H16D H 0.2874 1.4931 -0.1477
C13D C 0.31768(14) 1.6983(2) -0.14213(11)
H17D H 0.3184 1.7104 -0.1907
H18D H 0.2981 1.7839 -0.1224
C14D C 0.39312(14) 1.6768(2) -0.11735(11)
H19D H 0.4217 1.7603 -0.1270
H20D H 0.4148 1.5976 -0.1409
C15D C 0.39406(13) 1.6490(2) -0.04355(11)
H21D H 0.4430 1.6262 -0.0298
H22D H 0.3796 1.7340 -0.0199
Cu1 Cu 0.571086(13) 0.87429(3) 1.102375(11)
O1 O 0.46741(7) 0.89100(13) 1.06214(6)
O2 O 0.41117(7) 0.98551(14) 0.97614(6)
N1 N 0.58787(9) 0.99939(17) 1.23904(8)
N2 N 0.62680(10) 0.59902(18) 1.04960(8)
C1 C 0.46465(10) 0.9649(2) 1.01078(9)
C2 C 0.57937(11) 0.9549(2) 1.18667(10)
C3 C 0.60532(11) 1.0502(2) 1.30463(9)
H1 H 0.5804 0.9913 1.3379
C4 C 0.58026(11) 1.1993(2) 1.31301(10)
H2 H 0.6018 1.2581 1.2784
H3 H 0.5281 1.2036 1.3080
C5 C 0.60124(12) 1.2532(2) 1.38088(10)
H4 H 0.5756 1.2004 1.4153
H5 H 0.5873 1.3517 1.3848
C6 C 0.68091(12) 1.2396(2) 1.39212(10)
H6 H 0.7065 1.2994 1.3604
H7 H 0.6927 1.2713 1.4373
C7 C 0.70497(12) 1.0900(2) 1.38339(10)
H8 H 0.7570 1.0844 1.3890
H9 H 0.6827 1.0314 1.4177
C8 C 0.68479(11) 1.0357(2) 1.31516(10)
H10 H 0.7105 1.0885 1.2808
H11 H 0.6986 0.9371 1.3113
C9 C 0.60595(11) 0.7010(2) 1.07146(10)
C10 C 0.65495(11) 0.4690(2) 1.02402(10)
H12 H 0.6569 0.4745 0.9748
C11 C 0.72984(11) 0.4484(2) 1.05034(10)
H13 H 0.7586 0.5316 1.0405
H14 H 0.7520 0.3685 1.0277
C12 C 0.72962(12) 0.4228(3) 1.12470(11)
H15 H 0.7785 0.4037 1.1398
H16 H 0.7126 0.5069 1.1477
C13 C 0.68232(14) 0.3017(2) 1.14213(11)
H17 H 0.6816 0.2896 1.1907
H18 H 0.7019 0.2161 1.1224
C14 C 0.60688(14) 0.3232(2) 1.11735(11)
H19 H 0.5783 0.2397 1.1270
H20 H 0.5852 0.4024 1.1409
C15 C 0.60594(13) 0.3510(2) 1.04355(11)
H21 H 0.5570 0.3738 1.0298
H22 H 0.6204 0.2660 1.0199
O1D O 0.53259(7) 1.10900(13) 0.93786(6)
C1D C 0.53535(10) 1.0351(2) 0.98922(9)
O2D O 0.58883(7) 1.01449(14) 1.02386(6)
Cu1D Cu 0.428914(13) 1.12571(3) 0.897625(11)
N1D N 0.41213(9) 1.00061(17) 0.76096(8)
N2D N 0.37320(10) 1.40098(18) 0.95040(8)
C2D C 0.42063(11) 1.0451(2) 0.81333(10)
C3D C 0.39468(11) 0.9498(2) 0.69537(9)
H1D H 0.4196 1.0087 0.6621
C4D C 0.41974(11) 0.8007(2) 0.68699(10)
H2D H 0.3982 0.7419 0.7216
H3D H 0.4719 0.7964 0.6920
C5D C 0.39876(12) 0.7468(2) 0.61912(10)
H4D H 0.4244 0.7996 0.5847
H5D H 0.4127 0.6483 0.6152
C6D C 0.31909(12) 0.7604(2) 0.60788(10)
H6D H 0.2935 0.7006 0.6396
H7D H 0.3073 0.7287 0.5627
C7D C 0.29503(12) 0.9100(2) 0.61661(10)
H8D H 0.2430 0.9156 0.6110
H9D H 0.3173 0.9686 0.5823
C8D C 0.31521(11) 0.9643(2) 0.68484(10)
H10D H 0.2895 0.9115 0.7192
H11D H 0.3014 1.0629 0.6887
C9D C 0.39405(11) 1.2990(2) 0.92854(10)
C10D C 0.34505(11) 1.5310(2) 0.97598(10)
H12D H 0.3431 1.5255 1.0252
C11D C 0.27016(11) 1.5516(2) 0.94966(10)
H13D H 0.2414 1.4684 0.9595
H14D H 0.2480 1.6315 0.9723
C12D C 0.27038(12) 1.5772(3) 0.87530(11)
H15D H 0.2215 1.5963 0.8602
H16D H 0.2874 1.4931 0.8523
C13D C 0.31768(14) 1.6983(2) 0.85787(11)
H17D H 0.3184 1.7104 0.8093
H18D H 0.2981 1.7839 0.8776
C14D C 0.39312(14) 1.6768(2) 0.88265(11)
H19D H 0.4217 1.7603 0.8730
H20D H 0.4148 1.5976 0.8591
C15D C 0.39406(13) 1.6490(2) 0.95645(11)
H21D H 0.4430 1.6262 0.9702
H22D H 0.3796 1.7340 0.9801
Cu1 Cu -0.071086(13) 0.62571(3) 0.602375(11)
O1 O 0.03259(7) 0.60900(13) 0.56214(6)
O2 O 0.08883(7) 0.51449(14) 0.47614(6)
N1 N -0.08787(9) 0.50061(17) 0.73904(8)
N2 N -0.12680(10) 0.90098(18) 0.54960(8)
C1 C 0.03535(10) 0.5351(2) 0.51078(9)
C2 C -0.07937(11) 0.5451(2) 0.68667(10)
C3 C -0.10532(11) 0.4498(2) 0.80463(9)
H1 H -0.0804 0.5087 0.8379
C4 C -0.08026(11) 0.3007(2) 0.81301(10)
H2 H -0.1018 0.2419 0.7784
H3 H -0.0281 0.2964 0.8080
C5 C -0.10124(12) 0.2468(2) 0.88088(10)
H4 H -0.0756 0.2996 0.9153
H5 H -0.0873 0.1483 0.8848
C6 C -0.18091(12) 0.2604(2) 0.89212(10)
H6 H -0.2065 0.2006 0.8604
H7 H -0.1927 0.2287 0.9373
C7 C -0.20497(12) 0.4100(2) 0.88339(10)
H8 H -0.2570 0.4156 0.8890
H9 H -0.1827 0.4686 0.9177
C8 C -0.18479(11) 0.4643(2) 0.81516(10)
H10 H -0.2105 0.4115 0.7808
H11 H -0.1986 0.5629 0.8113
C9 C -0.10595(11) 0.7990(2) 0.57146(10)
C10 C -0.15495(11) 1.0310(2) 0.52402(10)
H12 H -0.1569 1.0255 0.4748
C11 C -0.22984(11) 1.0516(2) 0.55034(10)
H13 H -0.2586 0.9684 0.5405
H14 H -0.2520 1.1315 0.5277
C12 C -0.22962(12) 1.0772(3) 0.62470(11)
H15 H -0.2785 1.0963 0.6398
H16 H -0.2126 0.9931 0.6477
C13 C -0.18232(14) 1.1983(2) 0.64213(11)
H17 H -0.1816 1.2104 0.6907
H18 H -0.2019 1.2839 0.6224
C14 C -0.10688(14) 1.1768(2) 0.61735(11)
H19 H -0.0783 1.2603 0.6270
H20 H -0.0852 1.0976 0.6409
C15 C -0.10594(13) 1.1490(2) 0.54355(11)
H21 H -0.0570 1.1262 0.5298
H22 H -0.1204 1.2340 0.5199
O1D O -0.03259(7) 0.39100(13) 0.43786(6)
C1D C -0.03535(10) 0.4649(2) 0.48922(9)
O2D O -0.08883(7) 0.48551(14) 0.52386(6)
Cu1D Cu 0.071086(13) 0.37429(3) 0.397625(11)
N1D N 0.08787(9) 0.49939(17) 0.26096(8)
N2D N 0.12680(10) 0.09902(18) 0.45040(8)
C2D C 0.07937(11) 0.4549(2) 0.31333(10)
C3D C 0.10532(11) 0.5502(2) 0.19537(9)
H1D H 0.0804 0.4913 0.1621
C4D C 0.08026(11) 0.6993(2) 0.18699(10)
H2D H 0.1018 0.7581 0.2216
H3D H 0.0281 0.7036 0.1920
C5D C 0.10124(12) 0.7532(2) 0.11912(10)
H4D H 0.0756 0.7004 0.0847
H5D H 0.0873 0.8517 0.1152
C6D C 0.18091(12) 0.7396(2) 0.10788(10)
H6D H 0.2065 0.7994 0.1396
H7D H 0.1927 0.7713 0.0627
C7D C 0.20497(12) 0.5900(2) 0.11661(10)
H8D H 0.2570 0.5844 0.1110
H9D H 0.1827 0.5314 0.0823
C8D C 0.18479(11) 0.5357(2) 0.18484(10)
H10D H 0.2105 0.5885 0.2192
H11D H 0.1986 0.4371 0.1887
C9D C 0.10595(11) 0.2010(2) 0.42854(10)
C10D C 0.15495(11) -0.0310(2) 0.47598(10)
H12D H 0.1569 -0.0255 0.5252
C11D C 0.22984(11) -0.0516(2) 0.44966(10)
H13D H 0.2586 0.0316 0.4595
H14D H 0.2520 -0.1315 0.4723
C12D C 0.22962(12) -0.0772(3) 0.37530(11)
H15D H 0.2785 -0.0963 0.3602
H16D H 0.2126 0.0069 0.3523
C13D C 0.18232(14) -0.1983(2) 0.35787(11)
H17D H 0.1816 -0.2104 0.3093
H18D H 0.2019 -0.2839 0.3776
C14D C 0.10688(14) -0.1768(2) 0.38265(11)
H19D H 0.0783 -0.2603 0.3730
H20D H 0.0852 -0.0976 0.3591
C15D C 0.10594(13) -0.1490(2) 0.45645(11)
H21D H 0.0570 -0.1262 0.4702
H22D H 0.1204 -0.2340 0.4801
Cu1 Cu 0.928914(13) 0.62571(3) 0.602375(11)
O1 O 1.03259(7) 0.60900(13) 0.56214(6)
O2 O 1.08883(7) 0.51449(14) 0.47614(6)
N1 N 0.91213(9) 0.50061(17) 0.73904(8)
N2 N 0.87320(10) 0.90098(18) 0.54960(8)
C1 C 1.03535(10) 0.5351(2) 0.51078(9)
C2 C 0.92063(11) 0.5451(2) 0.68667(10)
C3 C 0.89468(11) 0.4498(2) 0.80463(9)
H1 H 0.9196 0.5087 0.8379
C4 C 0.91974(11) 0.3007(2) 0.81301(10)
H2 H 0.8982 0.2419 0.7784
H3 H 0.9719 0.2964 0.8080
C5 C 0.89876(12) 0.2468(2) 0.88088(10)
H4 H 0.9244 0.2996 0.9153
H5 H 0.9127 0.1483 0.8848
C6 C 0.81909(12) 0.2604(2) 0.89212(10)
H6 H 0.7935 0.2006 0.8604
H7 H 0.8073 0.2287 0.9373
C7 C 0.79503(12) 0.4100(2) 0.88339(10)
H8 H 0.7430 0.4156 0.8890
H9 H 0.8173 0.4686 0.9177
C8 C 0.81521(11) 0.4643(2) 0.81516(10)
H10 H 0.7895 0.4115 0.7808
H11 H 0.8014 0.5629 0.8113
C9 C 0.89405(11) 0.7990(2) 0.57146(10)
C10 C 0.84505(11) 1.0310(2) 0.52402(10)
H12 H 0.8431 1.0255 0.4748
C11 C 0.77016(11) 1.0516(2) 0.55034(10)
H13 H 0.7414 0.9684 0.5405
H14 H 0.7480 1.1315 0.5277
C12 C 0.77038(12) 1.0772(3) 0.62470(11)
H15 H 0.7215 1.0963 0.6398
H16 H 0.7874 0.9931 0.6477
C13 C 0.81768(14) 1.1983(2) 0.64213(11)
H17 H 0.8184 1.2104 0.6907
H18 H 0.7981 1.2839 0.6224
C14 C 0.89312(14) 1.1768(2) 0.61735(11)
H19 H 0.9217 1.2603 0.6270
H20 H 0.9148 1.0976 0.6409
C15 C 0.89406(13) 1.1490(2) 0.54355(11)
H21 H 0.9430 1.1262 0.5298
H22 H 0.8796 1.2340 0.5199
O1D O 0.96741(7) 0.39100(13) 0.43786(6)
C1D C 0.96465(10) 0.4649(2) 0.48922(9)
O2D O 0.91117(7) 0.48551(14) 0.52386(6)
Cu1D Cu 1.071086(13) 0.37429(3) 0.397625(11)
N1D N 1.08787(9) 0.49939(17) 0.26096(8)
N2D N 1.12680(10) 0.09902(18) 0.45040(8)
C2D C 1.07937(11) 0.4549(2) 0.31333(10)
C3D C 1.10532(11) 0.5502(2) 0.19537(9)
H1D H 1.0804 0.4913 0.1621
C4D C 1.08026(11) 0.6993(2) 0.18699(10)
H2D H 1.1018 0.7581 0.2216
H3D H 1.0281 0.7036 0.1920
C5D C 1.10124(12) 0.7532(2) 0.11912(10)
H4D H 1.0756 0.7004 0.0847
H5D H 1.0873 0.8517 0.1152
C6D C 1.18091(12) 0.7396(2) 0.10788(10)
H6D H 1.2065 0.7994 0.1396
H7D H 1.1927 0.7713 0.0627
C7D C 1.20497(12) 0.5900(2) 0.11661(10)
H8D H 1.2570 0.5844 0.1110
H9D H 1.1827 0.5314 0.0823
C8D C 1.18479(11) 0.5357(2) 0.18484(10)
H10D H 1.2105 0.5885 0.2192
H11D H 1.1986 0.4371 0.1887
C9D C 1.10595(11) 0.2010(2) 0.42854(10)
C10D C 1.15495(11) -0.0310(2) 0.47598(10)
H12D H 1.1569 -0.0255 0.5252
C11D C 1.22984(11) -0.0516(2) 0.44966(10)
H13D H 1.2586 0.0316 0.4595
H14D H 1.2520 -0.1315 0.4723
C12D C 1.22962(12) -0.0772(3) 0.37530(11)
H15D H 1.2785 -0.0963 0.3602
H16D H 1.2126 0.0069 0.3523
C13D C 1.18232(14) -0.1983(2) 0.35787(11)
H17D H 1.1816 -0.2104 0.3093
H18D H 1.2019 -0.2839 0.3776
C14D C 1.10688(14) -0.1768(2) 0.38265(11)
H19D H 1.0783 -0.2603 0.3730
H20D H 1.0852 -0.0976 0.3591
C15D C 1.10594(13) -0.1490(2) 0.45645(11)
H21D H 1.0570 -0.1262 0.4702
H22D H 1.1204 -0.2340 0.4801
Cu1 Cu 0.428914(13) -0.12571(3) 0.397625(11)
O1 O 0.53259(7) -0.10900(13) 0.43786(6)
O2 O 0.58883(7) -0.01449(14) 0.52386(6)
N1 N 0.41213(9) -0.00061(17) 0.26096(8)
N2 N 0.37320(10) -0.40098(18) 0.45040(8)
C1 C 0.53535(10) -0.0351(2) 0.48922(9)
C2 C 0.42063(11) -0.0451(2) 0.31333(10)
C3 C 0.39468(11) 0.0502(2) 0.19537(9)
H1 H 0.4196 -0.0087 0.1621
C4 C 0.41974(11) 0.1993(2) 0.18699(10)
H2 H 0.3982 0.2581 0.2216
H3 H 0.4719 0.2036 0.1920
C5 C 0.39876(12) 0.2532(2) 0.11912(10)
H4 H 0.4244 0.2004 0.0847
H5 H 0.4127 0.3517 0.1152
C6 C 0.31909(12) 0.2396(2) 0.10788(10)
H6 H 0.2935 0.2994 0.1396
H7 H 0.3073 0.2713 0.0627
C7 C 0.29503(12) 0.0900(2) 0.11661(10)
H8 H 0.2430 0.0844 0.1110
H9 H 0.3173 0.0314 0.0823
C8 C 0.31521(11) 0.0357(2) 0.18484(10)
H10 H 0.2895 0.0885 0.2192
H11 H 0.3014 -0.0629 0.1887
C9 C 0.39405(11) -0.2990(2) 0.42854(10)
C10 C 0.34505(11) -0.5310(2) 0.47598(10)
H12 H 0.3431 -0.5255 0.5252
C11 C 0.27016(11) -0.5516(2) 0.44966(10)
H13 H 0.2414 -0.4684 0.4595
H14 H 0.2480 -0.6315 0.4723
C12 C 0.27038(12) -0.5772(3) 0.37530(11)
H15 H 0.2215 -0.5963 0.3602
H16 H 0.2874 -0.4931 0.3523
C13 C 0.31768(14) -0.6983(2) 0.35787(11)
H17 H 0.3184 -0.7104 0.3093
H18 H 0.2981 -0.7839 0.3776
C14 C 0.39312(14) -0.6768(2) 0.38265(11)
H19 H 0.4217 -0.7603 0.3730
H20 H 0.4148 -0.5976 0.3591
C15 C 0.39406(13) -0.6490(2) 0.45645(11)
H21 H 0.4430 -0.6262 0.4702
H22 H 0.3796 -0.7340 0.4801
O1D O 0.46741(7) 0.10900(13) 0.56214(6)
C1D C 0.46465(10) 0.0351(2) 0.51078(9)
O2D O 0.41117(7) 0.01449(14) 0.47614(6)
Cu1D Cu 0.571086(13) 0.12571(3) 0.602375(11)
N1D N 0.58787(9) 0.00061(17) 0.73904(8)
N2D N 0.62680(10) 0.40098(18) 0.54960(8)
C2D C 0.57937(11) 0.0451(2) 0.68667(10)
C3D C 0.60532(11) -0.0502(2) 0.80463(9)
H1D H 0.5804 0.0087 0.8379
C4D C 0.58026(11) -0.1993(2) 0.81301(10)
H2D H 0.6018 -0.2581 0.7784
H3D H 0.5281 -0.2036 0.8080
C5D C 0.60124(12) -0.2532(2) 0.88088(10)
H4D H 0.5756 -0.2004 0.9153
H5D H 0.5873 -0.3517 0.8848
C6D C 0.68091(12) -0.2396(2) 0.89212(10)
H6D H 0.7065 -0.2994 0.8604
H7D H 0.6927 -0.2713 0.9373
C7D C 0.70497(12) -0.0900(2) 0.88339(10)
H8D H 0.7570 -0.0844 0.8890
H9D H 0.6827 -0.0314 0.9177
C8D C 0.68479(11) -0.0357(2) 0.81516(10)
H10D H 0.7105 -0.0885 0.7808
H11D H 0.6986 0.0629 0.8113
C9D C 0.60595(11) 0.2990(2) 0.57146(10)
C10D C 0.65495(11) 0.5310(2) 0.52402(10)
H12D H 0.6569 0.5255 0.4748
C11D C 0.72984(11) 0.5516(2) 0.55034(10)
H13D H 0.7586 0.4684 0.5405
H14D H 0.7520 0.6315 0.5277
C12D C 0.72962(12) 0.5772(3) 0.62470(11)
H15D H 0.7785 0.5963 0.6398
H16D H 0.7126 0.4931 0.6477
C13D C 0.68232(14) 0.6983(2) 0.64213(11)
H17D H 0.6816 0.7104 0.6907
H18D H 0.7019 0.7839 0.6224
C14D C 0.60688(14) 0.6768(2) 0.61735(11)
H19D H 0.5783 0.7603 0.6270
H20D H 0.5852 0.5976 0.6409
C15D C 0.60594(13) 0.6490(2) 0.54355(11)
H21D H 0.5570 0.6262 0.5298
H22D H 0.6204 0.7340 0.5199
Cu1 Cu 0.428914(13) 0.87429(3) 0.397625(11)
O1 O 0.53259(7) 0.89100(13) 0.43786(6)
O2 O 0.58883(7) 0.98551(14) 0.52386(6)
N1 N 0.41213(9) 0.99939(17) 0.26096(8)
N2 N 0.37320(10) 0.59902(18) 0.45040(8)
C1 C 0.53535(10) 0.9649(2) 0.48922(9)
C2 C 0.42063(11) 0.9549(2) 0.31333(10)
C3 C 0.39468(11) 1.0502(2) 0.19537(9)
H1 H 0.4196 0.9913 0.1621
C4 C 0.41974(11) 1.1993(2) 0.18699(10)
H2 H 0.3982 1.2581 0.2216
H3 H 0.4719 1.2036 0.1920
C5 C 0.39876(12) 1.2532(2) 0.11912(10)
H4 H 0.4244 1.2004 0.0847
H5 H 0.4127 1.3517 0.1152
C6 C 0.31909(12) 1.2396(2) 0.10788(10)
H6 H 0.2935 1.2994 0.1396
H7 H 0.3073 1.2713 0.0627
C7 C 0.29503(12) 1.0900(2) 0.11661(10)
H8 H 0.2430 1.0844 0.1110
H9 H 0.3173 1.0314 0.0823
C8 C 0.31521(11) 1.0357(2) 0.18484(10)
H10 H 0.2895 1.0885 0.2192
H11 H 0.3014 0.9371 0.1887
C9 C 0.39405(11) 0.7010(2) 0.42854(10)
C10 C 0.34505(11) 0.4690(2) 0.47598(10)
H12 H 0.3431 0.4745 0.5252
C11 C 0.27016(11) 0.4484(2) 0.44966(10)
H13 H 0.2414 0.5316 0.4595
H14 H 0.2480 0.3685 0.4723
C12 C 0.27038(12) 0.4228(3) 0.37530(11)
H15 H 0.2215 0.4037 0.3602
H16 H 0.2874 0.5069 0.3523
C13 C 0.31768(14) 0.3017(2) 0.35787(11)
H17 H 0.3184 0.2896 0.3093
H18 H 0.2981 0.2161 0.3776
C14 C 0.39312(14) 0.3232(2) 0.38265(11)
H19 H 0.4217 0.2397 0.3730
H20 H 0.4148 0.4024 0.3591
C15 C 0.39406(13) 0.3510(2) 0.45645(11)
H21 H 0.4430 0.3738 0.4702
H22 H 0.3796 0.2660 0.4801
O1D O 0.46741(7) 1.10900(13) 0.56214(6)
C1D C 0.46465(10) 1.0351(2) 0.51078(9)
O2D O 0.41117(7) 1.01449(14) 0.47614(6)
Cu1D Cu 0.571086(13) 1.12571(3) 0.602375(11)
N1D N 0.58787(9) 1.00061(17) 0.73904(8)
N2D N 0.62680(10) 1.40098(18) 0.54960(8)
C2D C 0.57937(11) 1.0451(2) 0.68667(10)
C3D C 0.60532(11) 0.9498(2) 0.80463(9)
H1D H 0.5804 1.0087 0.8379
C4D C 0.58026(11) 0.8007(2) 0.81301(10)
H2D H 0.6018 0.7419 0.7784
H3D H 0.5281 0.7964 0.8080
C5D C 0.60124(12) 0.7468(2) 0.88088(10)
H4D H 0.5756 0.7996 0.9153
H5D H 0.5873 0.6483 0.8848
C6D C 0.68091(12) 0.7604(2) 0.89212(10)
H6D H 0.7065 0.7006 0.8604
H7D H 0.6927 0.7287 0.9373
C7D C 0.70497(12) 0.9100(2) 0.88339(10)
H8D H 0.7570 0.9156 0.8890
H9D H 0.6827 0.9686 0.9177
C8D C 0.68479(11) 0.9643(2) 0.81516(10)
H10D H 0.7105 0.9115 0.7808
H11D H 0.6986 1.0629 0.8113
C9D C 0.60595(11) 1.2990(2) 0.57146(10)
C10D C 0.65495(11) 1.5310(2) 0.52402(10)
H12D H 0.6569 1.5255 0.4748
C11D C 0.72984(11) 1.5516(2) 0.55034(10)
H13D H 0.7586 1.4684 0.5405
H14D H 0.7520 1.6315 0.5277
C12D C 0.72962(12) 1.5772(3) 0.62470(11)
H15D H 0.7785 1.5963 0.6398
H16D H 0.7126 1.4931 0.6477
C13D C 0.68232(14) 1.6983(2) 0.64213(11)
H17D H 0.6816 1.7104 0.6907
H18D H 0.7019 1.7839 0.6224
C14D C 0.60688(14) 1.6768(2) 0.61735(11)
H19D H 0.5783 1.7603 0.6270
H20D H 0.5852 1.5976 0.6409
C15D C 0.60594(13) 1.6490(2) 0.54355(11)
H21D H 0.5570 1.6262 0.5298
H22D H 0.6204 1.7340 0.5199
Cu1 Cu 0.071086(13) 0.62571(3) -0.102375(11)
O1 O -0.03259(7) 0.60900(13) -0.06214(6)
O2 O -0.08883(7) 0.51449(14) 0.02386(6)
N1 N 0.08787(9) 0.50061(17) -0.23904(8)
N2 N 0.12680(10) 0.90098(18) -0.04960(8)
C1 C -0.03535(10) 0.5351(2) -0.01078(9)
C2 C 0.07937(11) 0.5451(2) -0.18667(10)
C3 C 0.10532(11) 0.4498(2) -0.30463(9)
H1 H 0.0804 0.5087 -0.3379
C4 C 0.08026(11) 0.3007(2) -0.31301(10)
H2 H 0.1018 0.2419 -0.2784
H3 H 0.0281 0.2964 -0.3080
C5 C 0.10124(12) 0.2468(2) -0.38088(10)
H4 H 0.0756 0.2996 -0.4153
H5 H 0.0873 0.1483 -0.3848
C6 C 0.18091(12) 0.2604(2) -0.39212(10)
H6 H 0.2065 0.2006 -0.3604
H7 H 0.1927 0.2287 -0.4373
C7 C 0.20497(12) 0.4100(2) -0.38339(10)
H8 H 0.2570 0.4156 -0.3890
H9 H 0.1827 0.4686 -0.4177
C8 C 0.18479(11) 0.4643(2) -0.31516(10)
H10 H 0.2105 0.4115 -0.2808
H11 H 0.1986 0.5629 -0.3113
C9 C 0.10595(11) 0.7990(2) -0.07146(10)
C10 C 0.15495(11) 1.0310(2) -0.02402(10)
H12 H 0.1569 1.0255 0.0252
C11 C 0.22984(11) 1.0516(2) -0.05034(10)
H13 H 0.2586 0.9684 -0.0405
H14 H 0.2520 1.1315 -0.0277
C12 C 0.22962(12) 1.0772(3) -0.12470(11)
H15 H 0.2785 1.0963 -0.1398
H16 H 0.2126 0.9931 -0.1477
C13 C 0.18232(14) 1.1983(2) -0.14213(11)
H17 H 0.1816 1.2104 -0.1907
H18 H 0.2019 1.2839 -0.1224
C14 C 0.10688(14) 1.1768(2) -0.11735(11)
H19 H 0.0783 1.2603 -0.1270
H20 H 0.0852 1.0976 -0.1409
C15 C 0.10594(13) 1.1490(2) -0.04355(11)
H21 H 0.0570 1.1262 -0.0298
H22 H 0.1204 1.2340 -0.0199
O1D O 0.03259(7) 0.39100(13) 0.06214(6)
C1D C 0.03535(10) 0.4649(2) 0.01078(9)
O2D O 0.08883(7) 0.48551(14) -0.02386(6)
Cu1D Cu -0.071086(13) 0.37429(3) 0.102375(11)
N1D N -0.08787(9) 0.49939(17) 0.23904(8)
N2D N -0.12680(10) 0.09902(18) 0.04960(8)
C2D C -0.07937(11) 0.4549(2) 0.18667(10)
C3D C -0.10532(11) 0.5502(2) 0.30463(9)
H1D H -0.0804 0.4913 0.3379
C4D C -0.08026(11) 0.6993(2) 0.31301(10)
H2D H -0.1018 0.7581 0.2784
H3D H -0.0281 0.7036 0.3080
C5D C -0.10124(12) 0.7532(2) 0.38088(10)
H4D H -0.0756 0.7004 0.4153
H5D H -0.0873 0.8517 0.3848
C6D C -0.18091(12) 0.7396(2) 0.39212(10)
H6D H -0.2065 0.7994 0.3604
H7D H -0.1927 0.7713 0.4373
C7D C -0.20497(12) 0.5900(2) 0.38339(10)
H8D H -0.2570 0.5844 0.3890
H9D H -0.1827 0.5314 0.4177
C8D C -0.18479(11) 0.5357(2) 0.31516(10)
H10D H -0.2105 0.5885 0.2808
H11D H -0.1986 0.4371 0.3113
C9D C -0.10595(11) 0.2010(2) 0.07146(10)
C10D C -0.15495(11) -0.0310(2) 0.02402(10)
H12D H -0.1569 -0.0255 -0.0252
C11D C -0.22984(11) -0.0516(2) 0.05034(10)
H13D H -0.2586 0.0316 0.0405
H14D H -0.2520 -0.1315 0.0277
C12D C -0.22962(12) -0.0772(3) 0.12470(11)
H15D H -0.2785 -0.0963 0.1398
H16D H -0.2126 0.0069 0.1477
C13D C -0.18232(14) -0.1983(2) 0.14213(11)
H17D H -0.1816 -0.2104 0.1907
H18D H -0.2019 -0.2839 0.1224
C14D C -0.10688(14) -0.1768(2) 0.11735(11)
H19D H -0.0783 -0.2603 0.1270
H20D H -0.0852 -0.0976 0.1409
C15D C -0.10594(13) -0.1490(2) 0.04355(11)
H21D H -0.0570 -0.1262 0.0298
H22D H -0.1204 -0.2340 0.0199
Cu1 Cu 0.071086(13) 0.62571(3) 0.897625(11)
O1 O -0.03259(7) 0.60900(13) 0.93786(6)
O2 O -0.08883(7) 0.51449(14) 1.02386(6)
N1 N 0.08787(9) 0.50061(17) 0.76096(8)
N2 N 0.12680(10) 0.90098(18) 0.95040(8)
C1 C -0.03535(10) 0.5351(2) 0.98922(9)
C2 C 0.07937(11) 0.5451(2) 0.81333(10)
C3 C 0.10532(11) 0.4498(2) 0.69537(9)
H1 H 0.0804 0.5087 0.6621
C4 C 0.08026(11) 0.3007(2) 0.68699(10)
H2 H 0.1018 0.2419 0.7216
H3 H 0.0281 0.2964 0.6920
C5 C 0.10124(12) 0.2468(2) 0.61912(10)
H4 H 0.0756 0.2996 0.5847
H5 H 0.0873 0.1483 0.6152
C6 C 0.18091(12) 0.2604(2) 0.60788(10)
H6 H 0.2065 0.2006 0.6396
H7 H 0.1927 0.2287 0.5627
C7 C 0.20497(12) 0.4100(2) 0.61661(10)
H8 H 0.2570 0.4156 0.6110
H9 H 0.1827 0.4686 0.5823
C8 C 0.18479(11) 0.4643(2) 0.68484(10)
H10 H 0.2105 0.4115 0.7192
H11 H 0.1986 0.5629 0.6887
C9 C 0.10595(11) 0.7990(2) 0.92854(10)
C10 C 0.15495(11) 1.0310(2) 0.97598(10)
H12 H 0.1569 1.0255 1.0252
C11 C 0.22984(11) 1.0516(2) 0.94966(10)
H13 H 0.2586 0.9684 0.9595
H14 H 0.2520 1.1315 0.9723
C12 C 0.22962(12) 1.0772(3) 0.87530(11)
H15 H 0.2785 1.0963 0.8602
H16 H 0.2126 0.9931 0.8523
C13 C 0.18232(14) 1.1983(2) 0.85787(11)
H17 H 0.1816 1.2104 0.8093
H18 H 0.2019 1.2839 0.8776
C14 C 0.10688(14) 1.1768(2) 0.88265(11)
H19 H 0.0783 1.2603 0.8730
H20 H 0.0852 1.0976 0.8591
C15 C 0.10594(13) 1.1490(2) 0.95645(11)
H21 H 0.0570 1.1262 0.9702
H22 H 0.1204 1.2340 0.9801
O1D O 0.03259(7) 0.39100(13) 1.06214(6)
C1D C 0.03535(10) 0.4649(2) 1.01078(9)
O2D O 0.08883(7) 0.48551(14) 0.97614(6)
Cu1D Cu -0.071086(13) 0.37429(3) 1.102375(11)
N1D N -0.08787(9) 0.49939(17) 1.23904(8)
N2D N -0.12680(10) 0.09902(18) 1.04960(8)
C2D C -0.07937(11) 0.4549(2) 1.18667(10)
C3D C -0.10532(11) 0.5502(2) 1.30463(9)
H1D H -0.0804 0.4913 1.3379
C4D C -0.08026(11) 0.6993(2) 1.31301(10)
H2D H -0.1018 0.7581 1.2784
H3D H -0.0281 0.7036 1.3080
C5D C -0.10124(12) 0.7532(2) 1.38088(10)
H4D H -0.0756 0.7004 1.4153
H5D H -0.0873 0.8517 1.3848
C6D C -0.18091(12) 0.7396(2) 1.39212(10)
H6D H -0.2065 0.7994 1.3604
H7D H -0.1927 0.7713 1.4373
C7D C -0.20497(12) 0.5900(2) 1.38339(10)
H8D H -0.2570 0.5844 1.3890
H9D H -0.1827 0.5314 1.4177
C8D C -0.18479(11) 0.5357(2) 1.31516(10)
H10D H -0.2105 0.5885 1.2808
H11D H -0.1986 0.4371 1.3113
C9D C -0.10595(11) 0.2010(2) 1.07146(10)
C10D C -0.15495(11) -0.0310(2) 1.02402(10)
H12D H -0.1569 -0.0255 0.9748
C11D C -0.22984(11) -0.0516(2) 1.05034(10)
H13D H -0.2586 0.0316 1.0405
H14D H -0.2520 -0.1315 1.0277
C12D C -0.22962(12) -0.0772(3) 1.12470(11)
H15D H -0.2785 -0.0963 1.1398
H16D H -0.2126 0.0069 1.1477
C13D C -0.18232(14) -0.1983(2) 1.14213(11)
H17D H -0.1816 -0.2104 1.1907
H18D H -0.2019 -0.2839 1.1224
C14D C -0.10688(14) -0.1768(2) 1.11735(11)
H19D H -0.0783 -0.2603 1.1270
H20D H -0.0852 -0.0976 1.1409
C15D C -0.10594(13) -0.1490(2) 1.04355(11)
H21D H -0.0570 -0.1262 1.0298
H22D H -0.1204 -0.2340 1.0199
Cu1 Cu 1.071086(13) 0.62571(3) -0.102375(11)
O1 O 0.96741(7) 0.60900(13) -0.06214(6)
O2 O 0.91117(7) 0.51449(14) 0.02386(6)
N1 N 1.08787(9) 0.50061(17) -0.23904(8)
N2 N 1.12680(10) 0.90098(18) -0.04960(8)
C1 C 0.96465(10) 0.5351(2) -0.01078(9)
C2 C 1.07937(11) 0.5451(2) -0.18667(10)
C3 C 1.10532(11) 0.4498(2) -0.30463(9)
H1 H 1.0804 0.5087 -0.3379
C4 C 1.08026(11) 0.3007(2) -0.31301(10)
H2 H 1.1018 0.2419 -0.2784
H3 H 1.0281 0.2964 -0.3080
C5 C 1.10124(12) 0.2468(2) -0.38088(10)
H4 H 1.0756 0.2996 -0.4153
H5 H 1.0873 0.1483 -0.3848
C6 C 1.18091(12) 0.2604(2) -0.39212(10)
H6 H 1.2065 0.2006 -0.3604
H7 H 1.1927 0.2287 -0.4373
C7 C 1.20497(12) 0.4100(2) -0.38339(10)
H8 H 1.2570 0.4156 -0.3890
H9 H 1.1827 0.4686 -0.4177
C8 C 1.18479(11) 0.4643(2) -0.31516(10)
H10 H 1.2105 0.4115 -0.2808
H11 H 1.1986 0.5629 -0.3113
C9 C 1.10595(11) 0.7990(2) -0.07146(10)
C10 C 1.15495(11) 1.0310(2) -0.02402(10)
H12 H 1.1569 1.0255 0.0252
C11 C 1.22984(11) 1.0516(2) -0.05034(10)
H13 H 1.2586 0.9684 -0.0405
H14 H 1.2520 1.1315 -0.0277
C12 C 1.22962(12) 1.0772(3) -0.12470(11)
H15 H 1.2785 1.0963 -0.1398
H16 H 1.2126 0.9931 -0.1477
C13 C 1.18232(14) 1.1983(2) -0.14213(11)
H17 H 1.1816 1.2104 -0.1907
H18 H 1.2019 1.2839 -0.1224
C14 C 1.10688(14) 1.1768(2) -0.11735(11)
H19 H 1.0783 1.2603 -0.1270
H20 H 1.0852 1.0976 -0.1409
C15 C 1.10594(13) 1.1490(2) -0.04355(11)
H21 H 1.0570 1.1262 -0.0298
H22 H 1.1204 1.2340 -0.0199
O1D O 1.03259(7) 0.39100(13) 0.06214(6)
C1D C 1.03535(10) 0.4649(2) 0.01078(9)
O2D O 1.08883(7) 0.48551(14) -0.02386(6)
Cu1D Cu 0.928914(13) 0.37429(3) 0.102375(11)
N1D N 0.91213(9) 0.49939(17) 0.23904(8)
N2D N 0.87320(10) 0.09902(18) 0.04960(8)
C2D C 0.92063(11) 0.4549(2) 0.18667(10)
C3D C 0.89468(11) 0.5502(2) 0.30463(9)
H1D H 0.9196 0.4913 0.3379
C4D C 0.91974(11) 0.6993(2) 0.31301(10)
H2D H 0.8982 0.7581 0.2784
H3D H 0.9719 0.7036 0.3080
C5D C 0.89876(12) 0.7532(2) 0.38088(10)
H4D H 0.9244 0.7004 0.4153
H5D H 0.9127 0.8517 0.3848
C6D C 0.81909(12) 0.7396(2) 0.39212(10)
H6D H 0.7935 0.7994 0.3604
H7D H 0.8073 0.7713 0.4373
C7D C 0.79503(12) 0.5900(2) 0.38339(10)
H8D H 0.7430 0.5844 0.3890
H9D H 0.8173 0.5314 0.4177
C8D C 0.81521(11) 0.5357(2) 0.31516(10)
H10D H 0.7895 0.5885 0.2808
H11D H 0.8014 0.4371 0.3113
C9D C 0.89405(11) 0.2010(2) 0.07146(10)
C10D C 0.84505(11) -0.0310(2) 0.02402(10)
H12D H 0.8431 -0.0255 -0.0252
C11D C 0.77016(11) -0.0516(2) 0.05034(10)
H13D H 0.7414 0.0316 0.0405
H14D H 0.7480 -0.1315 0.0277
C12D C 0.77038(12) -0.0772(3) 0.12470(11)
H15D H 0.7215 -0.0963 0.1398
H16D H 0.7874 0.0069 0.1477
C13D C 0.81768(14) -0.1983(2) 0.14213(11)
H17D H 0.8184 -0.2104 0.1907
H18D H 0.7981 -0.2839 0.1224
C14D C 0.89312(14) -0.1768(2) 0.11735(11)
H19D H 0.9217 -0.2603 0.1270
H20D H 0.9148 -0.0976 0.1409
C15D C 0.89406(13) -0.1490(2) 0.04355(11)
H21D H 0.9430 -0.1262 0.0298
H22D H 0.8796 -0.2340 0.0199
Cu1 Cu 1.071086(13) 0.62571(3) 0.897625(11)
O1 O 0.96741(7) 0.60900(13) 0.93786(6)
O2 O 0.91117(7) 0.51449(14) 1.02386(6)
N1 N 1.08787(9) 0.50061(17) 0.76096(8)
N2 N 1.12680(10) 0.90098(18) 0.95040(8)
C1 C 0.96465(10) 0.5351(2) 0.98922(9)
C2 C 1.07937(11) 0.5451(2) 0.81333(10)
C3 C 1.10532(11) 0.4498(2) 0.69537(9)
H1 H 1.0804 0.5087 0.6621
C4 C 1.08026(11) 0.3007(2) 0.68699(10)
H2 H 1.1018 0.2419 0.7216
H3 H 1.0281 0.2964 0.6920
C5 C 1.10124(12) 0.2468(2) 0.61912(10)
H4 H 1.0756 0.2996 0.5847
H5 H 1.0873 0.1483 0.6152
C6 C 1.18091(12) 0.2604(2) 0.60788(10)
H6 H 1.2065 0.2006 0.6396
H7 H 1.1927 0.2287 0.5627
C7 C 1.20497(12) 0.4100(2) 0.61661(10)
H8 H 1.2570 0.4156 0.6110
H9 H 1.1827 0.4686 0.5823
C8 C 1.18479(11) 0.4643(2) 0.68484(10)
H10 H 1.2105 0.4115 0.7192
H11 H 1.1986 0.5629 0.6887
C9 C 1.10595(11) 0.7990(2) 0.92854(10)
C10 C 1.15495(11) 1.0310(2) 0.97598(10)
H12 H 1.1569 1.0255 1.0252
C11 C 1.22984(11) 1.0516(2) 0.94966(10)
H13 H 1.2586 0.9684 0.9595
H14 H 1.2520 1.1315 0.9723
C12 C 1.22962(12) 1.0772(3) 0.87530(11)
H15 H 1.2785 1.0963 0.8602
H16 H 1.2126 0.9931 0.8523
C13 C 1.18232(14) 1.1983(2) 0.85787(11)
H17 H 1.1816 1.2104 0.8093
H18 H 1.2019 1.2839 0.8776
C14 C 1.10688(14) 1.1768(2) 0.88265(11)
H19 H 1.0783 1.2603 0.8730
H20 H 1.0852 1.0976 0.8591
C15 C 1.10594(13) 1.1490(2) 0.95645(11)
H21 H 1.0570 1.1262 0.9702
H22 H 1.1204 1.2340 0.9801
O1D O 1.03259(7) 0.39100(13) 1.06214(6)
C1D C 1.03535(10) 0.4649(2) 1.01078(9)
O2D O 1.08883(7) 0.48551(14) 0.97614(6)
Cu1D Cu 0.928914(13) 0.37429(3) 1.102375(11)
N1D N 0.91213(9) 0.49939(17) 1.23904(8)
N2D N 0.87320(10) 0.09902(18) 1.04960(8)
C2D C 0.92063(11) 0.4549(2) 1.18667(10)
C3D C 0.89468(11) 0.5502(2) 1.30463(9)
H1D H 0.9196 0.4913 1.3379
C4D C 0.91974(11) 0.6993(2) 1.31301(10)
H2D H 0.8982 0.7581 1.2784
H3D H 0.9719 0.7036 1.3080
C5D C 0.89876(12) 0.7532(2) 1.38088(10)
H4D H 0.9244 0.7004 1.4153
H5D H 0.9127 0.8517 1.3848
C6D C 0.81909(12) 0.7396(2) 1.39212(10)
H6D H 0.7935 0.7994 1.3604
H7D H 0.8073 0.7713 1.4373
C7D C 0.79503(12) 0.5900(2) 1.38339(10)
H8D H 0.7430 0.5844 1.3890
H9D H 0.8173 0.5314 1.4177
C8D C 0.81521(11) 0.5357(2) 1.31516(10)
H10D H 0.7895 0.5885 1.2808
H11D H 0.8014 0.4371 1.3113
C9D C 0.89405(11) 0.2010(2) 1.07146(10)
C10D C 0.84505(11) -0.0310(2) 1.02402(10)
H12D H 0.8431 -0.0255 0.9748
C11D C 0.77016(11) -0.0516(2) 1.05034(10)
H13D H 0.7414 0.0316 1.0405
H14D H 0.7480 -0.1315 1.0277
C12D C 0.77038(12) -0.0772(3) 1.12470(11)
H15D H 0.7215 -0.0963 1.1398
H16D H 0.7874 0.0069 1.1477
C13D C 0.81768(14) -0.1983(2) 1.14213(11)
H17D H 0.8184 -0.2104 1.1907
H18D H 0.7981 -0.2839 1.1224
C14D C 0.89312(14) -0.1768(2) 1.11735(11)
H19D H 0.9217 -0.2603 1.1270
H20D H 0.9148 -0.0976 1.1409
C15D C 0.89406(13) -0.1490(2) 1.04355(11)
H21D H 0.9430 -0.1262 1.0298
H22D H 0.8796 -0.2340 1.0199
O3 O 0.61916(10) 0.7004(2) 0.37575(9)
H23 H 0.5954(14) 0.755(3) 0.4002(12)
C16 C 0.57238(13) 0.6558(2) 0.32569(11)
H24 H 0.5433 0.7344 0.3100
H25 H 0.5403 0.5834 0.3430
C17 C 0.61609(15) 0.5988(3) 0.26993(12)
H26 H 0.5847 0.5635 0.2353
H27 H 0.6460 0.5233 0.2864
H28 H 0.6461 0.6723 0.2518
O3 O 0.88084(10) 0.7996(2) 0.87575(9)
H23 H 0.9046(14) 0.745(3) 0.9002(12)
C16 C 0.92762(13) 0.8442(2) 0.82569(11)
H24 H 0.9567 0.7656 0.8100
H25 H 0.9597 0.9166 0.8430
C17 C 0.88391(15) 0.9012(3) 0.76993(12)
H26 H 0.9153 0.9365 0.7353
H27 H 0.8540 0.9767 0.7864
H28 H 0.8539 0.8277 0.7518
O3 O 0.38084(10) 0.7004(2) 0.12425(9)
H23 H 0.4046(14) 0.755(3) 0.0998(12)
C16 C 0.42762(13) 0.6558(2) 0.17431(11)
H24 H 0.4567 0.7344 0.1900
H25 H 0.4597 0.5834 0.1570
C17 C 0.38391(15) 0.5988(3) 0.23007(12)
H26 H 0.4153 0.5635 0.2647
H27 H 0.3540 0.5233 0.2136
H28 H 0.3539 0.6723 0.2482
O3 O 0.11916(10) 0.7996(2) 0.62425(9)
H23 H 0.0954(14) 0.745(3) 0.5998(12)
C16 C 0.07238(13) 0.8442(2) 0.67431(11)
H24 H 0.0433 0.7656 0.6900
H25 H 0.0403 0.9166 0.6570
C17 C 0.11609(15) 0.9012(3) 0.73007(12)
H26 H 0.0847 0.9365 0.7647
H27 H 0.1460 0.9767 0.7136
H28 H 0.1461 0.8277 0.7482
O3 O 0.38084(10) 0.2996(2) 0.62425(9)
H23 H 0.4046(14) 0.245(3) 0.5998(12)
C16 C 0.42762(13) 0.3442(2) 0.67431(11)
H24 H 0.4567 0.2656 0.6900
H25 H 0.4597 0.4166 0.6570
C17 C 0.38391(15) 0.4012(3) 0.73007(12)
H26 H 0.4153 0.4365 0.7647
H27 H 0.3540 0.4767 0.7136
H28 H 0.3539 0.3277 0.7482
O3 O 0.11916(10) 0.2004(2) 0.12425(9)
H23 H 0.0954(14) 0.255(3) 0.0998(12)
C16 C 0.07238(13) 0.1558(2) 0.17431(11)
H24 H 0.0433 0.2344 0.1900
H25 H 0.0403 0.0834 0.1570
C17 C 0.11609(15) 0.0988(3) 0.23007(12)
H26 H 0.0847 0.0635 0.2647
H27 H 0.1460 0.0233 0.2136
H28 H 0.1461 0.1723 0.2482
O3 O 0.61916(10) 0.2996(2) 0.87575(9)
H23 H 0.5954(14) 0.245(3) 0.9002(12)
C16 C 0.57238(13) 0.3442(2) 0.82569(11)
H24 H 0.5433 0.2656 0.8100
H25 H 0.5403 0.4166 0.8430
C17 C 0.61609(15) 0.4012(3) 0.76993(12)
H26 H 0.5847 0.4365 0.7353
H27 H 0.6460 0.4767 0.7864
H28 H 0.6461 0.3277 0.7518
O3 O 0.88084(10) 0.2004(2) 0.37575(9)
H23 H 0.9046(14) 0.255(3) 0.4002(12)
C16 C 0.92762(13) 0.1558(2) 0.32569(11)
H24 H 0.9567 0.2344 0.3100
H25 H 0.9597 0.0834 0.3430
C17 C 0.88391(15) 0.0988(3) 0.26993(12)
H26 H 0.9153 0.0635 0.2353
H27 H 0.8540 0.0233 0.2864
H28 H 0.8539 0.1723 0.2518

#END
