./ABAFIT_from_xyz.cif_generated_by_CrystalShift
_symmetry_cell_setting triclinic
_symmetry_space_group_name_H-M 'P 1'
loop_
_symmetry_equiv_pos_site_id
_symmetry_equiv_pos_as_xyz
1 x,y,z
_cell_length_a 12.453600
_cell_length_b 16.100100
_cell_length_c 24.773900
_cell_angle_alpha 90.000000
_cell_angle_beta 102.798000
_cell_angle_gamma 90.000000
_cell_volume 4843.869617
loop_
_atom_site_label
_atom_site_type_symbol
_atom_site_fract_x
_atom_site_fract_y
_atom_site_fract_z
Ru1 Ru 0.884700 0.233500 0.712306
Ru2 Ru 0.713040 0.187810 0.803793
H3 H 0.641000 0.227000 0.756400
Cl4 Cl 0.736610 0.213570 0.635170
Cl5 Cl 0.896550 0.373530 0.679450
Cl6 Cl 1.058870 0.259560 0.771090
N7 N 0.959100 0.063500 0.688690
N8 N 0.839900 0.053660 0.740040
N9 N 0.750100 0.323300 0.893150
N10 N 0.623400 0.358800 0.821940
C11 C 0.898500 0.107800 0.716000
C12 C 0.945500 -0.027200 0.693380
H13 H 1.016000 -0.054000 0.711300
H14 H 0.917600 -0.052700 0.656600
C15 C 0.862100 -0.034500 0.729080
H16 H 0.794500 -0.063100 0.709200
H17 H 0.893000 -0.064700 0.763900
C18 C 1.038800 0.092900 0.659300
C19 C 1.007500 0.100300 0.602000
C20 C 1.093300 0.126100 0.575600
H21 H 1.076900 0.136800 0.536900
C22 C 1.200200 0.135400 0.606200
C23 C 1.223600 0.125200 0.659400
H24 H 1.297400 0.134500 0.678900
C25 C 1.147200 0.101600 0.689500
C26 C 0.895500 0.082700 0.569900
H27 H 0.888800 0.023400 0.560900
H28 H 0.881200 0.115200 0.535600
H29 H 0.841800 0.097700 0.591900
C30 C 1.291900 0.162400 0.575700
H31 H 1.329400 0.212000 0.593600
H32 H 1.258400 0.174900 0.536900
H33 H 1.345300 0.117200 0.577400
C34 C 1.178600 0.083200 0.749600
H35 H 1.257600 0.093100 0.763200
H36 H 1.161800 0.025000 0.755900
H37 H 1.137000 0.119400 0.769400
C38 C 0.776400 0.068600 0.779650
C39 C 0.660500 0.067700 0.762400
C40 C 0.598800 0.077200 0.803840
H41 H 0.520700 0.076700 0.793300
C42 C 0.649600 0.087200 0.859550
C43 C 0.766300 0.088900 0.874850
H44 H 0.801000 0.098600 0.912500
C45 C 0.831800 0.076900 0.836480
C46 C 0.604000 0.054200 0.703180
H47 H 0.646000 0.081500 0.679100
H48 H 0.529700 0.077800 0.696400
H49 H 0.599300 -0.005400 0.695200
C50 C 0.581700 0.089500 0.902900
H51 H 0.511600 0.117400 0.887800
H52 H 0.621900 0.119800 0.935400
H53 H 0.567600 0.032600 0.913600
C54 C 0.953800 0.073900 0.852400
H55 H 0.978500 0.087900 0.891700
H56 H 0.984600 0.113800 0.830100
H57 H 0.979000 0.017800 0.846000
C58 C 0.805900 0.229600 0.760100
C59 C 0.692700 0.297500 0.843410
C60 C 0.728900 0.411700 0.904800
H61 H 0.792700 0.447300 0.902700
H62 H 0.711400 0.418200 0.941700
C63 C 0.629900 0.431500 0.858560
H64 H 0.562200 0.437300 0.873000
H65 H 0.641700 0.483300 0.839000
C66 C 0.819300 0.273300 0.934520
C67 C 0.773900 0.240200 0.976870
C68 C 0.839500 0.186600 1.014940
H69 H 0.810700 0.163700 1.044100
C70 C 0.945500 0.166300 1.011000
C71 C 0.989800 0.205800 0.971440
H72 H 1.064100 0.194800 0.970100
C73 C 0.928900 0.261300 0.933320
C74 C 0.661300 0.263400 0.984040
H75 H 0.634300 0.220500 1.005700
H76 H 0.611200 0.268300 0.947600
H77 H 0.665000 0.316700 1.003500
C78 C 1.009600 0.102400 1.049120
H79 H 1.084600 0.099200 1.043100
H80 H 0.973700 0.048200 1.041500
H81 H 1.012200 0.118100 1.087600
C82 C 0.980200 0.305300 0.891870
H83 H 0.942500 0.288900 0.854400
H84 H 1.058300 0.290300 0.898100
H85 H 0.973400 0.365500 0.896100
C86 C 0.531100 0.352600 0.775600
C87 C 0.431800 0.321300 0.784400
C88 C 0.341900 0.320300 0.740200
H89 H 0.274100 0.298700 0.745600
C90 C 0.347200 0.349700 0.688400
C91 C 0.445800 0.378800 0.681200
H92 H 0.450700 0.397800 0.645600
C93 C 0.539200 0.381700 0.723700
C94 C 0.422200 0.288100 0.839000
H95 H 0.348700 0.264300 0.836000
H96 H 0.433700 0.333100 0.866300
H97 H 0.478000 0.244900 0.850800
C98 C 0.245700 0.352500 0.642200
H99 H 0.213200 0.408200 0.640200
H100 H 0.192200 0.311600 0.649200
H101 H 0.265800 0.339600 0.607000
C102 C 0.646200 0.412800 0.712600
H103 H 0.684400 0.367000 0.698700
H104 H 0.692500 0.434300 0.747000
H105 H 0.631400 0.457200 0.684900
Ru106 Ru 0.884700 0.266500 0.212306
Ru107 Ru 0.713040 0.312190 0.303793
H108 H 0.641000 0.273000 0.256400
Cl109 Cl 0.736610 0.286430 0.135170
Cl110 Cl 0.896550 0.126470 0.179450
Cl111 Cl 1.058870 0.240440 0.271090
N112 N 0.959100 0.436500 0.188690
N113 N 0.839900 0.446340 0.240040
N114 N 0.750100 0.176700 0.393150
N115 N 0.623400 0.141200 0.321940
C116 C 0.898500 0.392200 0.216000
C117 C 0.945500 0.527200 0.193380
H118 H 1.016000 0.554000 0.211300
H119 H 0.917600 0.552700 0.156600
C120 C 0.862100 0.534500 0.229080
H121 H 0.794500 0.563100 0.209200
H122 H 0.893000 0.564700 0.263900
C123 C 1.038800 0.407100 0.159300
C124 C 1.007500 0.399700 0.102000
C125 C 1.093300 0.373900 0.075600
H126 H 1.076900 0.363200 0.036900
C127 C 1.200200 0.364600 0.106200
C128 C 1.223600 0.374800 0.159400
H129 H 1.297400 0.365500 0.178900
C130 C 1.147200 0.398400 0.189500
C131 C 0.895500 0.417300 0.069900
H132 H 0.888800 0.476600 0.060900
H133 H 0.881200 0.384800 0.035600
H134 H 0.841800 0.402300 0.091900
C135 C 1.291900 0.337600 0.075700
H136 H 1.329400 0.288000 0.093600
H137 H 1.258400 0.325100 0.036900
H138 H 1.345300 0.382800 0.077400
C139 C 1.178600 0.416800 0.249600
H140 H 1.257600 0.406900 0.263200
H141 H 1.161800 0.475000 0.255900
H142 H 1.137000 0.380600 0.269400
C143 C 0.776400 0.431400 0.279650
C144 C 0.660500 0.432300 0.262400
C145 C 0.598800 0.422800 0.303840
H146 H 0.520700 0.423300 0.293300
C147 C 0.649600 0.412800 0.359550
C148 C 0.766300 0.411100 0.374850
H149 H 0.801000 0.401400 0.412500
C150 C 0.831800 0.423100 0.336480
C151 C 0.604000 0.445800 0.203180
H152 H 0.646000 0.418500 0.179100
H153 H 0.529700 0.422200 0.196400
H154 H 0.599300 0.505400 0.195200
C155 C 0.581700 0.410500 0.402900
H156 H 0.511600 0.382600 0.387800
H157 H 0.621900 0.380200 0.435400
H158 H 0.567600 0.467400 0.413600
C159 C 0.953800 0.426100 0.352400
H160 H 0.978500 0.412100 0.391700
H161 H 0.984600 0.386200 0.330100
H162 H 0.979000 0.482200 0.346000
C163 C 0.805900 0.270400 0.260100
C164 C 0.692700 0.202500 0.343410
C165 C 0.728900 0.088300 0.404800
H166 H 0.792700 0.052700 0.402700
H167 H 0.711400 0.081800 0.441700
C168 C 0.629900 0.068500 0.358560
H169 H 0.562200 0.062700 0.373000
H170 H 0.641700 0.016700 0.339000
C171 C 0.819300 0.226700 0.434520
C172 C 0.773900 0.259800 0.476870
C173 C 0.839500 0.313400 0.514940
H174 H 0.810700 0.336300 0.544100
C175 C 0.945500 0.333700 0.511000
C176 C 0.989800 0.294200 0.471440
H177 H 1.064100 0.305200 0.470100
C178 C 0.928900 0.238700 0.433320
C179 C 0.661300 0.236600 0.484040
H180 H 0.634300 0.279500 0.505700
H181 H 0.611200 0.231700 0.447600
H182 H 0.665000 0.183300 0.503500
C183 C 1.009600 0.397600 0.549120
H184 H 1.084600 0.400800 0.543100
H185 H 0.973700 0.451800 0.541500
H186 H 1.012200 0.381900 0.587600
C187 C 0.980200 0.194700 0.391870
H188 H 0.942500 0.211100 0.354400
H189 H 1.058300 0.209700 0.398100
H190 H 0.973400 0.134500 0.396100
C191 C 0.531100 0.147400 0.275600
C192 C 0.431800 0.178700 0.284400
C193 C 0.341900 0.179700 0.240200
H194 H 0.274100 0.201300 0.245600
C195 C 0.347200 0.150300 0.188400
C196 C 0.445800 0.121200 0.181200
H197 H 0.450700 0.102200 0.145600
C198 C 0.539200 0.118300 0.223700
C199 C 0.422200 0.211900 0.339000
H200 H 0.348700 0.235700 0.336000
H201 H 0.433700 0.166900 0.366300
H202 H 0.478000 0.255100 0.350800
C203 C 0.245700 0.147500 0.142200
H204 H 0.213200 0.091800 0.140200
H205 H 0.192200 0.188400 0.149200
H206 H 0.265800 0.160400 0.107000
C207 C 0.646200 0.087200 0.212600
H208 H 0.684400 0.133000 0.198700
H209 H 0.692500 0.065700 0.247000
H210 H 0.631400 0.042800 0.184900
Ru211 Ru 0.115300 0.766500 0.287694
Ru212 Ru 0.286960 0.812190 0.196207
H213 H 0.359000 0.773000 0.243600
Cl214 Cl 0.263390 0.786430 0.364830
Cl215 Cl 0.103450 0.626470 0.320550
Cl216 Cl -0.058870 0.740440 0.228910
N217 N 0.040900 0.936500 0.311310
N218 N 0.160100 0.946340 0.259960
N219 N 0.249900 0.676700 0.106850
N220 N 0.376600 0.641200 0.178060
C221 C 0.101500 0.892200 0.284000
C222 C 0.054500 1.027200 0.306620
H223 H -0.016000 1.054000 0.288700
H224 H 0.082400 1.052700 0.343400
C225 C 0.137900 1.034500 0.270920
H226 H 0.205500 1.063100 0.290800
H227 H 0.107000 1.064700 0.236100
C228 C -0.038800 0.907100 0.340700
C229 C -0.007500 0.899700 0.398000
C230 C -0.093300 0.873900 0.424400
H231 H -0.076900 0.863200 0.463100
C232 C -0.200200 0.864600 0.393800
C233 C -0.223600 0.874800 0.340600
H234 H -0.297400 0.865500 0.321100
C235 C -0.147200 0.898400 0.310500
C236 C 0.104500 0.917300 0.430100
H237 H 0.111200 0.976600 0.439100
H238 H 0.118800 0.884800 0.464400
H239 H 0.158200 0.902300 0.408100
C240 C -0.291900 0.837600 0.424300
H241 H -0.329400 0.788000 0.406400
H242 H -0.258400 0.825100 0.463100
H243 H -0.345300 0.882800 0.422600
C244 C -0.178600 0.916800 0.250400
H245 H -0.257600 0.906900 0.236800
H246 H -0.161800 0.975000 0.244100
H247 H -0.137000 0.880600 0.230600
C248 C 0.223600 0.931400 0.220350
C249 C 0.339500 0.932300 0.237600
C250 C 0.401200 0.922800 0.196160
H251 H 0.479300 0.923300 0.206700
C252 C 0.350400 0.912800 0.140450
C253 C 0.233700 0.911100 0.125150
H254 H 0.199000 0.901400 0.087500
C255 C 0.168200 0.923100 0.163520
C256 C 0.396000 0.945800 0.296820
H257 H 0.354000 0.918500 0.320900
H258 H 0.470300 0.922200 0.303600
H259 H 0.400700 1.005400 0.304800
C260 C 0.418300 0.910500 0.097100
H261 H 0.488400 0.882600 0.112200
H262 H 0.378100 0.880200 0.064600
H263 H 0.432400 0.967400 0.086400
C264 C 0.046200 0.926100 0.147600
H265 H 0.021500 0.912100 0.108300
H266 H 0.015400 0.886200 0.169900
H267 H 0.021000 0.982200 0.154000
C268 C 0.194100 0.770400 0.239900
C269 C 0.307300 0.702500 0.156590
C270 C 0.271100 0.588300 0.095200
H271 H 0.207300 0.552700 0.097300
H272 H 0.288600 0.581800 0.058300
C273 C 0.370100 0.568500 0.141440
H274 H 0.437800 0.562700 0.127000
H275 H 0.358300 0.516700 0.161000
C276 C 0.180700 0.726700 0.065480
C277 C 0.226100 0.759800 0.023130
C278 C 0.160500 0.813400 -0.014940
H279 H 0.189300 0.836300 -0.044100
C280 C 0.054500 0.833700 -0.011000
C281 C 0.010200 0.794200 0.028560
H282 H -0.064100 0.805200 0.029900
C283 C 0.071100 0.738700 0.066680
C284 C 0.338700 0.736600 0.015960
H285 H 0.365700 0.779500 -0.005700
H286 H 0.388800 0.731700 0.052400
H287 H 0.335000 0.683300 -0.003500
C288 C -0.009600 0.897600 -0.049120
H289 H -0.084600 0.900800 -0.043100
H290 H 0.026300 0.951800 -0.041500
H291 H -0.012200 0.881900 -0.087600
C292 C 0.019800 0.694700 0.108130
H293 H 0.057500 0.711100 0.145600
H294 H -0.058300 0.709700 0.101900
H295 H 0.026600 0.634500 0.103900
C296 C 0.468900 0.647400 0.224400
C297 C 0.568200 0.678700 0.215600
C298 C 0.658100 0.679700 0.259800
H299 H 0.725900 0.701300 0.254400
C300 C 0.652800 0.650300 0.311600
C301 C 0.554200 0.621200 0.318800
H302 H 0.549300 0.602200 0.354400
C303 C 0.460800 0.618300 0.276300
C304 C 0.577800 0.711900 0.161000
H305 H 0.651300 0.735700 0.164000
H306 H 0.566300 0.666900 0.133700
H307 H 0.522000 0.755100 0.149200
C308 C 0.754300 0.647500 0.357800
H309 H 0.786800 0.591800 0.359800
H310 H 0.807800 0.688400 0.350800
H311 H 0.734200 0.660400 0.393000
C312 C 0.353800 0.587200 0.287400
H313 H 0.315600 0.633000 0.301300
H314 H 0.307500 0.565700 0.253000
H315 H 0.368600 0.542800 0.315100
Ru316 Ru 0.115300 0.733500 0.787694
Ru317 Ru 0.286960 0.687810 0.696207
H318 H 0.359000 0.727000 0.743600
Cl319 Cl 0.263390 0.713570 0.864830
Cl320 Cl 0.103450 0.873530 0.820550
Cl321 Cl -0.058870 0.759560 0.728910
N322 N 0.040900 0.563500 0.811310
N323 N 0.160100 0.553660 0.759960
N324 N 0.249900 0.823300 0.606850
N325 N 0.376600 0.858800 0.678060
C326 C 0.101500 0.607800 0.784000
C327 C 0.054500 0.472800 0.806620
H328 H -0.016000 0.446000 0.788700
H329 H 0.082400 0.447300 0.843400
C330 C 0.137900 0.465500 0.770920
H331 H 0.205500 0.436900 0.790800
H332 H 0.107000 0.435300 0.736100
C333 C -0.038800 0.592900 0.840700
C334 C -0.007500 0.600300 0.898000
C335 C -0.093300 0.626100 0.924400
H336 H -0.076900 0.636800 0.963100
C337 C -0.200200 0.635400 0.893800
C338 C -0.223600 0.625200 0.840600
H339 H -0.297400 0.634500 0.821100
C340 C -0.147200 0.601600 0.810500
C341 C 0.104500 0.582700 0.930100
H342 H 0.111200 0.523400 0.939100
H343 H 0.118800 0.615200 0.964400
H344 H 0.158200 0.597700 0.908100
C345 C -0.291900 0.662400 0.924300
H346 H -0.329400 0.712000 0.906400
H347 H -0.258400 0.674900 0.963100
H348 H -0.345300 0.617200 0.922600
C349 C -0.178600 0.583200 0.750400
H350 H -0.257600 0.593100 0.736800
H351 H -0.161800 0.525000 0.744100
H352 H -0.137000 0.619400 0.730600
C353 C 0.223600 0.568600 0.720350
C354 C 0.339500 0.567700 0.737600
C355 C 0.401200 0.577200 0.696160
H356 H 0.479300 0.576700 0.706700
C357 C 0.350400 0.587200 0.640450
C358 C 0.233700 0.588900 0.625150
H359 H 0.199000 0.598600 0.587500
C360 C 0.168200 0.576900 0.663520
C361 C 0.396000 0.554200 0.796820
H362 H 0.354000 0.581500 0.820900
H363 H 0.470300 0.577800 0.803600
H364 H 0.400700 0.494600 0.804800
C365 C 0.418300 0.589500 0.597100
H366 H 0.488400 0.617400 0.612200
H367 H 0.378100 0.619800 0.564600
H368 H 0.432400 0.532600 0.586400
C369 C 0.046200 0.573900 0.647600
H370 H 0.021500 0.587900 0.608300
H371 H 0.015400 0.613800 0.669900
H372 H 0.021000 0.517800 0.654000
C373 C 0.194100 0.729600 0.739900
C374 C 0.307300 0.797500 0.656590
C375 C 0.271100 0.911700 0.595200
H376 H 0.207300 0.947300 0.597300
H377 H 0.288600 0.918200 0.558300
C378 C 0.370100 0.931500 0.641440
H379 H 0.437800 0.937300 0.627000
H380 H 0.358300 0.983300 0.661000
C381 C 0.180700 0.773300 0.565480
C382 C 0.226100 0.740200 0.523130
C383 C 0.160500 0.686600 0.485060
H384 H 0.189300 0.663700 0.455900
C385 C 0.054500 0.666300 0.489000
C386 C 0.010200 0.705800 0.528560
H387 H -0.064100 0.694800 0.529900
C388 C 0.071100 0.761300 0.566680
C389 C 0.338700 0.763400 0.515960
H390 H 0.365700 0.720500 0.494300
H391 H 0.388800 0.768300 0.552400
H392 H 0.335000 0.816700 0.496500
C393 C -0.009600 0.602400 0.450880
H394 H -0.084600 0.599200 0.456900
H395 H 0.026300 0.548200 0.458500
H396 H -0.012200 0.618100 0.412400
C397 C 0.019800 0.805300 0.608130
H398 H 0.057500 0.788900 0.645600
H399 H -0.058300 0.790300 0.601900
H400 H 0.026600 0.865500 0.603900
C401 C 0.468900 0.852600 0.724400
C402 C 0.568200 0.821300 0.715600
C403 C 0.658100 0.820300 0.759800
H404 H 0.725900 0.798700 0.754400
C405 C 0.652800 0.849700 0.811600
C406 C 0.554200 0.878800 0.818800
H407 H 0.549300 0.897800 0.854400
C408 C 0.460800 0.881700 0.776300
C409 C 0.577800 0.788100 0.661000
H410 H 0.651300 0.764300 0.664000
H411 H 0.566300 0.833100 0.633700
H412 H 0.522000 0.744900 0.649200
C413 C 0.754300 0.852500 0.857800
H414 H 0.786800 0.908200 0.859800
H415 H 0.807800 0.811600 0.850800
H416 H 0.734200 0.839600 0.893000
C417 C 0.353800 0.912800 0.787400
H418 H 0.315600 0.867000 0.801300
H419 H 0.307500 0.934300 0.753000
H420 H 0.368600 0.957200 0.815100
C421 C 0.388800 0.086100 0.993900
H422 H 0.441800 0.065700 1.024700
C423 C 0.329400 0.030900 0.955700
H424 H 0.340400 -0.027200 0.960900
C425 C 0.254200 0.060300 0.910100
H426 H 0.213000 0.022900 0.883700
C427 C 0.240000 0.145500 0.903400
H428 H 0.190000 0.167000 0.871800
C429 C 0.297200 0.197900 0.941800
H430 H 0.286000 0.256100 0.937300
C431 C 0.371900 0.168200 0.987600
H432 H 0.411100 0.205800 1.014400
C433 C 0.388800 0.413900 0.493900
H434 H 0.441800 0.434300 0.524700
C435 C 0.329400 0.469100 0.455700
H436 H 0.340400 0.527200 0.460900
C437 C 0.254200 0.439700 0.410100
H438 H 0.213000 0.477100 0.383700
C439 C 0.240000 0.354500 0.403400
H440 H 0.190000 0.333000 0.371800
C441 C 0.297200 0.302100 0.441800
H442 H 0.286000 0.243900 0.437300
C443 C 0.371900 0.331800 0.487600
H444 H 0.411100 0.294200 0.514400
C445 C 0.611200 0.913900 0.006100
H446 H 0.558200 0.934300 -0.024700
C447 C 0.670600 0.969100 0.044300
H448 H 0.659600 1.027200 0.039100
C449 C 0.745800 0.939700 0.089900
H450 H 0.787000 0.977100 0.116300
C451 C 0.760000 0.854500 0.096600
H452 H 0.810000 0.833000 0.128200
C453 C 0.702800 0.802100 0.058200
H454 H 0.714000 0.743900 0.062700
C455 C 0.628100 0.831800 0.012400
H456 H 0.588900 0.794200 -0.014400
C457 C 0.611200 0.586100 0.506100
H458 H 0.558200 0.565700 0.475300
C459 C 0.670600 0.530900 0.544300
H460 H 0.659600 0.472800 0.539100
C461 C 0.745800 0.560300 0.589900
H462 H 0.787000 0.522900 0.616300
C463 C 0.760000 0.645500 0.596600
H464 H 0.810000 0.667000 0.628200
C465 C 0.702800 0.697900 0.558200
H466 H 0.714000 0.756100 0.562700
C467 C 0.628100 0.668200 0.512400
H468 H 0.588900 0.705800 0.485600
C469 C 0.464900 0.420400 -0.004700
H470 H 0.440400 0.364300 -0.008600
C471 C 0.544100 0.441900 0.038900
H472 H 0.574300 0.401800 0.066200
C473 C 0.418200 0.477600 -0.043900
H474 H 0.360600 0.461800 -0.074200
C475 C 0.581800 0.522400 0.043900
C476 C 0.535100 0.579600 0.004700
H477 H 0.559600 0.635700 0.008600
C478 C 0.455900 0.558100 -0.038900
H479 H 0.425700 0.598200 -0.066200
H480 H 0.639400 0.538200 0.074200
C481 C 0.464900 0.420400 0.995300
H482 H 0.440400 0.364300 0.991400
C483 C 0.544100 0.441900 1.038900
H484 H 0.574300 0.401800 1.066200
C485 C 0.418200 0.477600 0.956100
H486 H 0.360600 0.461800 0.925800
C487 C 0.581800 0.522400 1.043900
C488 C 0.535100 0.579600 1.004700
H489 H 0.559600 0.635700 1.008600
C490 C 0.455900 0.558100 0.961100
H491 H 0.425700 0.598200 0.933800
H492 H 0.639400 0.538200 1.074200
C493 C 0.464900 0.079600 0.495300
H494 H 0.440400 0.135700 0.491400
C495 C 0.544100 0.058100 0.538900
H496 H 0.574300 0.098200 0.566200
C497 C 0.418200 0.022400 0.456100
H498 H 0.360600 0.038200 0.425800
C499 C 0.581800 -0.022400 0.543900
C500 C 0.535100 -0.079600 0.504700
H501 H 0.559600 -0.135700 0.508600
C502 C 0.455900 -0.058100 0.461100
H503 H 0.425700 -0.098200 0.433800
H504 H 0.639400 -0.038200 0.574200
C505 C 0.464900 1.079600 0.495300
H506 H 0.440400 1.135700 0.491400
C507 C 0.544100 1.058100 0.538900
H508 H 0.574300 1.098200 0.566200
C509 C 0.418200 1.022400 0.456100
H510 H 0.360600 1.038200 0.425800
C511 C 0.581800 0.977600 0.543900
C512 C 0.535100 0.920400 0.504700
H513 H 0.559600 0.864300 0.508600
C514 C 0.455900 0.941900 0.461100
H515 H 0.425700 0.901800 0.433800
H516 H 0.639400 0.961800 0.574200

#END
