
#######################################################################
#
#                 Cambridge Crystallographic Data Centre
#                                CCDC 
#
#######################################################################
#
# If this CIF has been generated from an entry in the Cambridge 
# Structural Database, then it will include bibliographic, chemical, 
# crystal, experimental, refinement or atomic coordinate data resulting 
# from the CCDC's data processing and validation procedures.
#
#######################################################################

data_ABAFOZ
_symmetry_cell_setting           trigonal
_symmetry_space_group_name_H-M   'P 32'
_symmetry_Int_Tables_number      145
_space_group_name_Hall           'P 32'
loop_
_symmetry_equiv_pos_site_id
_symmetry_equiv_pos_as_xyz
1 x,y,z
2 -y,x-y,2/3+z
3 -x+y,-x,1/3+z
_cell_length_a                   10.4804(6)
_cell_length_b                   10.4804(6)
_cell_length_c                   31.8116(17)
_cell_angle_alpha                90
_cell_angle_beta                 90
_cell_angle_gamma                120
_cell_volume                     3026.02
loop_
_atom_site_label
_atom_site_type_symbol
_atom_site_fract_x
_atom_site_fract_y
_atom_site_fract_z
Pd1 Pd 0.53343(4) 0.46662(4) 0.11940
C1 C 0.2068(8) 0.3226(11) 0.1231(3)
N1 N 0.3405(6) 0.4394(6) 0.14479(18)
C2 C 0.3490(10) 0.5854(10) 0.14007(23)
C3 C 0.4153(9) 0.6515(10) 0.09811(23)
N2 N 0.5596(7) 0.6595(6) 0.09416(17)
C4 C 0.6744(11) 0.7927(8) 0.1159(3)
O1 O 0.7430(4) 0.5254(4) 0.10336(12)
O2 O 0.4747(4) 0.2562(4) 0.13527(12)
C5 C 0.3284(6) 0.3946(7) 0.18942(23)
C6 C 0.4487(6) 0.5050(6) 0.21770(18)
C7 C 0.5827(7) 0.5113(7) 0.22004(20)
C8 C 0.6947(7) 0.6156(8) 0.24459(21)
C9 C 0.6728(7) 0.7166(7) 0.26735(21)
C10 C 0.5374(7) 0.7091(7) 0.26591(21)
C11 C 0.4274(7) 0.6057(7) 0.24136(19)
C12 C 0.6065(7) 0.6718(6) 0.04904(21)
C13 C 0.4941(6) 0.5510(6) 0.02065(18)
C14 C 0.3956(7) 0.5735(7) -0.00263(19)
C15 C 0.2900(8) 0.4617(8) -0.02751(21)
C16 C 0.2836(7) 0.3284(7) -0.02835(21)
C17 C 0.3821(8) 0.3050(7) -0.00602(21)
C18 C 0.4893(7) 0.4175(7) 0.01886(20)
C19 C 0.5192(6) 0.1934(6) 0.10594(18)
C20 C 0.6655(5) 0.2288(5) 0.10359(17)
C21 C 0.7138(6) 0.1691(6) 0.07077(17)
C22 C 0.8632(6) 0.2064(6) 0.06615(18)
C23 C 0.9071(7) 0.1496(7) 0.03410(22)
C24 C 0.8056(8) 0.0586(7) 0.00439(20)
C25 C 0.6628(7) 0.0205(6) 0.00662(18)
C26 C 0.6099(7) 0.0720(6) 0.04076(18)
C27 C 0.4608(7) 0.0300(6) 0.04639(19)
C28 C 0.4126(6) 0.0850(6) 0.07756(19)
C29 C 0.2529(7) 0.0398(7) 0.0816(3)
C30 C 0.8077(6) 0.4808(6) 0.13305(18)
C31 C 0.7719(6) 0.3346(6) 0.13467(17)
C32 C 0.8304(5) 0.2857(6) 0.16771(16)
C33 C 0.7928(6) 0.1364(6) 0.17235(19)
C34 C 0.8504(7) 0.0924(7) 0.20477(21)
C35 C 0.9418(7) 0.1946(8) 0.23441(21)
C36 C 0.9783(6) 0.3371(7) 0.23160(19)
C37 C 0.9281(6) 0.3904(7) 0.19810(18)
C38 C 0.9704(6) 0.5394(7) 0.19257(19)
C39 C 0.9137(6) 0.5857(6) 0.16125(19)
C40 C 0.9603(7) 0.7459(7) 0.15726(24)
H1 H 0.202 0.229 0.124
H2 H 0.122 0.316 0.137
H3 H 0.209 0.351 0.094
H4 H 0.409 0.651 0.162
H5 H 0.251 0.571 0.142
H6 H 0.425 0.747 0.095
H7 H 0.351 0.586 0.077
H8 H 0.769 0.801 0.113
H9 H 0.676 0.878 0.104
H10 H 0.651 0.785 0.145
H11 H 0.236 0.381 0.199
H12 H 0.328 0.303 0.191
H13 H 0.595 0.438 0.206
H14 H 0.789 0.621 0.245
H15 H 0.751 0.790 0.284
H16 H 0.521 0.779 0.281
H17 H 0.333 0.599 0.241
H18 H 0.698 0.671 0.048
H19 H 0.621 0.763 0.038
H20 H 0.400 0.667 -0.002
H21 H 0.224 0.478 -0.044
H22 H 0.207 0.249 -0.044
H23 H 0.377 0.211 -0.007
H24 H 0.560 0.402 0.034
H25 H 0.933 0.269 0.087
H26 H 1.009 0.178 0.032
H27 H 0.837 0.018 -0.018
H28 H 0.595 -0.038 -0.015
H29 H 0.388 -0.042 0.028
H30 H 0.243 0.092 0.105
H31 H 0.217 0.062 0.057
H32 H 0.197 -0.064 0.087
H33 H 0.730 0.066 0.152
H34 H 0.824 -0.009 0.208
H35 H 0.978 0.163 0.257
H36 H 1.043 0.405 0.252
H37 H 1.038 0.611 0.212
H38 H 0.914 0.762 0.134
H39 H 0.931 0.774 0.182
H40 H 1.065 0.804 0.154
Pd1 Pd 0.53338(4) 0.06681(6) 0.78607
C1 C 0.6774(11) -0.1158(14) 0.7898(3)
N1 N 0.5606(6) -0.0989(8) 0.81146(18)
C2 C 0.4146(10) -0.2364(14) 0.80674(23)
C3 C 0.3485(10) -0.2362(13) 0.76478(23)
N2 N 0.3405(6) -0.0999(9) 0.76083(17)
C4 C 0.2073(8) -0.1183(14) 0.7826(3)
O1 O 0.4746(4) 0.2176(6) 0.77003(12)
O2 O 0.7438(4) 0.2185(6) 0.80194(12)
C5 C 0.6054(7) -0.0662(9) 0.85609(23)
C6 C 0.4950(6) -0.0563(8) 0.88437(18)
C7 C 0.4887(7) 0.0714(10) 0.88671(20)
C8 C 0.3844(8) 0.0791(11) 0.91126(21)
C9 C 0.2834(7) -0.0438(10) 0.93402(21)
C10 C 0.2909(7) -0.1717(10) 0.93258(21)
C11 C 0.3943(7) -0.1783(10) 0.90803(19)
C12 C 0.3282(6) -0.0653(9) 0.71571(21)
C13 C 0.4490(6) -0.0569(8) 0.68732(18)
C14 C 0.4265(7) -0.1779(10) 0.66404(19)
C15 C 0.5383(8) -0.1717(11) 0.63916(21)
C16 C 0.6716(7) -0.0448(10) 0.63832(21)
C17 C 0.6950(7) 0.0771(11) 0.66065(21)
C18 C 0.5825(7) 0.0718(10) 0.68553(20)
C19 C 0.8066(6) 0.3258(8) 0.77261(18)
C20 C 0.7712(5) 0.4367(7) 0.77026(17)
C21 C 0.8309(6) 0.5447(8) 0.73744(17)
C22 C 0.7936(6) 0.6568(8) 0.73282(18)
C23 C 0.8504(7) 0.7575(10) 0.70077(22)
C24 C 0.9414(7) 0.7470(11) 0.67106(20)
C25 C 0.9795(6) 0.6423(9) 0.67329(18)
C26 C 0.9280(6) 0.5379(9) 0.70743(18)
C27 C 0.9700(6) 0.4308(9) 0.71306(19)
C28 C 0.9150(6) 0.3276(8) 0.74423(19)
C29 C 0.9602(7) 0.2131(10) 0.7483(3)
C30 C 0.5192(6) 0.3269(8) 0.79972(18)
C31 C 0.6654(6) 0.4373(8) 0.80134(17)
C32 C 0.7143(6) 0.5447(8) 0.83438(16)
C33 C 0.8636(6) 0.6564(8) 0.83902(19)
C34 C 0.9076(7) 0.7580(10) 0.87144(21)
C35 C 0.8054(8) 0.7472(11) 0.90108(21)
C36 C 0.6629(7) 0.6412(9) 0.89827(19)
C37 C 0.6096(7) 0.5377(9) 0.86477(18)
C38 C 0.4606(7) 0.4310(9) 0.85924(19)
C39 C 0.4143(6) 0.3280(8) 0.82792(19)
C40 C 0.2541(7) 0.2144(10) 0.82393(24)
H1 H 0.771 -0.027 0.790667
H2 H 0.684 -0.194 0.803667
H3 H 0.649 -0.142 0.760667
H4 H 0.349 -0.242 0.828667
H5 H 0.429 -0.320 0.808667
H6 H 0.253 -0.322 0.761667
H7 H 0.414 -0.235 0.743667
H8 H 0.199 -0.032 0.779667
H9 H 0.122 -0.202 0.770667
H10 H 0.215 -0.134 0.811667
H11 H 0.619 -0.145 0.865667
H12 H 0.697 0.025 0.857667
H13 H 0.562 0.157 0.872667
H14 H 0.379 0.168 0.911667
H15 H 0.210 -0.039 0.950667
H16 H 0.221 -0.258 0.947667
H17 H 0.401 -0.266 0.907667
H18 H 0.329 0.027 0.714667
H19 H 0.237 -0.142 0.704667
H20 H 0.333 -0.267 0.664667
H21 H 0.522 -0.254 0.622667
H22 H 0.751 -0.042 0.622667
H23 H 0.789 0.166 0.659667
H24 H 0.598 0.158 0.700667
H25 H 0.731 0.664 0.753667
H26 H 0.822 0.831 0.698667
H27 H 0.982 0.819 0.648667
H28 H 1.038 0.633 0.651667
H29 H 1.042 0.430 0.694667
H30 H 0.908 0.151 0.771667
H31 H 0.938 0.155 0.723667
H32 H 1.064 0.261 0.753667
H33 H 0.934 0.664 0.818667
H34 H 1.009 0.833 0.874667
H35 H 0.837 0.815 0.923667
H36 H 0.595 0.638 0.918667
H37 H 0.389 0.427 0.878667
H38 H 0.238 0.152 0.800667
H39 H 0.226 0.157 0.848667
H40 H 0.196 0.261 0.820667
Pd1 Pd 0.93319(6) 0.46657(4) 0.45273
C1 C 1.1158(14) 0.7932(8) 0.4564(3)
N1 N 1.0989(8) 0.6595(6) 0.47812(18)
C2 C 1.2364(14) 0.6510(10) 0.47340(23)
C3 C 1.2362(13) 0.5847(9) 0.43144(23)
N2 N 1.0999(9) 0.4404(7) 0.42749(17)
C4 C 1.1183(14) 0.3256(11) 0.4492(3)
O1 O 0.7824(6) 0.2570(4) 0.43669(12)
O2 O 0.7815(6) 0.5253(4) 0.46860(12)
C5 C 1.0662(9) 0.6716(6) 0.52275(23)
C6 C 1.0563(8) 0.5513(6) 0.55103(18)
C7 C 0.9286(10) 0.4173(7) 0.55337(20)
C8 C 0.9209(11) 0.3053(7) 0.57792(21)
C9 C 1.0438(10) 0.3272(7) 0.60068(21)
C10 C 1.1717(10) 0.4626(7) 0.59924(21)
C11 C 1.1783(10) 0.5726(7) 0.57469(19)
C12 C 1.0653(9) 0.3935(7) 0.38237(21)
C13 C 1.0569(8) 0.5059(6) 0.35398(18)
C14 C 1.1779(10) 0.6044(7) 0.33070(19)
C15 C 1.1717(11) 0.7100(8) 0.30582(21)
C16 C 1.0448(10) 0.7164(7) 0.30498(21)
C17 C 0.9229(11) 0.6179(8) 0.32731(21)
C18 C 0.9282(10) 0.5107(7) 0.35219(20)
C19 C 0.6742(8) 0.4808(6) 0.43927(18)
C20 C 0.5633(7) 0.3345(5) 0.43692(17)
C21 C 0.4553(8) 0.2862(6) 0.40410(17)
C22 C 0.3432(8) 0.1368(6) 0.39948(18)
C23 C 0.2425(10) 0.0929(7) 0.36743(22)
C24 C 0.2530(11) 0.1944(8) 0.33772(20)
C25 C 0.3577(9) 0.3372(7) 0.33995(18)
C26 C 0.4621(9) 0.3901(7) 0.37409(18)
C27 C 0.5692(9) 0.5392(7) 0.37972(19)
C28 C 0.6724(8) 0.5874(6) 0.41089(19)
C29 C 0.7869(10) 0.7471(7) 0.4149(3)
C30 C 0.6731(8) 0.1923(6) 0.46638(18)
C31 C 0.5627(8) 0.2281(6) 0.46800(17)
C32 C 0.4553(8) 0.1696(5) 0.50104(16)
C33 C 0.3436(8) 0.2072(6) 0.50568(19)
C34 C 0.2420(10) 0.1496(7) 0.53810(21)
C35 C 0.2528(11) 0.0582(7) 0.56774(21)
C36 C 0.3588(9) 0.0217(6) 0.56493(19)
C37 C 0.4623(9) 0.0719(6) 0.53143(18)
C38 C 0.5690(9) 0.0296(6) 0.52590(19)
C39 C 0.6720(8) 0.0863(6) 0.49458(19)
C40 C 0.7856(10) 0.0397(7) 0.49059(24)
H1 H 1.027 0.798 0.457333
H2 H 1.194 0.878 0.470333
H3 H 1.142 0.791 0.427333
H4 H 1.242 0.591 0.495333
H5 H 1.320 0.749 0.475333
H6 H 1.322 0.575 0.428333
H7 H 1.235 0.649 0.410333
H8 H 1.032 0.231 0.446333
H9 H 1.202 0.324 0.437333
H10 H 1.134 0.349 0.478333
H11 H 1.145 0.764 0.532333
H12 H 0.975 0.672 0.524333
H13 H 0.843 0.405 0.539333
H14 H 0.832 0.211 0.578333
H15 H 1.039 0.249 0.617333
H16 H 1.258 0.479 0.614333
H17 H 1.266 0.667 0.574333
H18 H 0.973 0.302 0.381333
H19 H 1.142 0.379 0.371333
H20 H 1.267 0.600 0.331333
H21 H 1.254 0.776 0.289333
H22 H 1.042 0.793 0.289333
H23 H 0.834 0.623 0.326333
H24 H 0.842 0.440 0.367333
H25 H 0.336 0.067 0.420333
H26 H 0.169 -0.009 0.365333
H27 H 0.181 0.163 0.315333
H28 H 0.367 0.405 0.318333
H29 H 0.570 0.612 0.361333
H30 H 0.849 0.757 0.438333
H31 H 0.845 0.783 0.390333
H32 H 0.739 0.803 0.420333
H33 H 0.336 0.270 0.485333
H34 H 0.167 0.176 0.541333
H35 H 0.185 0.022 0.590333
H36 H 0.362 -0.043 0.585333
H37 H 0.573 -0.038 0.545333
H38 H 0.848 0.086 0.467333
H39 H 0.843 0.069 0.515333
H40 H 0.739 -0.065 0.487333
C41 C 0.5994(9) 0.0753(8) 0.3567(3)
Cl1 Cl 0.52493(24) -0.09988(22) 0.37954(8)
Cl2 Cl 0.7195(3) 0.1031(3) 0.31553(8)
H41 H 0.651 0.149 0.378
H42 H 0.520 0.086 0.346
C41 C 0.9247(8) 0.5241(12) 0.0234(3)
Cl1 Cl 1.09988(22) 0.62481(33) 0.04621(8)
Cl2 Cl 0.8969(3) 0.6164(4) -0.01780(8)
H41 H 0.851 0.502 0.044667
H42 H 0.914 0.434 0.012667
C41 C 0.4759(12) 0.4006(9) 0.6900(3)
Cl1 Cl 0.37519(33) 0.47507(24) 0.71287(8)
Cl2 Cl 0.3836(4) 0.2805(3) 0.64886(8)
H41 H 0.498 0.349 0.711333
H42 H 0.566 0.480 0.679333
C42 C 0.4744(8) 0.0752(8) 0.21500(24)
Cl3 Cl 0.3841(3) 0.1039(3) 0.25664(8)
Cl4 Cl 0.3752(3) -0.09991(22) 0.19264(8)
H43 H 0.567 0.088 0.225
H44 H 0.494 0.147 0.194
C42 C 0.9248(8) 0.3992(11) 0.88167(24)
Cl3 Cl 0.8961(3) 0.2802(4) 0.92331(8)
Cl4 Cl 1.09991(22) 0.47511(37) 0.85931(8)
H43 H 0.912 0.479 0.891667
H44 H 0.853 0.347 0.860667
C42 C 0.6008(11) 0.5256(8) 0.54833(24)
Cl3 Cl 0.7198(4) 0.6159(3) 0.58997(8)
Cl4 Cl 0.52489(37) 0.6248(3) 0.52597(8)
H43 H 0.521 0.433 0.558333
H44 H 0.653 0.506 0.527333

#END
