./ABAFIV_from_xyz.cif_generated_by_CrystalShift
_symmetry_cell_setting triclinic
_symmetry_space_group_name_H-M 'P 1'
loop_
_symmetry_equiv_pos_site_id
_symmetry_equiv_pos_as_xyz
1 x,y,z
_cell_length_a 18.880000
_cell_length_b 9.662100
_cell_length_c 20.257600
_cell_angle_alpha 90.000000
_cell_angle_beta 90.000000
_cell_angle_gamma 90.000000
_cell_volume 3695.400467
loop_
_atom_site_label
_atom_site_type_symbol
_atom_site_fract_x
_atom_site_fract_y
_atom_site_fract_z
Cu1 Cu 0.571086 -0.125710 0.102375
O2 O 0.467410 -0.109000 0.062140
O3 O 0.411170 -0.014490 -0.023860
N4 N 0.587870 -0.000610 0.239040
N5 N 0.626800 -0.400980 0.049600
C6 C 0.464650 -0.035100 0.010780
C7 C 0.579370 -0.045100 0.186670
C8 C 0.605320 0.050200 0.304630
H9 H 0.580400 -0.008700 0.337900
C10 C 0.580260 0.199300 0.313010
H11 H 0.601800 0.258100 0.278400
H12 H 0.528100 0.203600 0.308000
C13 C 0.601240 0.253200 0.380880
H14 H 0.575600 0.200400 0.415300
H15 H 0.587300 0.351700 0.384800
C16 C 0.680910 0.239600 0.392120
H17 H 0.706500 0.299400 0.360400
H18 H 0.692700 0.271300 0.437300
C19 C 0.704970 0.090000 0.383390
H20 H 0.757000 0.084400 0.389000
H21 H 0.682700 0.031400 0.417700
C22 C 0.684790 0.035700 0.315160
H23 H 0.710500 0.088500 0.280800
H24 H 0.698600 -0.062900 0.311300
C25 C 0.605950 -0.299000 0.071460
C26 C 0.654950 -0.531000 0.024020
H27 H 0.656900 -0.525500 -0.025200
C28 C 0.729840 -0.551600 0.050340
H29 H 0.758600 -0.468400 0.040500
H30 H 0.752000 -0.631500 0.027700
C31 C 0.729620 -0.577200 0.124700
H32 H 0.778500 -0.596300 0.139800
H33 H 0.712600 -0.493100 0.147700
C34 C 0.682320 -0.698300 0.142130
H35 H 0.681600 -0.710400 0.190700
H36 H 0.701900 -0.783900 0.122400
C37 C 0.606880 -0.676800 0.117350
H38 H 0.578300 -0.760300 0.127000
H39 H 0.585200 -0.597600 0.140900
C40 C 0.605940 -0.649000 0.043550
H41 H 0.557000 -0.626200 0.029800
H42 H 0.620400 -0.734000 0.019900
O43 O 0.532590 0.109000 -0.062140
C44 C 0.535350 0.035100 -0.010780
O45 O 0.588830 0.014490 0.023860
Cu46 Cu 0.428914 0.125710 -0.102375
N47 N 0.412130 0.000610 -0.239040
N48 N 0.373200 0.400980 -0.049600
C49 C 0.420630 0.045100 -0.186670
C50 C 0.394680 -0.050200 -0.304630
H51 H 0.419600 0.008700 -0.337900
C52 C 0.419740 -0.199300 -0.313010
H53 H 0.398200 -0.258100 -0.278400
H54 H 0.471900 -0.203600 -0.308000
C55 C 0.398760 -0.253200 -0.380880
H56 H 0.424400 -0.200400 -0.415300
H57 H 0.412700 -0.351700 -0.384800
C58 C 0.319090 -0.239600 -0.392120
H59 H 0.293500 -0.299400 -0.360400
H60 H 0.307300 -0.271300 -0.437300
C61 C 0.295030 -0.090000 -0.383390
H62 H 0.243000 -0.084400 -0.389000
H63 H 0.317300 -0.031400 -0.417700
C64 C 0.315210 -0.035700 -0.315160
H65 H 0.289500 -0.088500 -0.280800
H66 H 0.301400 0.062900 -0.311300
C67 C 0.394050 0.299000 -0.071460
C68 C 0.345050 0.531000 -0.024020
H69 H 0.343100 0.525500 0.025200
C70 C 0.270160 0.551600 -0.050340
H71 H 0.241400 0.468400 -0.040500
H72 H 0.248000 0.631500 -0.027700
C73 C 0.270380 0.577200 -0.124700
H74 H 0.221500 0.596300 -0.139800
H75 H 0.287400 0.493100 -0.147700
C76 C 0.317680 0.698300 -0.142130
H77 H 0.318400 0.710400 -0.190700
H78 H 0.298100 0.783900 -0.122400
C79 C 0.393120 0.676800 -0.117350
H80 H 0.421700 0.760300 -0.127000
H81 H 0.414800 0.597600 -0.140900
C82 C 0.394060 0.649000 -0.043550
H83 H 0.443000 0.626200 -0.029800
H84 H 0.379600 0.734000 -0.019900
Cu85 Cu 0.571086 -0.125710 1.102375
O86 O 0.467410 -0.109000 1.062140
O87 O 0.411170 -0.014490 0.976140
N88 N 0.587870 -0.000610 1.239040
N89 N 0.626800 -0.400980 1.049600
C90 C 0.464650 -0.035100 1.010780
C91 C 0.579370 -0.045100 1.186670
C92 C 0.605320 0.050200 1.304630
H93 H 0.580400 -0.008700 1.337900
C94 C 0.580260 0.199300 1.313010
H95 H 0.601800 0.258100 1.278400
H96 H 0.528100 0.203600 1.308000
C97 C 0.601240 0.253200 1.380880
H98 H 0.575600 0.200400 1.415300
H99 H 0.587300 0.351700 1.384800
C100 C 0.680910 0.239600 1.392120
H101 H 0.706500 0.299400 1.360400
H102 H 0.692700 0.271300 1.437300
C103 C 0.704970 0.090000 1.383390
H104 H 0.757000 0.084400 1.389000
H105 H 0.682700 0.031400 1.417700
C106 C 0.684790 0.035700 1.315160
H107 H 0.710500 0.088500 1.280800
H108 H 0.698600 -0.062900 1.311300
C109 C 0.605950 -0.299000 1.071460
C110 C 0.654950 -0.531000 1.024020
H111 H 0.656900 -0.525500 0.974800
C112 C 0.729840 -0.551600 1.050340
H113 H 0.758600 -0.468400 1.040500
H114 H 0.752000 -0.631500 1.027700
C115 C 0.729620 -0.577200 1.124700
H116 H 0.778500 -0.596300 1.139800
H117 H 0.712600 -0.493100 1.147700
C118 C 0.682320 -0.698300 1.142130
H119 H 0.681600 -0.710400 1.190700
H120 H 0.701900 -0.783900 1.122400
C121 C 0.606880 -0.676800 1.117350
H122 H 0.578300 -0.760300 1.127000
H123 H 0.585200 -0.597600 1.140900
C124 C 0.605940 -0.649000 1.043550
H125 H 0.557000 -0.626200 1.029800
H126 H 0.620400 -0.734000 1.019900
O127 O 0.532590 0.109000 0.937860
C128 C 0.535350 0.035100 0.989220
O129 O 0.588830 0.014490 1.023860
Cu130 Cu 0.428914 0.125710 0.897625
N131 N 0.412130 0.000610 0.760960
N132 N 0.373200 0.400980 0.950400
C133 C 0.420630 0.045100 0.813330
C134 C 0.394680 -0.050200 0.695370
H135 H 0.419600 0.008700 0.662100
C136 C 0.419740 -0.199300 0.686990
H137 H 0.398200 -0.258100 0.721600
H138 H 0.471900 -0.203600 0.692000
C139 C 0.398760 -0.253200 0.619120
H140 H 0.424400 -0.200400 0.584700
H141 H 0.412700 -0.351700 0.615200
C142 C 0.319090 -0.239600 0.607880
H143 H 0.293500 -0.299400 0.639600
H144 H 0.307300 -0.271300 0.562700
C145 C 0.295030 -0.090000 0.616610
H146 H 0.243000 -0.084400 0.611000
H147 H 0.317300 -0.031400 0.582300
C148 C 0.315210 -0.035700 0.684840
H149 H 0.289500 -0.088500 0.719200
H150 H 0.301400 0.062900 0.688700
C151 C 0.394050 0.299000 0.928540
C152 C 0.345050 0.531000 0.975980
H153 H 0.343100 0.525500 1.025200
C154 C 0.270160 0.551600 0.949660
H155 H 0.241400 0.468400 0.959500
H156 H 0.248000 0.631500 0.972300
C157 C 0.270380 0.577200 0.875300
H158 H 0.221500 0.596300 0.860200
H159 H 0.287400 0.493100 0.852300
C160 C 0.317680 0.698300 0.857870
H161 H 0.318400 0.710400 0.809300
H162 H 0.298100 0.783900 0.877600
C163 C 0.393120 0.676800 0.882650
H164 H 0.421700 0.760300 0.873000
H165 H 0.414800 0.597600 0.859100
C166 C 0.394060 0.649000 0.956450
H167 H 0.443000 0.626200 0.970200
H168 H 0.379600 0.734000 0.980100
Cu169 Cu 0.571086 0.874290 0.102375
O170 O 0.467410 0.891000 0.062140
O171 O 0.411170 0.985510 -0.023860
N172 N 0.587870 0.999390 0.239040
N173 N 0.626800 0.599020 0.049600
C174 C 0.464650 0.964900 0.010780
C175 C 0.579370 0.954900 0.186670
C176 C 0.605320 1.050200 0.304630
H177 H 0.580400 0.991300 0.337900
C178 C 0.580260 1.199300 0.313010
H179 H 0.601800 1.258100 0.278400
H180 H 0.528100 1.203600 0.308000
C181 C 0.601240 1.253200 0.380880
H182 H 0.575600 1.200400 0.415300
H183 H 0.587300 1.351700 0.384800
C184 C 0.680910 1.239600 0.392120
H185 H 0.706500 1.299400 0.360400
H186 H 0.692700 1.271300 0.437300
C187 C 0.704970 1.090000 0.383390
H188 H 0.757000 1.084400 0.389000
H189 H 0.682700 1.031400 0.417700
C190 C 0.684790 1.035700 0.315160
H191 H 0.710500 1.088500 0.280800
H192 H 0.698600 0.937100 0.311300
C193 C 0.605950 0.701000 0.071460
C194 C 0.654950 0.469000 0.024020
H195 H 0.656900 0.474500 -0.025200
C196 C 0.729840 0.448400 0.050340
H197 H 0.758600 0.531600 0.040500
H198 H 0.752000 0.368500 0.027700
C199 C 0.729620 0.422800 0.124700
H200 H 0.778500 0.403700 0.139800
H201 H 0.712600 0.506900 0.147700
C202 C 0.682320 0.301700 0.142130
H203 H 0.681600 0.289600 0.190700
H204 H 0.701900 0.216100 0.122400
C205 C 0.606880 0.323200 0.117350
H206 H 0.578300 0.239700 0.127000
H207 H 0.585200 0.402400 0.140900
C208 C 0.605940 0.351000 0.043550
H209 H 0.557000 0.373800 0.029800
H210 H 0.620400 0.266000 0.019900
O211 O 0.532590 1.109000 -0.062140
C212 C 0.535350 1.035100 -0.010780
O213 O 0.588830 1.014490 0.023860
Cu214 Cu 0.428914 1.125710 -0.102375
N215 N 0.412130 1.000610 -0.239040
N216 N 0.373200 1.400980 -0.049600
C217 C 0.420630 1.045100 -0.186670
C218 C 0.394680 0.949800 -0.304630
H219 H 0.419600 1.008700 -0.337900
C220 C 0.419740 0.800700 -0.313010
H221 H 0.398200 0.741900 -0.278400
H222 H 0.471900 0.796400 -0.308000
C223 C 0.398760 0.746800 -0.380880
H224 H 0.424400 0.799600 -0.415300
H225 H 0.412700 0.648300 -0.384800
C226 C 0.319090 0.760400 -0.392120
H227 H 0.293500 0.700600 -0.360400
H228 H 0.307300 0.728700 -0.437300
C229 C 0.295030 0.910000 -0.383390
H230 H 0.243000 0.915600 -0.389000
H231 H 0.317300 0.968600 -0.417700
C232 C 0.315210 0.964300 -0.315160
H233 H 0.289500 0.911500 -0.280800
H234 H 0.301400 1.062900 -0.311300
C235 C 0.394050 1.299000 -0.071460
C236 C 0.345050 1.531000 -0.024020
H237 H 0.343100 1.525500 0.025200
C238 C 0.270160 1.551600 -0.050340
H239 H 0.241400 1.468400 -0.040500
H240 H 0.248000 1.631500 -0.027700
C241 C 0.270380 1.577200 -0.124700
H242 H 0.221500 1.596300 -0.139800
H243 H 0.287400 1.493100 -0.147700
C244 C 0.317680 1.698300 -0.142130
H245 H 0.318400 1.710400 -0.190700
H246 H 0.298100 1.783900 -0.122400
C247 C 0.393120 1.676800 -0.117350
H248 H 0.421700 1.760300 -0.127000
H249 H 0.414800 1.597600 -0.140900
C250 C 0.394060 1.649000 -0.043550
H251 H 0.443000 1.626200 -0.029800
H252 H 0.379600 1.734000 -0.019900
Cu253 Cu 0.571086 0.874290 1.102375
O254 O 0.467410 0.891000 1.062140
O255 O 0.411170 0.985510 0.976140
N256 N 0.587870 0.999390 1.239040
N257 N 0.626800 0.599020 1.049600
C258 C 0.464650 0.964900 1.010780
C259 C 0.579370 0.954900 1.186670
C260 C 0.605320 1.050200 1.304630
H261 H 0.580400 0.991300 1.337900
C262 C 0.580260 1.199300 1.313010
H263 H 0.601800 1.258100 1.278400
H264 H 0.528100 1.203600 1.308000
C265 C 0.601240 1.253200 1.380880
H266 H 0.575600 1.200400 1.415300
H267 H 0.587300 1.351700 1.384800
C268 C 0.680910 1.239600 1.392120
H269 H 0.706500 1.299400 1.360400
H270 H 0.692700 1.271300 1.437300
C271 C 0.704970 1.090000 1.383390
H272 H 0.757000 1.084400 1.389000
H273 H 0.682700 1.031400 1.417700
C274 C 0.684790 1.035700 1.315160
H275 H 0.710500 1.088500 1.280800
H276 H 0.698600 0.937100 1.311300
C277 C 0.605950 0.701000 1.071460
C278 C 0.654950 0.469000 1.024020
H279 H 0.656900 0.474500 0.974800
C280 C 0.729840 0.448400 1.050340
H281 H 0.758600 0.531600 1.040500
H282 H 0.752000 0.368500 1.027700
C283 C 0.729620 0.422800 1.124700
H284 H 0.778500 0.403700 1.139800
H285 H 0.712600 0.506900 1.147700
C286 C 0.682320 0.301700 1.142130
H287 H 0.681600 0.289600 1.190700
H288 H 0.701900 0.216100 1.122400
C289 C 0.606880 0.323200 1.117350
H290 H 0.578300 0.239700 1.127000
H291 H 0.585200 0.402400 1.140900
C292 C 0.605940 0.351000 1.043550
H293 H 0.557000 0.373800 1.029800
H294 H 0.620400 0.266000 1.019900
O295 O 0.532590 1.109000 0.937860
C296 C 0.535350 1.035100 0.989220
O297 O 0.588830 1.014490 1.023860
Cu298 Cu 0.428914 1.125710 0.897625
N299 N 0.412130 1.000610 0.760960
N300 N 0.373200 1.400980 0.950400
C301 C 0.420630 1.045100 0.813330
C302 C 0.394680 0.949800 0.695370
H303 H 0.419600 1.008700 0.662100
C304 C 0.419740 0.800700 0.686990
H305 H 0.398200 0.741900 0.721600
H306 H 0.471900 0.796400 0.692000
C307 C 0.398760 0.746800 0.619120
H308 H 0.424400 0.799600 0.584700
H309 H 0.412700 0.648300 0.615200
C310 C 0.319090 0.760400 0.607880
H311 H 0.293500 0.700600 0.639600
H312 H 0.307300 0.728700 0.562700
C313 C 0.295030 0.910000 0.616610
H314 H 0.243000 0.915600 0.611000
H315 H 0.317300 0.968600 0.582300
C316 C 0.315210 0.964300 0.684840
H317 H 0.289500 0.911500 0.719200
H318 H 0.301400 1.062900 0.688700
C319 C 0.394050 1.299000 0.928540
C320 C 0.345050 1.531000 0.975980
H321 H 0.343100 1.525500 1.025200
C322 C 0.270160 1.551600 0.949660
H323 H 0.241400 1.468400 0.959500
H324 H 0.248000 1.631500 0.972300
C325 C 0.270380 1.577200 0.875300
H326 H 0.221500 1.596300 0.860200
H327 H 0.287400 1.493100 0.852300
C328 C 0.317680 1.698300 0.857870
H329 H 0.318400 1.710400 0.809300
H330 H 0.298100 1.783900 0.877600
C331 C 0.393120 1.676800 0.882650
H332 H 0.421700 1.760300 0.873000
H333 H 0.414800 1.597600 0.859100
C334 C 0.394060 1.649000 0.956450
H335 H 0.443000 1.626200 0.970200
H336 H 0.379600 1.734000 0.980100
Cu337 Cu -0.071086 0.625710 0.602375
O338 O 0.032590 0.609000 0.562140
O339 O 0.088830 0.514490 0.476140
N340 N -0.087870 0.500610 0.739040
N341 N -0.126800 0.900980 0.549600
C342 C 0.035350 0.535100 0.510780
C343 C -0.079370 0.545100 0.686670
C344 C -0.105320 0.449800 0.804630
H345 H -0.080400 0.508700 0.837900
C346 C -0.080260 0.300700 0.813010
H347 H -0.101800 0.241900 0.778400
H348 H -0.028100 0.296400 0.808000
C349 C -0.101240 0.246800 0.880880
H350 H -0.075600 0.299600 0.915300
H351 H -0.087300 0.148300 0.884800
C352 C -0.180910 0.260400 0.892120
H353 H -0.206500 0.200600 0.860400
H354 H -0.192700 0.228700 0.937300
C355 C -0.204970 0.410000 0.883390
H356 H -0.257000 0.415600 0.889000
H357 H -0.182700 0.468600 0.917700
C358 C -0.184790 0.464300 0.815160
H359 H -0.210500 0.411500 0.780800
H360 H -0.198600 0.562900 0.811300
C361 C -0.105950 0.799000 0.571460
C362 C -0.154950 1.031000 0.524020
H363 H -0.156900 1.025500 0.474800
C364 C -0.229840 1.051600 0.550340
H365 H -0.258600 0.968400 0.540500
H366 H -0.252000 1.131500 0.527700
C367 C -0.229620 1.077200 0.624700
H368 H -0.278500 1.096300 0.639800
H369 H -0.212600 0.993100 0.647700
C370 C -0.182320 1.198300 0.642130
H371 H -0.181600 1.210400 0.690700
H372 H -0.201900 1.283900 0.622400
C373 C -0.106880 1.176800 0.617350
H374 H -0.078300 1.260300 0.627000
H375 H -0.085200 1.097600 0.640900
C376 C -0.105940 1.149000 0.543550
H377 H -0.057000 1.126200 0.529800
H378 H -0.120400 1.234000 0.519900
O379 O -0.032590 0.391000 0.437860
C380 C -0.035350 0.464900 0.489220
O381 O -0.088830 0.485510 0.523860
Cu382 Cu 0.071086 0.374290 0.397625
N383 N 0.087870 0.499390 0.260960
N384 N 0.126800 0.099020 0.450400
C385 C 0.079370 0.454900 0.313330
C386 C 0.105320 0.550200 0.195370
H387 H 0.080400 0.491300 0.162100
C388 C 0.080260 0.699300 0.186990
H389 H 0.101800 0.758100 0.221600
H390 H 0.028100 0.703600 0.192000
C391 C 0.101240 0.753200 0.119120
H392 H 0.075600 0.700400 0.084700
H393 H 0.087300 0.851700 0.115200
C394 C 0.180910 0.739600 0.107880
H395 H 0.206500 0.799400 0.139600
H396 H 0.192700 0.771300 0.062700
C397 C 0.204970 0.590000 0.116610
H398 H 0.257000 0.584400 0.111000
H399 H 0.182700 0.531400 0.082300
C400 C 0.184790 0.535700 0.184840
H401 H 0.210500 0.588500 0.219200
H402 H 0.198600 0.437100 0.188700
C403 C 0.105950 0.201000 0.428540
C404 C 0.154950 -0.031000 0.475980
H405 H 0.156900 -0.025500 0.525200
C406 C 0.229840 -0.051600 0.449660
H407 H 0.258600 0.031600 0.459500
H408 H 0.252000 -0.131500 0.472300
C409 C 0.229620 -0.077200 0.375300
H410 H 0.278500 -0.096300 0.360200
H411 H 0.212600 0.006900 0.352300
C412 C 0.182320 -0.198300 0.357870
H413 H 0.181600 -0.210400 0.309300
H414 H 0.201900 -0.283900 0.377600
C415 C 0.106880 -0.176800 0.382650
H416 H 0.078300 -0.260300 0.373000
H417 H 0.085200 -0.097600 0.359100
C418 C 0.105940 -0.149000 0.456450
H419 H 0.057000 -0.126200 0.470200
H420 H 0.120400 -0.234000 0.480100
Cu421 Cu 0.928914 0.625710 0.602375
O422 O 1.032590 0.609000 0.562140
O423 O 1.088830 0.514490 0.476140
N424 N 0.912130 0.500610 0.739040
N425 N 0.873200 0.900980 0.549600
C426 C 1.035350 0.535100 0.510780
C427 C 0.920630 0.545100 0.686670
C428 C 0.894680 0.449800 0.804630
H429 H 0.919600 0.508700 0.837900
C430 C 0.919740 0.300700 0.813010
H431 H 0.898200 0.241900 0.778400
H432 H 0.971900 0.296400 0.808000
C433 C 0.898760 0.246800 0.880880
H434 H 0.924400 0.299600 0.915300
H435 H 0.912700 0.148300 0.884800
C436 C 0.819090 0.260400 0.892120
H437 H 0.793500 0.200600 0.860400
H438 H 0.807300 0.228700 0.937300
C439 C 0.795030 0.410000 0.883390
H440 H 0.743000 0.415600 0.889000
H441 H 0.817300 0.468600 0.917700
C442 C 0.815210 0.464300 0.815160
H443 H 0.789500 0.411500 0.780800
H444 H 0.801400 0.562900 0.811300
C445 C 0.894050 0.799000 0.571460
C446 C 0.845050 1.031000 0.524020
H447 H 0.843100 1.025500 0.474800
C448 C 0.770160 1.051600 0.550340
H449 H 0.741400 0.968400 0.540500
H450 H 0.748000 1.131500 0.527700
C451 C 0.770380 1.077200 0.624700
H452 H 0.721500 1.096300 0.639800
H453 H 0.787400 0.993100 0.647700
C454 C 0.817680 1.198300 0.642130
H455 H 0.818400 1.210400 0.690700
H456 H 0.798100 1.283900 0.622400
C457 C 0.893120 1.176800 0.617350
H458 H 0.921700 1.260300 0.627000
H459 H 0.914800 1.097600 0.640900
C460 C 0.894060 1.149000 0.543550
H461 H 0.943000 1.126200 0.529800
H462 H 0.879600 1.234000 0.519900
O463 O 0.967410 0.391000 0.437860
C464 C 0.964650 0.464900 0.489220
O465 O 0.911170 0.485510 0.523860
Cu466 Cu 1.071086 0.374290 0.397625
N467 N 1.087870 0.499390 0.260960
N468 N 1.126800 0.099020 0.450400
C469 C 1.079370 0.454900 0.313330
C470 C 1.105320 0.550200 0.195370
H471 H 1.080400 0.491300 0.162100
C472 C 1.080260 0.699300 0.186990
H473 H 1.101800 0.758100 0.221600
H474 H 1.028100 0.703600 0.192000
C475 C 1.101240 0.753200 0.119120
H476 H 1.075600 0.700400 0.084700
H477 H 1.087300 0.851700 0.115200
C478 C 1.180910 0.739600 0.107880
H479 H 1.206500 0.799400 0.139600
H480 H 1.192700 0.771300 0.062700
C481 C 1.204970 0.590000 0.116610
H482 H 1.257000 0.584400 0.111000
H483 H 1.182700 0.531400 0.082300
C484 C 1.184790 0.535700 0.184840
H485 H 1.210500 0.588500 0.219200
H486 H 1.198600 0.437100 0.188700
C487 C 1.105950 0.201000 0.428540
C488 C 1.154950 -0.031000 0.475980
H489 H 1.156900 -0.025500 0.525200
C490 C 1.229840 -0.051600 0.449660
H491 H 1.258600 0.031600 0.459500
H492 H 1.252000 -0.131500 0.472300
C493 C 1.229620 -0.077200 0.375300
H494 H 1.278500 -0.096300 0.360200
H495 H 1.212600 0.006900 0.352300
C496 C 1.182320 -0.198300 0.357870
H497 H 1.181600 -0.210400 0.309300
H498 H 1.201900 -0.283900 0.377600
C499 C 1.106880 -0.176800 0.382650
H500 H 1.078300 -0.260300 0.373000
H501 H 1.085200 -0.097600 0.359100
C502 C 1.105940 -0.149000 0.456450
H503 H 1.057000 -0.126200 0.470200
H504 H 1.120400 -0.234000 0.480100
Cu505 Cu 0.428914 -0.125710 0.397625
O506 O 0.532590 -0.109000 0.437860
O507 O 0.588830 -0.014490 0.523860
N508 N 0.412130 -0.000610 0.260960
N509 N 0.373200 -0.400980 0.450400
C510 C 0.535350 -0.035100 0.489220
C511 C 0.420630 -0.045100 0.313330
C512 C 0.394680 0.050200 0.195370
H513 H 0.419600 -0.008700 0.162100
C514 C 0.419740 0.199300 0.186990
H515 H 0.398200 0.258100 0.221600
H516 H 0.471900 0.203600 0.192000
C517 C 0.398760 0.253200 0.119120
H518 H 0.424400 0.200400 0.084700
H519 H 0.412700 0.351700 0.115200
C520 C 0.319090 0.239600 0.107880
H521 H 0.293500 0.299400 0.139600
H522 H 0.307300 0.271300 0.062700
C523 C 0.295030 0.090000 0.116610
H524 H 0.243000 0.084400 0.111000
H525 H 0.317300 0.031400 0.082300
C526 C 0.315210 0.035700 0.184840
H527 H 0.289500 0.088500 0.219200
H528 H 0.301400 -0.062900 0.188700
C529 C 0.394050 -0.299000 0.428540
C530 C 0.345050 -0.531000 0.475980
H531 H 0.343100 -0.525500 0.525200
C532 C 0.270160 -0.551600 0.449660
H533 H 0.241400 -0.468400 0.459500
H534 H 0.248000 -0.631500 0.472300
C535 C 0.270380 -0.577200 0.375300
H536 H 0.221500 -0.596300 0.360200
H537 H 0.287400 -0.493100 0.352300
C538 C 0.317680 -0.698300 0.357870
H539 H 0.318400 -0.710400 0.309300
H540 H 0.298100 -0.783900 0.377600
C541 C 0.393120 -0.676800 0.382650
H542 H 0.421700 -0.760300 0.373000
H543 H 0.414800 -0.597600 0.359100
C544 C 0.394060 -0.649000 0.456450
H545 H 0.443000 -0.626200 0.470200
H546 H 0.379600 -0.734000 0.480100
O547 O 0.467410 0.109000 0.562140
C548 C 0.464650 0.035100 0.510780
O549 O 0.411170 0.014490 0.476140
Cu550 Cu 0.571086 0.125710 0.602375
N551 N 0.587870 0.000610 0.739040
N552 N 0.626800 0.400980 0.549600
C553 C 0.579370 0.045100 0.686670
C554 C 0.605320 -0.050200 0.804630
H555 H 0.580400 0.008700 0.837900
C556 C 0.580260 -0.199300 0.813010
H557 H 0.601800 -0.258100 0.778400
H558 H 0.528100 -0.203600 0.808000
C559 C 0.601240 -0.253200 0.880880
H560 H 0.575600 -0.200400 0.915300
H561 H 0.587300 -0.351700 0.884800
C562 C 0.680910 -0.239600 0.892120
H563 H 0.706500 -0.299400 0.860400
H564 H 0.692700 -0.271300 0.937300
C565 C 0.704970 -0.090000 0.883390
H566 H 0.757000 -0.084400 0.889000
H567 H 0.682700 -0.031400 0.917700
C568 C 0.684790 -0.035700 0.815160
H569 H 0.710500 -0.088500 0.780800
H570 H 0.698600 0.062900 0.811300
C571 C 0.605950 0.299000 0.571460
C572 C 0.654950 0.531000 0.524020
H573 H 0.656900 0.525500 0.474800
C574 C 0.729840 0.551600 0.550340
H575 H 0.758600 0.468400 0.540500
H576 H 0.752000 0.631500 0.527700
C577 C 0.729620 0.577200 0.624700
H578 H 0.778500 0.596300 0.639800
H579 H 0.712600 0.493100 0.647700
C580 C 0.682320 0.698300 0.642130
H581 H 0.681600 0.710400 0.690700
H582 H 0.701900 0.783900 0.622400
C583 C 0.606880 0.676800 0.617350
H584 H 0.578300 0.760300 0.627000
H585 H 0.585200 0.597600 0.640900
C586 C 0.605940 0.649000 0.543550
H587 H 0.557000 0.626200 0.529800
H588 H 0.620400 0.734000 0.519900
Cu589 Cu 0.428914 0.874290 0.397625
O590 O 0.532590 0.891000 0.437860
O591 O 0.588830 0.985510 0.523860
N592 N 0.412130 0.999390 0.260960
N593 N 0.373200 0.599020 0.450400
C594 C 0.535350 0.964900 0.489220
C595 C 0.420630 0.954900 0.313330
C596 C 0.394680 1.050200 0.195370
H597 H 0.419600 0.991300 0.162100
C598 C 0.419740 1.199300 0.186990
H599 H 0.398200 1.258100 0.221600
H600 H 0.471900 1.203600 0.192000
C601 C 0.398760 1.253200 0.119120
H602 H 0.424400 1.200400 0.084700
H603 H 0.412700 1.351700 0.115200
C604 C 0.319090 1.239600 0.107880
H605 H 0.293500 1.299400 0.139600
H606 H 0.307300 1.271300 0.062700
C607 C 0.295030 1.090000 0.116610
H608 H 0.243000 1.084400 0.111000
H609 H 0.317300 1.031400 0.082300
C610 C 0.315210 1.035700 0.184840
H611 H 0.289500 1.088500 0.219200
H612 H 0.301400 0.937100 0.188700
C613 C 0.394050 0.701000 0.428540
C614 C 0.345050 0.469000 0.475980
H615 H 0.343100 0.474500 0.525200
C616 C 0.270160 0.448400 0.449660
H617 H 0.241400 0.531600 0.459500
H618 H 0.248000 0.368500 0.472300
C619 C 0.270380 0.422800 0.375300
H620 H 0.221500 0.403700 0.360200
H621 H 0.287400 0.506900 0.352300
C622 C 0.317680 0.301700 0.357870
H623 H 0.318400 0.289600 0.309300
H624 H 0.298100 0.216100 0.377600
C625 C 0.393120 0.323200 0.382650
H626 H 0.421700 0.239700 0.373000
H627 H 0.414800 0.402400 0.359100
C628 C 0.394060 0.351000 0.456450
H629 H 0.443000 0.373800 0.470200
H630 H 0.379600 0.266000 0.480100
O631 O 0.467410 1.109000 0.562140
C632 C 0.464650 1.035100 0.510780
O633 O 0.411170 1.014490 0.476140
Cu634 Cu 0.571086 1.125710 0.602375
N635 N 0.587870 1.000610 0.739040
N636 N 0.626800 1.400980 0.549600
C637 C 0.579370 1.045100 0.686670
C638 C 0.605320 0.949800 0.804630
H639 H 0.580400 1.008700 0.837900
C640 C 0.580260 0.800700 0.813010
H641 H 0.601800 0.741900 0.778400
H642 H 0.528100 0.796400 0.808000
C643 C 0.601240 0.746800 0.880880
H644 H 0.575600 0.799600 0.915300
H645 H 0.587300 0.648300 0.884800
C646 C 0.680910 0.760400 0.892120
H647 H 0.706500 0.700600 0.860400
H648 H 0.692700 0.728700 0.937300
C649 C 0.704970 0.910000 0.883390
H650 H 0.757000 0.915600 0.889000
H651 H 0.682700 0.968600 0.917700
C652 C 0.684790 0.964300 0.815160
H653 H 0.710500 0.911500 0.780800
H654 H 0.698600 1.062900 0.811300
C655 C 0.605950 1.299000 0.571460
C656 C 0.654950 1.531000 0.524020
H657 H 0.656900 1.525500 0.474800
C658 C 0.729840 1.551600 0.550340
H659 H 0.758600 1.468400 0.540500
H660 H 0.752000 1.631500 0.527700
C661 C 0.729620 1.577200 0.624700
H662 H 0.778500 1.596300 0.639800
H663 H 0.712600 1.493100 0.647700
C664 C 0.682320 1.698300 0.642130
H665 H 0.681600 1.710400 0.690700
H666 H 0.701900 1.783900 0.622400
C667 C 0.606880 1.676800 0.617350
H668 H 0.578300 1.760300 0.627000
H669 H 0.585200 1.597600 0.640900
C670 C 0.605940 1.649000 0.543550
H671 H 0.557000 1.626200 0.529800
H672 H 0.620400 1.734000 0.519900
Cu673 Cu 0.071086 0.625710 -0.102375
O674 O -0.032590 0.609000 -0.062140
O675 O -0.088830 0.514490 0.023860
N676 N 0.087870 0.500610 -0.239040
N677 N 0.126800 0.900980 -0.049600
C678 C -0.035350 0.535100 -0.010780
C679 C 0.079370 0.545100 -0.186670
C680 C 0.105320 0.449800 -0.304630
H681 H 0.080400 0.508700 -0.337900
C682 C 0.080260 0.300700 -0.313010
H683 H 0.101800 0.241900 -0.278400
H684 H 0.028100 0.296400 -0.308000
C685 C 0.101240 0.246800 -0.380880
H686 H 0.075600 0.299600 -0.415300
H687 H 0.087300 0.148300 -0.384800
C688 C 0.180910 0.260400 -0.392120
H689 H 0.206500 0.200600 -0.360400
H690 H 0.192700 0.228700 -0.437300
C691 C 0.204970 0.410000 -0.383390
H692 H 0.257000 0.415600 -0.389000
H693 H 0.182700 0.468600 -0.417700
C694 C 0.184790 0.464300 -0.315160
H695 H 0.210500 0.411500 -0.280800
H696 H 0.198600 0.562900 -0.311300
C697 C 0.105950 0.799000 -0.071460
C698 C 0.154950 1.031000 -0.024020
H699 H 0.156900 1.025500 0.025200
C700 C 0.229840 1.051600 -0.050340
H701 H 0.258600 0.968400 -0.040500
H702 H 0.252000 1.131500 -0.027700
C703 C 0.229620 1.077200 -0.124700
H704 H 0.278500 1.096300 -0.139800
H705 H 0.212600 0.993100 -0.147700
C706 C 0.182320 1.198300 -0.142130
H707 H 0.181600 1.210400 -0.190700
H708 H 0.201900 1.283900 -0.122400
C709 C 0.106880 1.176800 -0.117350
H710 H 0.078300 1.260300 -0.127000
H711 H 0.085200 1.097600 -0.140900
C712 C 0.105940 1.149000 -0.043550
H713 H 0.057000 1.126200 -0.029800
H714 H 0.120400 1.234000 -0.019900
O715 O 0.032590 0.391000 0.062140
C716 C 0.035350 0.464900 0.010780
O717 O 0.088830 0.485510 -0.023860
Cu718 Cu -0.071086 0.374290 0.102375
N719 N -0.087870 0.499390 0.239040
N720 N -0.126800 0.099020 0.049600
C721 C -0.079370 0.454900 0.186670
C722 C -0.105320 0.550200 0.304630
H723 H -0.080400 0.491300 0.337900
C724 C -0.080260 0.699300 0.313010
H725 H -0.101800 0.758100 0.278400
H726 H -0.028100 0.703600 0.308000
C727 C -0.101240 0.753200 0.380880
H728 H -0.075600 0.700400 0.415300
H729 H -0.087300 0.851700 0.384800
C730 C -0.180910 0.739600 0.392120
H731 H -0.206500 0.799400 0.360400
H732 H -0.192700 0.771300 0.437300
C733 C -0.204970 0.590000 0.383390
H734 H -0.257000 0.584400 0.389000
H735 H -0.182700 0.531400 0.417700
C736 C -0.184790 0.535700 0.315160
H737 H -0.210500 0.588500 0.280800
H738 H -0.198600 0.437100 0.311300
C739 C -0.105950 0.201000 0.071460
C740 C -0.154950 -0.031000 0.024020
H741 H -0.156900 -0.025500 -0.025200
C742 C -0.229840 -0.051600 0.050340
H743 H -0.258600 0.031600 0.040500
H744 H -0.252000 -0.131500 0.027700
C745 C -0.229620 -0.077200 0.124700
H746 H -0.278500 -0.096300 0.139800
H747 H -0.212600 0.006900 0.147700
C748 C -0.182320 -0.198300 0.142130
H749 H -0.181600 -0.210400 0.190700
H750 H -0.201900 -0.283900 0.122400
C751 C -0.106880 -0.176800 0.117350
H752 H -0.078300 -0.260300 0.127000
H753 H -0.085200 -0.097600 0.140900
C754 C -0.105940 -0.149000 0.043550
H755 H -0.057000 -0.126200 0.029800
H756 H -0.120400 -0.234000 0.019900
Cu757 Cu 0.071086 0.625710 0.897625
O758 O -0.032590 0.609000 0.937860
O759 O -0.088830 0.514490 1.023860
N760 N 0.087870 0.500610 0.760960
N761 N 0.126800 0.900980 0.950400
C762 C -0.035350 0.535100 0.989220
C763 C 0.079370 0.545100 0.813330
C764 C 0.105320 0.449800 0.695370
H765 H 0.080400 0.508700 0.662100
C766 C 0.080260 0.300700 0.686990
H767 H 0.101800 0.241900 0.721600
H768 H 0.028100 0.296400 0.692000
C769 C 0.101240 0.246800 0.619120
H770 H 0.075600 0.299600 0.584700
H771 H 0.087300 0.148300 0.615200
C772 C 0.180910 0.260400 0.607880
H773 H 0.206500 0.200600 0.639600
H774 H 0.192700 0.228700 0.562700
C775 C 0.204970 0.410000 0.616610
H776 H 0.257000 0.415600 0.611000
H777 H 0.182700 0.468600 0.582300
C778 C 0.184790 0.464300 0.684840
H779 H 0.210500 0.411500 0.719200
H780 H 0.198600 0.562900 0.688700
C781 C 0.105950 0.799000 0.928540
C782 C 0.154950 1.031000 0.975980
H783 H 0.156900 1.025500 1.025200
C784 C 0.229840 1.051600 0.949660
H785 H 0.258600 0.968400 0.959500
H786 H 0.252000 1.131500 0.972300
C787 C 0.229620 1.077200 0.875300
H788 H 0.278500 1.096300 0.860200
H789 H 0.212600 0.993100 0.852300
C790 C 0.182320 1.198300 0.857870
H791 H 0.181600 1.210400 0.809300
H792 H 0.201900 1.283900 0.877600
C793 C 0.106880 1.176800 0.882650
H794 H 0.078300 1.260300 0.873000
H795 H 0.085200 1.097600 0.859100
C796 C 0.105940 1.149000 0.956450
H797 H 0.057000 1.126200 0.970200
H798 H 0.120400 1.234000 0.980100
O799 O 0.032590 0.391000 1.062140
C800 C 0.035350 0.464900 1.010780
O801 O 0.088830 0.485510 0.976140
Cu802 Cu -0.071086 0.374290 1.102375
N803 N -0.087870 0.499390 1.239040
N804 N -0.126800 0.099020 1.049600
C805 C -0.079370 0.454900 1.186670
C806 C -0.105320 0.550200 1.304630
H807 H -0.080400 0.491300 1.337900
C808 C -0.080260 0.699300 1.313010
H809 H -0.101800 0.758100 1.278400
H810 H -0.028100 0.703600 1.308000
C811 C -0.101240 0.753200 1.380880
H812 H -0.075600 0.700400 1.415300
H813 H -0.087300 0.851700 1.384800
C814 C -0.180910 0.739600 1.392120
H815 H -0.206500 0.799400 1.360400
H816 H -0.192700 0.771300 1.437300
C817 C -0.204970 0.590000 1.383390
H818 H -0.257000 0.584400 1.389000
H819 H -0.182700 0.531400 1.417700
C820 C -0.184790 0.535700 1.315160
H821 H -0.210500 0.588500 1.280800
H822 H -0.198600 0.437100 1.311300
C823 C -0.105950 0.201000 1.071460
C824 C -0.154950 -0.031000 1.024020
H825 H -0.156900 -0.025500 0.974800
C826 C -0.229840 -0.051600 1.050340
H827 H -0.258600 0.031600 1.040500
H828 H -0.252000 -0.131500 1.027700
C829 C -0.229620 -0.077200 1.124700
H830 H -0.278500 -0.096300 1.139800
H831 H -0.212600 0.006900 1.147700
C832 C -0.182320 -0.198300 1.142130
H833 H -0.181600 -0.210400 1.190700
H834 H -0.201900 -0.283900 1.122400
C835 C -0.106880 -0.176800 1.117350
H836 H -0.078300 -0.260300 1.127000
H837 H -0.085200 -0.097600 1.140900
C838 C -0.105940 -0.149000 1.043550
H839 H -0.057000 -0.126200 1.029800
H840 H -0.120400 -0.234000 1.019900
Cu841 Cu 1.071086 0.625710 -0.102375
O842 O 0.967410 0.609000 -0.062140
O843 O 0.911170 0.514490 0.023860
N844 N 1.087870 0.500610 -0.239040
N845 N 1.126800 0.900980 -0.049600
C846 C 0.964650 0.535100 -0.010780
C847 C 1.079370 0.545100 -0.186670
C848 C 1.105320 0.449800 -0.304630
H849 H 1.080400 0.508700 -0.337900
C850 C 1.080260 0.300700 -0.313010
H851 H 1.101800 0.241900 -0.278400
H852 H 1.028100 0.296400 -0.308000
C853 C 1.101240 0.246800 -0.380880
H854 H 1.075600 0.299600 -0.415300
H855 H 1.087300 0.148300 -0.384800
C856 C 1.180910 0.260400 -0.392120
H857 H 1.206500 0.200600 -0.360400
H858 H 1.192700 0.228700 -0.437300
C859 C 1.204970 0.410000 -0.383390
H860 H 1.257000 0.415600 -0.389000
H861 H 1.182700 0.468600 -0.417700
C862 C 1.184790 0.464300 -0.315160
H863 H 1.210500 0.411500 -0.280800
H864 H 1.198600 0.562900 -0.311300
C865 C 1.105950 0.799000 -0.071460
C866 C 1.154950 1.031000 -0.024020
H867 H 1.156900 1.025500 0.025200
C868 C 1.229840 1.051600 -0.050340
H869 H 1.258600 0.968400 -0.040500
H870 H 1.252000 1.131500 -0.027700
C871 C 1.229620 1.077200 -0.124700
H872 H 1.278500 1.096300 -0.139800
H873 H 1.212600 0.993100 -0.147700
C874 C 1.182320 1.198300 -0.142130
H875 H 1.181600 1.210400 -0.190700
H876 H 1.201900 1.283900 -0.122400
C877 C 1.106880 1.176800 -0.117350
H878 H 1.078300 1.260300 -0.127000
H879 H 1.085200 1.097600 -0.140900
C880 C 1.105940 1.149000 -0.043550
H881 H 1.057000 1.126200 -0.029800
H882 H 1.120400 1.234000 -0.019900
O883 O 1.032590 0.391000 0.062140
C884 C 1.035350 0.464900 0.010780
O885 O 1.088830 0.485510 -0.023860
Cu886 Cu 0.928914 0.374290 0.102375
N887 N 0.912130 0.499390 0.239040
N888 N 0.873200 0.099020 0.049600
C889 C 0.920630 0.454900 0.186670
C890 C 0.894680 0.550200 0.304630
H891 H 0.919600 0.491300 0.337900
C892 C 0.919740 0.699300 0.313010
H893 H 0.898200 0.758100 0.278400
H894 H 0.971900 0.703600 0.308000
C895 C 0.898760 0.753200 0.380880
H896 H 0.924400 0.700400 0.415300
H897 H 0.912700 0.851700 0.384800
C898 C 0.819090 0.739600 0.392120
H899 H 0.793500 0.799400 0.360400
H900 H 0.807300 0.771300 0.437300
C901 C 0.795030 0.590000 0.383390
H902 H 0.743000 0.584400 0.389000
H903 H 0.817300 0.531400 0.417700
C904 C 0.815210 0.535700 0.315160
H905 H 0.789500 0.588500 0.280800
H906 H 0.801400 0.437100 0.311300
C907 C 0.894050 0.201000 0.071460
C908 C 0.845050 -0.031000 0.024020
H909 H 0.843100 -0.025500 -0.025200
C910 C 0.770160 -0.051600 0.050340
H911 H 0.741400 0.031600 0.040500
H912 H 0.748000 -0.131500 0.027700
C913 C 0.770380 -0.077200 0.124700
H914 H 0.721500 -0.096300 0.139800
H915 H 0.787400 0.006900 0.147700
C916 C 0.817680 -0.198300 0.142130
H917 H 0.818400 -0.210400 0.190700
H918 H 0.798100 -0.283900 0.122400
C919 C 0.893120 -0.176800 0.117350
H920 H 0.921700 -0.260300 0.127000
H921 H 0.914800 -0.097600 0.140900
C922 C 0.894060 -0.149000 0.043550
H923 H 0.943000 -0.126200 0.029800
H924 H 0.879600 -0.234000 0.019900
Cu925 Cu 1.071086 0.625710 0.897625
O926 O 0.967410 0.609000 0.937860
O927 O 0.911170 0.514490 1.023860
N928 N 1.087870 0.500610 0.760960
N929 N 1.126800 0.900980 0.950400
C930 C 0.964650 0.535100 0.989220
C931 C 1.079370 0.545100 0.813330
C932 C 1.105320 0.449800 0.695370
H933 H 1.080400 0.508700 0.662100
C934 C 1.080260 0.300700 0.686990
H935 H 1.101800 0.241900 0.721600
H936 H 1.028100 0.296400 0.692000
C937 C 1.101240 0.246800 0.619120
H938 H 1.075600 0.299600 0.584700
H939 H 1.087300 0.148300 0.615200
C940 C 1.180910 0.260400 0.607880
H941 H 1.206500 0.200600 0.639600
H942 H 1.192700 0.228700 0.562700
C943 C 1.204970 0.410000 0.616610
H944 H 1.257000 0.415600 0.611000
H945 H 1.182700 0.468600 0.582300
C946 C 1.184790 0.464300 0.684840
H947 H 1.210500 0.411500 0.719200
H948 H 1.198600 0.562900 0.688700
C949 C 1.105950 0.799000 0.928540
C950 C 1.154950 1.031000 0.975980
H951 H 1.156900 1.025500 1.025200
C952 C 1.229840 1.051600 0.949660
H953 H 1.258600 0.968400 0.959500
H954 H 1.252000 1.131500 0.972300
C955 C 1.229620 1.077200 0.875300
H956 H 1.278500 1.096300 0.860200
H957 H 1.212600 0.993100 0.852300
C958 C 1.182320 1.198300 0.857870
H959 H 1.181600 1.210400 0.809300
H960 H 1.201900 1.283900 0.877600
C961 C 1.106880 1.176800 0.882650
H962 H 1.078300 1.260300 0.873000
H963 H 1.085200 1.097600 0.859100
C964 C 1.105940 1.149000 0.956450
H965 H 1.057000 1.126200 0.970200
H966 H 1.120400 1.234000 0.980100
O967 O 1.032590 0.391000 1.062140
C968 C 1.035350 0.464900 1.010780
O969 O 1.088830 0.485510 0.976140
Cu970 Cu 0.928914 0.374290 1.102375
N971 N 0.912130 0.499390 1.239040
N972 N 0.873200 0.099020 1.049600
C973 C 0.920630 0.454900 1.186670
C974 C 0.894680 0.550200 1.304630
H975 H 0.919600 0.491300 1.337900
C976 C 0.919740 0.699300 1.313010
H977 H 0.898200 0.758100 1.278400
H978 H 0.971900 0.703600 1.308000
C979 C 0.898760 0.753200 1.380880
H980 H 0.924400 0.700400 1.415300
H981 H 0.912700 0.851700 1.384800
C982 C 0.819090 0.739600 1.392120
H983 H 0.793500 0.799400 1.360400
H984 H 0.807300 0.771300 1.437300
C985 C 0.795030 0.590000 1.383390
H986 H 0.743000 0.584400 1.389000
H987 H 0.817300 0.531400 1.417700
C988 C 0.815210 0.535700 1.315160
H989 H 0.789500 0.588500 1.280800
H990 H 0.801400 0.437100 1.311300
C991 C 0.894050 0.201000 1.071460
C992 C 0.845050 -0.031000 1.024020
H993 H 0.843100 -0.025500 0.974800
C994 C 0.770160 -0.051600 1.050340
H995 H 0.741400 0.031600 1.040500
H996 H 0.748000 -0.131500 1.027700
C997 C 0.770380 -0.077200 1.124700
H998 H 0.721500 -0.096300 1.139800
H999 H 0.787400 0.006900 1.147700
C1000 C 0.817680 -0.198300 1.142130
H1001 H 0.818400 -0.210400 1.190700
H1002 H 0.798100 -0.283900 1.122400
C1003 C 0.893120 -0.176800 1.117350
H1004 H 0.921700 -0.260300 1.127000
H1005 H 0.914800 -0.097600 1.140900
C1006 C 0.894060 -0.149000 1.043550
H1007 H 0.943000 -0.126200 1.029800
H1008 H 0.879600 -0.234000 1.019900
O1009 O 0.619160 0.700400 0.375750
H1010 H 0.595400 0.755000 0.400200
C1011 C 0.572380 0.655800 0.325690
H1012 H 0.543300 0.734400 0.310000
H1013 H 0.540300 0.583400 0.343000
C1014 C 0.616090 0.598800 0.269930
H1015 H 0.584700 0.563500 0.235300
H1016 H 0.646000 0.523300 0.286400
H1017 H 0.646100 0.672300 0.251800
O1018 O 0.880840 0.799600 0.875750
H1019 H 0.904600 0.745000 0.900200
C1020 C 0.927620 0.844200 0.825690
H1021 H 0.956700 0.765600 0.810000
H1022 H 0.959700 0.916600 0.843000
C1023 C 0.883910 0.901200 0.769930
H1024 H 0.915300 0.936500 0.735300
H1025 H 0.854000 0.976700 0.786400
H1026 H 0.853900 0.827700 0.751800
O1027 O 0.380840 0.700400 0.124250
H1028 H 0.404600 0.755000 0.099800
C1029 C 0.427620 0.655800 0.174310
H1030 H 0.456700 0.734400 0.190000
H1031 H 0.459700 0.583400 0.157000
C1032 C 0.383910 0.598800 0.230070
H1033 H 0.415300 0.563500 0.264700
H1034 H 0.354000 0.523300 0.213600
H1035 H 0.353900 0.672300 0.248200
O1036 O 0.119160 0.799600 0.624250
H1037 H 0.095400 0.745000 0.599800
C1038 C 0.072380 0.844200 0.674310
H1039 H 0.043300 0.765600 0.690000
H1040 H 0.040300 0.916600 0.657000
C1041 C 0.116090 0.901200 0.730070
H1042 H 0.084700 0.936500 0.764700
H1043 H 0.146000 0.976700 0.713600
H1044 H 0.146100 0.827700 0.748200
O1045 O 0.380840 0.299600 0.624250
H1046 H 0.404600 0.245000 0.599800
C1047 C 0.427620 0.344200 0.674310
H1048 H 0.456700 0.265600 0.690000
H1049 H 0.459700 0.416600 0.657000
C1050 C 0.383910 0.401200 0.730070
H1051 H 0.415300 0.436500 0.764700
H1052 H 0.354000 0.476700 0.713600
H1053 H 0.353900 0.327700 0.748200
O1054 O 0.119160 0.200400 0.124250
H1055 H 0.095400 0.255000 0.099800
C1056 C 0.072380 0.155800 0.174310
H1057 H 0.043300 0.234400 0.190000
H1058 H 0.040300 0.083400 0.157000
C1059 C 0.116090 0.098800 0.230070
H1060 H 0.084700 0.063500 0.264700
H1061 H 0.146000 0.023300 0.213600
H1062 H 0.146100 0.172300 0.248200
O1063 O 0.619160 0.299600 0.875750
H1064 H 0.595400 0.245000 0.900200
C1065 C 0.572380 0.344200 0.825690
H1066 H 0.543300 0.265600 0.810000
H1067 H 0.540300 0.416600 0.843000
C1068 C 0.616090 0.401200 0.769930
H1069 H 0.584700 0.436500 0.735300
H1070 H 0.646000 0.476700 0.786400
H1071 H 0.646100 0.327700 0.751800
O1072 O 0.880840 0.200400 0.375750
H1073 H 0.904600 0.255000 0.400200
C1074 C 0.927620 0.155800 0.325690
H1075 H 0.956700 0.234400 0.310000
H1076 H 0.959700 0.083400 0.343000
C1077 C 0.883910 0.098800 0.269930
H1078 H 0.915300 0.063500 0.235300
H1079 H 0.854000 0.023300 0.286400
H1080 H 0.853900 0.172300 0.251800

#END
