./ABAGEQ_from_xyz.cif_generated_by_CrystalShift
_symmetry_cell_setting triclinic
_symmetry_space_group_name_H-M 'P 1'
loop_
_symmetry_equiv_pos_site_id
_symmetry_equiv_pos_as_xyz
1 x,y,z
_cell_length_a 12.278400
_cell_length_b 14.849800
_cell_length_c 14.488300
_cell_angle_alpha 90.000000
_cell_angle_beta 102.044000
_cell_angle_gamma 90.000000
_cell_volume 2583.527973
loop_
_atom_site_label
_atom_site_type_symbol
_atom_site_fract_x
_atom_site_fract_y
_atom_site_fract_z
Ca1 Ca 0.503490 0.087430 0.415330
N2 N 0.638900 0.131700 0.336900
O3 O 0.561500 0.054370 0.571250
Si4 Si 0.586260 0.192980 0.239010
Si5 Si 0.780980 0.109110 0.376870
C6 C 0.860900 0.099400 0.279400
H7 H 0.938300 0.082800 0.306300
H8 H 0.859400 0.157400 0.246800
H9 H 0.826700 0.053100 0.234400
C10 C 0.858100 0.194300 0.461300
H11 H 0.858200 0.252300 0.429000
H12 H 0.935000 0.174100 0.484100
H13 H 0.821400 0.201100 0.514800
C14 C 0.784700 -0.009400 0.435300
H15 H 0.738200 -0.008900 0.482700
H16 H 0.861500 -0.024300 0.465800
H17 H 0.756300 -0.054500 0.386900
C18 C 0.622500 0.107700 0.637900
C19 C 0.650600 0.192200 0.621900
H20 H 0.627500 0.217900 0.560900
H21 H 0.693800 0.226700 0.671600
C22 C 0.657200 0.065600 0.734200
C23 C 0.762800 0.026700 0.762300
C24 C 0.791500 -0.014200 0.849500
H25 H 0.862200 -0.042400 0.867100
C26 C 0.720000 -0.015400 0.912300
C27 C 0.616900 0.025800 0.884500
H28 H 0.567900 0.027100 0.927200
C29 C 0.582800 0.065100 0.796100
C30 C 0.846800 0.030400 0.698800
H31 H 0.874500 0.092200 0.697000
H32 H 0.810900 0.011500 0.634900
H33 H 0.909200 -0.010000 0.723600
C34 C 0.754200 -0.060600 1.006500
H35 H 0.757700 -0.125900 0.997500
H36 H 0.699600 -0.047100 1.045200
H37 H 0.827600 -0.038400 1.038300
C38 C 0.468600 0.106700 0.768600
H39 H 0.415400 0.061200 0.737800
H40 H 0.470600 0.156700 0.724900
H41 H 0.445500 0.129100 0.825200
O42 O 0.338800 0.177500 0.430000
C43 C 0.356900 0.225900 0.518300
H44 H 0.415800 0.195100 0.564700
H45 H 0.287600 0.224800 0.543100
C46 C 0.391500 0.323900 0.507700
H47 H 0.331200 0.355800 0.465400
H48 H 0.458700 0.325300 0.481200
H49 H 0.406900 0.353100 0.569700
C50 C 0.240700 0.207100 0.361600
H51 H 0.231200 0.167600 0.305400
H52 H 0.254000 0.269000 0.341100
C53 C 0.135700 0.206500 0.397100
H54 H 0.129300 0.149300 0.429400
H55 H 0.072200 0.213200 0.343900
H56 H 0.136300 0.256400 0.441300
C57 C 0.432100 0.203100 0.227800
H58 H 0.399800 0.143100 0.230500
H59 H 0.399200 0.231600 0.167300
H60 H 0.416500 0.240100 0.279600
C61 C 0.641300 0.310800 0.242200
H62 H 0.624500 0.342500 0.296900
H63 H 0.606000 0.342400 0.184300
H64 H 0.722100 0.309200 0.247100
C65 C 0.605400 0.142900 0.124200
H66 H 0.681800 0.153600 0.116700
H67 H 0.553000 0.171000 0.071800
H68 H 0.591400 0.077900 0.124400
Ca69 Ca 0.496510 -0.087430 0.584670
N70 N 0.361100 -0.131700 0.663100
Si71 Si 0.413740 -0.192980 0.760990
C72 C 0.567900 -0.203100 0.772200
H73 H 0.600200 -0.143100 0.769500
H74 H 0.600800 -0.231600 0.832700
H75 H 0.583500 -0.240100 0.720400
C76 C 0.358700 -0.310800 0.757800
H77 H 0.375500 -0.342500 0.703100
H78 H 0.394000 -0.342400 0.815700
H79 H 0.277900 -0.309200 0.752900
C80 C 0.394600 -0.142900 0.875800
H81 H 0.318200 -0.153600 0.883300
H82 H 0.447000 -0.171000 0.928200
H83 H 0.408600 -0.077900 0.875600
Si84 Si 0.219020 -0.109110 0.623130
C85 C 0.139100 -0.099400 0.720600
H86 H 0.061700 -0.082800 0.693700
H87 H 0.140600 -0.157400 0.753200
H88 H 0.173300 -0.053100 0.765600
C89 C 0.141900 -0.194300 0.538700
H90 H 0.141800 -0.252300 0.571000
H91 H 0.065000 -0.174100 0.515900
H92 H 0.178600 -0.201100 0.485200
C93 C 0.215300 0.009400 0.564700
H94 H 0.261800 0.008900 0.517300
H95 H 0.138500 0.024300 0.534200
H96 H 0.243700 0.054500 0.613100
O97 O 0.438500 -0.054370 0.428750
C98 C 0.377500 -0.107700 0.362100
C99 C 0.349400 -0.192200 0.378100
H100 H 0.372500 -0.217900 0.439100
H101 H 0.306200 -0.226700 0.328400
C102 C 0.342800 -0.065600 0.265800
C103 C 0.237200 -0.026700 0.237700
C104 C 0.208500 0.014200 0.150500
H105 H 0.137800 0.042400 0.132900
C106 C 0.280000 0.015400 0.087700
C107 C 0.383100 -0.025800 0.115500
H108 H 0.432100 -0.027100 0.072800
C109 C 0.417200 -0.065100 0.203900
C110 C 0.531400 -0.106700 0.231400
H111 H 0.584600 -0.061200 0.262200
H112 H 0.529400 -0.156700 0.275100
H113 H 0.554500 -0.129100 0.174800
C114 C 0.245800 0.060600 -0.006500
H115 H 0.242300 0.125900 0.002500
H116 H 0.300400 0.047100 -0.045200
H117 H 0.172400 0.038400 -0.038300
C118 C 0.153200 -0.030400 0.301200
H119 H 0.125500 -0.092200 0.303000
H120 H 0.189100 -0.011500 0.365100
H121 H 0.090800 0.010000 0.276400
O122 O 0.661200 -0.177500 0.570000
C123 C 0.643100 -0.225900 0.481700
H124 H 0.584200 -0.195100 0.435300
H125 H 0.712400 -0.224800 0.456900
C126 C 0.608500 -0.323900 0.492300
H127 H 0.668800 -0.355800 0.534600
H128 H 0.541300 -0.325300 0.518800
H129 H 0.593100 -0.353100 0.430300
C130 C 0.759300 -0.207100 0.638400
H131 H 0.768800 -0.167600 0.694600
H132 H 0.746000 -0.269000 0.658900
C133 C 0.864300 -0.206500 0.602900
H134 H 0.870700 -0.149300 0.570600
H135 H 0.927800 -0.213200 0.656100
H136 H 0.863700 -0.256400 0.558700
Ca137 Ca 0.503490 1.087430 0.415330
N138 N 0.638900 1.131700 0.336900
O139 O 0.561500 1.054370 0.571250
Si140 Si 0.586260 1.192980 0.239010
Si141 Si 0.780980 1.109110 0.376870
C142 C 0.860900 1.099400 0.279400
H143 H 0.938300 1.082800 0.306300
H144 H 0.859400 1.157400 0.246800
H145 H 0.826700 1.053100 0.234400
C146 C 0.858100 1.194300 0.461300
H147 H 0.858200 1.252300 0.429000
H148 H 0.935000 1.174100 0.484100
H149 H 0.821400 1.201100 0.514800
C150 C 0.784700 0.990600 0.435300
H151 H 0.738200 0.991100 0.482700
H152 H 0.861500 0.975700 0.465800
H153 H 0.756300 0.945500 0.386900
C154 C 0.622500 1.107700 0.637900
C155 C 0.650600 1.192200 0.621900
H156 H 0.627500 1.217900 0.560900
H157 H 0.693800 1.226700 0.671600
C158 C 0.657200 1.065600 0.734200
C159 C 0.762800 1.026700 0.762300
C160 C 0.791500 0.985800 0.849500
H161 H 0.862200 0.957600 0.867100
C162 C 0.720000 0.984600 0.912300
C163 C 0.616900 1.025800 0.884500
H164 H 0.567900 1.027100 0.927200
C165 C 0.582800 1.065100 0.796100
C166 C 0.846800 1.030400 0.698800
H167 H 0.874500 1.092200 0.697000
H168 H 0.810900 1.011500 0.634900
H169 H 0.909200 0.990000 0.723600
C170 C 0.754200 0.939400 1.006500
H171 H 0.757700 0.874100 0.997500
H172 H 0.699600 0.952900 1.045200
H173 H 0.827600 0.961600 1.038300
C174 C 0.468600 1.106700 0.768600
H175 H 0.415400 1.061200 0.737800
H176 H 0.470600 1.156700 0.724900
H177 H 0.445500 1.129100 0.825200
O178 O 0.338800 1.177500 0.430000
C179 C 0.356900 1.225900 0.518300
H180 H 0.415800 1.195100 0.564700
H181 H 0.287600 1.224800 0.543100
C182 C 0.391500 1.323900 0.507700
H183 H 0.331200 1.355800 0.465400
H184 H 0.458700 1.325300 0.481200
H185 H 0.406900 1.353100 0.569700
C186 C 0.240700 1.207100 0.361600
H187 H 0.231200 1.167600 0.305400
H188 H 0.254000 1.269000 0.341100
C189 C 0.135700 1.206500 0.397100
H190 H 0.129300 1.149300 0.429400
H191 H 0.072200 1.213200 0.343900
H192 H 0.136300 1.256400 0.441300
C193 C 0.432100 1.203100 0.227800
H194 H 0.399800 1.143100 0.230500
H195 H 0.399200 1.231600 0.167300
H196 H 0.416500 1.240100 0.279600
C197 C 0.641300 1.310800 0.242200
H198 H 0.624500 1.342500 0.296900
H199 H 0.606000 1.342400 0.184300
H200 H 0.722100 1.309200 0.247100
C201 C 0.605400 1.142900 0.124200
H202 H 0.681800 1.153600 0.116700
H203 H 0.553000 1.171000 0.071800
H204 H 0.591400 1.077900 0.124400
Ca205 Ca 0.496510 0.912570 0.584670
N206 N 0.361100 0.868300 0.663100
Si207 Si 0.413740 0.807020 0.760990
C208 C 0.567900 0.796900 0.772200
H209 H 0.600200 0.856900 0.769500
H210 H 0.600800 0.768400 0.832700
H211 H 0.583500 0.759900 0.720400
C212 C 0.358700 0.689200 0.757800
H213 H 0.375500 0.657500 0.703100
H214 H 0.394000 0.657600 0.815700
H215 H 0.277900 0.690800 0.752900
C216 C 0.394600 0.857100 0.875800
H217 H 0.318200 0.846400 0.883300
H218 H 0.447000 0.829000 0.928200
H219 H 0.408600 0.922100 0.875600
Si220 Si 0.219020 0.890890 0.623130
C221 C 0.139100 0.900600 0.720600
H222 H 0.061700 0.917200 0.693700
H223 H 0.140600 0.842600 0.753200
H224 H 0.173300 0.946900 0.765600
C225 C 0.141900 0.805700 0.538700
H226 H 0.141800 0.747700 0.571000
H227 H 0.065000 0.825900 0.515900
H228 H 0.178600 0.798900 0.485200
C229 C 0.215300 1.009400 0.564700
H230 H 0.261800 1.008900 0.517300
H231 H 0.138500 1.024300 0.534200
H232 H 0.243700 1.054500 0.613100
O233 O 0.438500 0.945630 0.428750
C234 C 0.377500 0.892300 0.362100
C235 C 0.349400 0.807800 0.378100
H236 H 0.372500 0.782100 0.439100
H237 H 0.306200 0.773300 0.328400
C238 C 0.342800 0.934400 0.265800
C239 C 0.237200 0.973300 0.237700
C240 C 0.208500 1.014200 0.150500
H241 H 0.137800 1.042400 0.132900
C242 C 0.280000 1.015400 0.087700
C243 C 0.383100 0.974200 0.115500
H244 H 0.432100 0.972900 0.072800
C245 C 0.417200 0.934900 0.203900
C246 C 0.531400 0.893300 0.231400
H247 H 0.584600 0.938800 0.262200
H248 H 0.529400 0.843300 0.275100
H249 H 0.554500 0.870900 0.174800
C250 C 0.245800 1.060600 -0.006500
H251 H 0.242300 1.125900 0.002500
H252 H 0.300400 1.047100 -0.045200
H253 H 0.172400 1.038400 -0.038300
C254 C 0.153200 0.969600 0.301200
H255 H 0.125500 0.907800 0.303000
H256 H 0.189100 0.988500 0.365100
H257 H 0.090800 1.010000 0.276400
O258 O 0.661200 0.822500 0.570000
C259 C 0.643100 0.774100 0.481700
H260 H 0.584200 0.804900 0.435300
H261 H 0.712400 0.775200 0.456900
C262 C 0.608500 0.676100 0.492300
H263 H 0.668800 0.644200 0.534600
H264 H 0.541300 0.674700 0.518800
H265 H 0.593100 0.646900 0.430300
C266 C 0.759300 0.792900 0.638400
H267 H 0.768800 0.832400 0.694600
H268 H 0.746000 0.731000 0.658900
C269 C 0.864300 0.793500 0.602900
H270 H 0.870700 0.850700 0.570600
H271 H 0.927800 0.786800 0.656100
H272 H 0.863700 0.743600 0.558700
Ca273 Ca 0.003490 0.412570 -0.084670
N274 N 0.138900 0.368300 -0.163100
O275 O 0.061500 0.445630 0.071250
Si276 Si 0.086260 0.307020 -0.260990
Si277 Si 0.280980 0.390890 -0.123130
C278 C 0.360900 0.400600 -0.220600
H279 H 0.438300 0.417200 -0.193700
H280 H 0.359400 0.342600 -0.253200
H281 H 0.326700 0.446900 -0.265600
C282 C 0.358100 0.305700 -0.038700
H283 H 0.358200 0.247700 -0.071000
H284 H 0.435000 0.325900 -0.015900
H285 H 0.321400 0.298900 0.014800
C286 C 0.284700 0.509400 -0.064700
H287 H 0.238200 0.508900 -0.017300
H288 H 0.361500 0.524300 -0.034200
H289 H 0.256300 0.554500 -0.113100
C290 C 0.122500 0.392300 0.137900
C291 C 0.150600 0.307800 0.121900
H292 H 0.127500 0.282100 0.060900
H293 H 0.193800 0.273300 0.171600
C294 C 0.157200 0.434400 0.234200
C295 C 0.262800 0.473300 0.262300
C296 C 0.291500 0.514200 0.349500
H297 H 0.362200 0.542400 0.367100
C298 C 0.220000 0.515400 0.412300
C299 C 0.116900 0.474200 0.384500
H300 H 0.067900 0.472900 0.427200
C301 C 0.082800 0.434900 0.296100
C302 C 0.346800 0.469600 0.198800
H303 H 0.374500 0.407800 0.197000
H304 H 0.310900 0.488500 0.134900
H305 H 0.409200 0.510000 0.223600
C306 C 0.254200 0.560600 0.506500
H307 H 0.257700 0.625900 0.497500
H308 H 0.199600 0.547100 0.545200
H309 H 0.327600 0.538400 0.538300
C310 C -0.031400 0.393300 0.268600
H311 H -0.084600 0.438800 0.237800
H312 H -0.029400 0.343300 0.224900
H313 H -0.054500 0.370900 0.325200
O314 O -0.161200 0.322500 -0.070000
C315 C -0.143100 0.274100 0.018300
H316 H -0.084200 0.304900 0.064700
H317 H -0.212400 0.275200 0.043100
C318 C -0.108500 0.176100 0.007700
H319 H -0.168800 0.144200 -0.034600
H320 H -0.041300 0.174700 -0.018800
H321 H -0.093100 0.146900 0.069700
C322 C -0.259300 0.292900 -0.138400
H323 H -0.268800 0.332400 -0.194600
H324 H -0.246000 0.231000 -0.158900
C325 C -0.364300 0.293500 -0.102900
H326 H -0.370700 0.350700 -0.070600
H327 H -0.427800 0.286800 -0.156100
H328 H -0.363700 0.243600 -0.058700
C329 C -0.067900 0.296900 -0.272200
H330 H -0.100200 0.356900 -0.269500
H331 H -0.100800 0.268400 -0.332700
H332 H -0.083500 0.259900 -0.220400
C333 C 0.141300 0.189200 -0.257800
H334 H 0.124500 0.157500 -0.203100
H335 H 0.106000 0.157600 -0.315700
H336 H 0.222100 0.190800 -0.252900
C337 C 0.105400 0.357100 -0.375800
H338 H 0.181800 0.346400 -0.383300
H339 H 0.053000 0.329000 -0.428200
H340 H 0.091400 0.422100 -0.375600
Ca341 Ca -0.003490 0.587430 0.084670
N342 N -0.138900 0.631700 0.163100
Si343 Si -0.086260 0.692980 0.260990
C344 C 0.067900 0.703100 0.272200
H345 H 0.100200 0.643100 0.269500
H346 H 0.100800 0.731600 0.332700
H347 H 0.083500 0.740100 0.220400
C348 C -0.141300 0.810800 0.257800
H349 H -0.124500 0.842500 0.203100
H350 H -0.106000 0.842400 0.315700
H351 H -0.222100 0.809200 0.252900
C352 C -0.105400 0.642900 0.375800
H353 H -0.181800 0.653600 0.383300
H354 H -0.053000 0.671000 0.428200
H355 H -0.091400 0.577900 0.375600
Si356 Si -0.280980 0.609110 0.123130
C357 C -0.360900 0.599400 0.220600
H358 H -0.438300 0.582800 0.193700
H359 H -0.359400 0.657400 0.253200
H360 H -0.326700 0.553100 0.265600
C361 C -0.358100 0.694300 0.038700
H362 H -0.358200 0.752300 0.071000
H363 H -0.435000 0.674100 0.015900
H364 H -0.321400 0.701100 -0.014800
C365 C -0.284700 0.490600 0.064700
H366 H -0.238200 0.491100 0.017300
H367 H -0.361500 0.475700 0.034200
H368 H -0.256300 0.445500 0.113100
O369 O -0.061500 0.554370 -0.071250
C370 C -0.122500 0.607700 -0.137900
C371 C -0.150600 0.692200 -0.121900
H372 H -0.127500 0.717900 -0.060900
H373 H -0.193800 0.726700 -0.171600
C374 C -0.157200 0.565600 -0.234200
C375 C -0.262800 0.526700 -0.262300
C376 C -0.291500 0.485800 -0.349500
H377 H -0.362200 0.457600 -0.367100
C378 C -0.220000 0.484600 -0.412300
C379 C -0.116900 0.525800 -0.384500
H380 H -0.067900 0.527100 -0.427200
C381 C -0.082800 0.565100 -0.296100
C382 C 0.031400 0.606700 -0.268600
H383 H 0.084600 0.561200 -0.237800
H384 H 0.029400 0.656700 -0.224900
H385 H 0.054500 0.629100 -0.325200
C386 C -0.254200 0.439400 -0.506500
H387 H -0.257700 0.374100 -0.497500
H388 H -0.199600 0.452900 -0.545200
H389 H -0.327600 0.461600 -0.538300
C390 C -0.346800 0.530400 -0.198800
H391 H -0.374500 0.592200 -0.197000
H392 H -0.310900 0.511500 -0.134900
H393 H -0.409200 0.490000 -0.223600
O394 O 0.161200 0.677500 0.070000
C395 C 0.143100 0.725900 -0.018300
H396 H 0.084200 0.695100 -0.064700
H397 H 0.212400 0.724800 -0.043100
C398 C 0.108500 0.823900 -0.007700
H399 H 0.168800 0.855800 0.034600
H400 H 0.041300 0.825300 0.018800
H401 H 0.093100 0.853100 -0.069700
C402 C 0.259300 0.707100 0.138400
H403 H 0.268800 0.667600 0.194600
H404 H 0.246000 0.769000 0.158900
C405 C 0.364300 0.706500 0.102900
H406 H 0.370700 0.649300 0.070600
H407 H 0.427800 0.713200 0.156100
H408 H 0.363700 0.756400 0.058700
Ca409 Ca 0.003490 0.412570 0.915330
N410 N 0.138900 0.368300 0.836900
O411 O 0.061500 0.445630 1.071250
Si412 Si 0.086260 0.307020 0.739010
Si413 Si 0.280980 0.390890 0.876870
C414 C 0.360900 0.400600 0.779400
H415 H 0.438300 0.417200 0.806300
H416 H 0.359400 0.342600 0.746800
H417 H 0.326700 0.446900 0.734400
C418 C 0.358100 0.305700 0.961300
H419 H 0.358200 0.247700 0.929000
H420 H 0.435000 0.325900 0.984100
H421 H 0.321400 0.298900 1.014800
C422 C 0.284700 0.509400 0.935300
H423 H 0.238200 0.508900 0.982700
H424 H 0.361500 0.524300 0.965800
H425 H 0.256300 0.554500 0.886900
C426 C 0.122500 0.392300 1.137900
C427 C 0.150600 0.307800 1.121900
H428 H 0.127500 0.282100 1.060900
H429 H 0.193800 0.273300 1.171600
C430 C 0.157200 0.434400 1.234200
C431 C 0.262800 0.473300 1.262300
C432 C 0.291500 0.514200 1.349500
H433 H 0.362200 0.542400 1.367100
C434 C 0.220000 0.515400 1.412300
C435 C 0.116900 0.474200 1.384500
H436 H 0.067900 0.472900 1.427200
C437 C 0.082800 0.434900 1.296100
C438 C 0.346800 0.469600 1.198800
H439 H 0.374500 0.407800 1.197000
H440 H 0.310900 0.488500 1.134900
H441 H 0.409200 0.510000 1.223600
C442 C 0.254200 0.560600 1.506500
H443 H 0.257700 0.625900 1.497500
H444 H 0.199600 0.547100 1.545200
H445 H 0.327600 0.538400 1.538300
C446 C -0.031400 0.393300 1.268600
H447 H -0.084600 0.438800 1.237800
H448 H -0.029400 0.343300 1.224900
H449 H -0.054500 0.370900 1.325200
O450 O -0.161200 0.322500 0.930000
C451 C -0.143100 0.274100 1.018300
H452 H -0.084200 0.304900 1.064700
H453 H -0.212400 0.275200 1.043100
C454 C -0.108500 0.176100 1.007700
H455 H -0.168800 0.144200 0.965400
H456 H -0.041300 0.174700 0.981200
H457 H -0.093100 0.146900 1.069700
C458 C -0.259300 0.292900 0.861600
H459 H -0.268800 0.332400 0.805400
H460 H -0.246000 0.231000 0.841100
C461 C -0.364300 0.293500 0.897100
H462 H -0.370700 0.350700 0.929400
H463 H -0.427800 0.286800 0.843900
H464 H -0.363700 0.243600 0.941300
C465 C -0.067900 0.296900 0.727800
H466 H -0.100200 0.356900 0.730500
H467 H -0.100800 0.268400 0.667300
H468 H -0.083500 0.259900 0.779600
C469 C 0.141300 0.189200 0.742200
H470 H 0.124500 0.157500 0.796900
H471 H 0.106000 0.157600 0.684300
H472 H 0.222100 0.190800 0.747100
C473 C 0.105400 0.357100 0.624200
H474 H 0.181800 0.346400 0.616700
H475 H 0.053000 0.329000 0.571800
H476 H 0.091400 0.422100 0.624400
Ca477 Ca -0.003490 0.587430 1.084670
N478 N -0.138900 0.631700 1.163100
Si479 Si -0.086260 0.692980 1.260990
C480 C 0.067900 0.703100 1.272200
H481 H 0.100200 0.643100 1.269500
H482 H 0.100800 0.731600 1.332700
H483 H 0.083500 0.740100 1.220400
C484 C -0.141300 0.810800 1.257800
H485 H -0.124500 0.842500 1.203100
H486 H -0.106000 0.842400 1.315700
H487 H -0.222100 0.809200 1.252900
C488 C -0.105400 0.642900 1.375800
H489 H -0.181800 0.653600 1.383300
H490 H -0.053000 0.671000 1.428200
H491 H -0.091400 0.577900 1.375600
Si492 Si -0.280980 0.609110 1.123130
C493 C -0.360900 0.599400 1.220600
H494 H -0.438300 0.582800 1.193700
H495 H -0.359400 0.657400 1.253200
H496 H -0.326700 0.553100 1.265600
C497 C -0.358100 0.694300 1.038700
H498 H -0.358200 0.752300 1.071000
H499 H -0.435000 0.674100 1.015900
H500 H -0.321400 0.701100 0.985200
C501 C -0.284700 0.490600 1.064700
H502 H -0.238200 0.491100 1.017300
H503 H -0.361500 0.475700 1.034200
H504 H -0.256300 0.445500 1.113100
O505 O -0.061500 0.554370 0.928750
C506 C -0.122500 0.607700 0.862100
C507 C -0.150600 0.692200 0.878100
H508 H -0.127500 0.717900 0.939100
H509 H -0.193800 0.726700 0.828400
C510 C -0.157200 0.565600 0.765800
C511 C -0.262800 0.526700 0.737700
C512 C -0.291500 0.485800 0.650500
H513 H -0.362200 0.457600 0.632900
C514 C -0.220000 0.484600 0.587700
C515 C -0.116900 0.525800 0.615500
H516 H -0.067900 0.527100 0.572800
C517 C -0.082800 0.565100 0.703900
C518 C 0.031400 0.606700 0.731400
H519 H 0.084600 0.561200 0.762200
H520 H 0.029400 0.656700 0.775100
H521 H 0.054500 0.629100 0.674800
C522 C -0.254200 0.439400 0.493500
H523 H -0.257700 0.374100 0.502500
H524 H -0.199600 0.452900 0.454800
H525 H -0.327600 0.461600 0.461700
C526 C -0.346800 0.530400 0.801200
H527 H -0.374500 0.592200 0.803000
H528 H -0.310900 0.511500 0.865100
H529 H -0.409200 0.490000 0.776400
O530 O 0.161200 0.677500 1.070000
C531 C 0.143100 0.725900 0.981700
H532 H 0.084200 0.695100 0.935300
H533 H 0.212400 0.724800 0.956900
C534 C 0.108500 0.823900 0.992300
H535 H 0.168800 0.855800 1.034600
H536 H 0.041300 0.825300 1.018800
H537 H 0.093100 0.853100 0.930300
C538 C 0.259300 0.707100 1.138400
H539 H 0.268800 0.667600 1.194600
H540 H 0.246000 0.769000 1.158900
C541 C 0.364300 0.706500 1.102900
H542 H 0.370700 0.649300 1.070600
H543 H 0.427800 0.713200 1.156100
H544 H 0.363700 0.756400 1.058700
Ca545 Ca 1.003490 0.412570 -0.084670
N546 N 1.138900 0.368300 -0.163100
O547 O 1.061500 0.445630 0.071250
Si548 Si 1.086260 0.307020 -0.260990
Si549 Si 1.280980 0.390890 -0.123130
C550 C 1.360900 0.400600 -0.220600
H551 H 1.438300 0.417200 -0.193700
H552 H 1.359400 0.342600 -0.253200
H553 H 1.326700 0.446900 -0.265600
C554 C 1.358100 0.305700 -0.038700
H555 H 1.358200 0.247700 -0.071000
H556 H 1.435000 0.325900 -0.015900
H557 H 1.321400 0.298900 0.014800
C558 C 1.284700 0.509400 -0.064700
H559 H 1.238200 0.508900 -0.017300
H560 H 1.361500 0.524300 -0.034200
H561 H 1.256300 0.554500 -0.113100
C562 C 1.122500 0.392300 0.137900
C563 C 1.150600 0.307800 0.121900
H564 H 1.127500 0.282100 0.060900
H565 H 1.193800 0.273300 0.171600
C566 C 1.157200 0.434400 0.234200
C567 C 1.262800 0.473300 0.262300
C568 C 1.291500 0.514200 0.349500
H569 H 1.362200 0.542400 0.367100
C570 C 1.220000 0.515400 0.412300
C571 C 1.116900 0.474200 0.384500
H572 H 1.067900 0.472900 0.427200
C573 C 1.082800 0.434900 0.296100
C574 C 1.346800 0.469600 0.198800
H575 H 1.374500 0.407800 0.197000
H576 H 1.310900 0.488500 0.134900
H577 H 1.409200 0.510000 0.223600
C578 C 1.254200 0.560600 0.506500
H579 H 1.257700 0.625900 0.497500
H580 H 1.199600 0.547100 0.545200
H581 H 1.327600 0.538400 0.538300
C582 C 0.968600 0.393300 0.268600
H583 H 0.915400 0.438800 0.237800
H584 H 0.970600 0.343300 0.224900
H585 H 0.945500 0.370900 0.325200
O586 O 0.838800 0.322500 -0.070000
C587 C 0.856900 0.274100 0.018300
H588 H 0.915800 0.304900 0.064700
H589 H 0.787600 0.275200 0.043100
C590 C 0.891500 0.176100 0.007700
H591 H 0.831200 0.144200 -0.034600
H592 H 0.958700 0.174700 -0.018800
H593 H 0.906900 0.146900 0.069700
C594 C 0.740700 0.292900 -0.138400
H595 H 0.731200 0.332400 -0.194600
H596 H 0.754000 0.231000 -0.158900
C597 C 0.635700 0.293500 -0.102900
H598 H 0.629300 0.350700 -0.070600
H599 H 0.572200 0.286800 -0.156100
H600 H 0.636300 0.243600 -0.058700
C601 C 0.932100 0.296900 -0.272200
H602 H 0.899800 0.356900 -0.269500
H603 H 0.899200 0.268400 -0.332700
H604 H 0.916500 0.259900 -0.220400
C605 C 1.141300 0.189200 -0.257800
H606 H 1.124500 0.157500 -0.203100
H607 H 1.106000 0.157600 -0.315700
H608 H 1.222100 0.190800 -0.252900
C609 C 1.105400 0.357100 -0.375800
H610 H 1.181800 0.346400 -0.383300
H611 H 1.053000 0.329000 -0.428200
H612 H 1.091400 0.422100 -0.375600
Ca613 Ca 0.996510 0.587430 0.084670
N614 N 0.861100 0.631700 0.163100
Si615 Si 0.913740 0.692980 0.260990
C616 C 1.067900 0.703100 0.272200
H617 H 1.100200 0.643100 0.269500
H618 H 1.100800 0.731600 0.332700
H619 H 1.083500 0.740100 0.220400
C620 C 0.858700 0.810800 0.257800
H621 H 0.875500 0.842500 0.203100
H622 H 0.894000 0.842400 0.315700
H623 H 0.777900 0.809200 0.252900
C624 C 0.894600 0.642900 0.375800
H625 H 0.818200 0.653600 0.383300
H626 H 0.947000 0.671000 0.428200
H627 H 0.908600 0.577900 0.375600
Si628 Si 0.719020 0.609110 0.123130
C629 C 0.639100 0.599400 0.220600
H630 H 0.561700 0.582800 0.193700
H631 H 0.640600 0.657400 0.253200
H632 H 0.673300 0.553100 0.265600
C633 C 0.641900 0.694300 0.038700
H634 H 0.641800 0.752300 0.071000
H635 H 0.565000 0.674100 0.015900
H636 H 0.678600 0.701100 -0.014800
C637 C 0.715300 0.490600 0.064700
H638 H 0.761800 0.491100 0.017300
H639 H 0.638500 0.475700 0.034200
H640 H 0.743700 0.445500 0.113100
O641 O 0.938500 0.554370 -0.071250
C642 C 0.877500 0.607700 -0.137900
C643 C 0.849400 0.692200 -0.121900
H644 H 0.872500 0.717900 -0.060900
H645 H 0.806200 0.726700 -0.171600
C646 C 0.842800 0.565600 -0.234200
C647 C 0.737200 0.526700 -0.262300
C648 C 0.708500 0.485800 -0.349500
H649 H 0.637800 0.457600 -0.367100
C650 C 0.780000 0.484600 -0.412300
C651 C 0.883100 0.525800 -0.384500
H652 H 0.932100 0.527100 -0.427200
C653 C 0.917200 0.565100 -0.296100
C654 C 1.031400 0.606700 -0.268600
H655 H 1.084600 0.561200 -0.237800
H656 H 1.029400 0.656700 -0.224900
H657 H 1.054500 0.629100 -0.325200
C658 C 0.745800 0.439400 -0.506500
H659 H 0.742300 0.374100 -0.497500
H660 H 0.800400 0.452900 -0.545200
H661 H 0.672400 0.461600 -0.538300
C662 C 0.653200 0.530400 -0.198800
H663 H 0.625500 0.592200 -0.197000
H664 H 0.689100 0.511500 -0.134900
H665 H 0.590800 0.490000 -0.223600
O666 O 1.161200 0.677500 0.070000
C667 C 1.143100 0.725900 -0.018300
H668 H 1.084200 0.695100 -0.064700
H669 H 1.212400 0.724800 -0.043100
C670 C 1.108500 0.823900 -0.007700
H671 H 1.168800 0.855800 0.034600
H672 H 1.041300 0.825300 0.018800
H673 H 1.093100 0.853100 -0.069700
C674 C 1.259300 0.707100 0.138400
H675 H 1.268800 0.667600 0.194600
H676 H 1.246000 0.769000 0.158900
C677 C 1.364300 0.706500 0.102900
H678 H 1.370700 0.649300 0.070600
H679 H 1.427800 0.713200 0.156100
H680 H 1.363700 0.756400 0.058700
Ca681 Ca 1.003490 0.412570 0.915330
N682 N 1.138900 0.368300 0.836900
O683 O 1.061500 0.445630 1.071250
Si684 Si 1.086260 0.307020 0.739010
Si685 Si 1.280980 0.390890 0.876870
C686 C 1.360900 0.400600 0.779400
H687 H 1.438300 0.417200 0.806300
H688 H 1.359400 0.342600 0.746800
H689 H 1.326700 0.446900 0.734400
C690 C 1.358100 0.305700 0.961300
H691 H 1.358200 0.247700 0.929000
H692 H 1.435000 0.325900 0.984100
H693 H 1.321400 0.298900 1.014800
C694 C 1.284700 0.509400 0.935300
H695 H 1.238200 0.508900 0.982700
H696 H 1.361500 0.524300 0.965800
H697 H 1.256300 0.554500 0.886900
C698 C 1.122500 0.392300 1.137900
C699 C 1.150600 0.307800 1.121900
H700 H 1.127500 0.282100 1.060900
H701 H 1.193800 0.273300 1.171600
C702 C 1.157200 0.434400 1.234200
C703 C 1.262800 0.473300 1.262300
C704 C 1.291500 0.514200 1.349500
H705 H 1.362200 0.542400 1.367100
C706 C 1.220000 0.515400 1.412300
C707 C 1.116900 0.474200 1.384500
H708 H 1.067900 0.472900 1.427200
C709 C 1.082800 0.434900 1.296100
C710 C 1.346800 0.469600 1.198800
H711 H 1.374500 0.407800 1.197000
H712 H 1.310900 0.488500 1.134900
H713 H 1.409200 0.510000 1.223600
C714 C 1.254200 0.560600 1.506500
H715 H 1.257700 0.625900 1.497500
H716 H 1.199600 0.547100 1.545200
H717 H 1.327600 0.538400 1.538300
C718 C 0.968600 0.393300 1.268600
H719 H 0.915400 0.438800 1.237800
H720 H 0.970600 0.343300 1.224900
H721 H 0.945500 0.370900 1.325200
O722 O 0.838800 0.322500 0.930000
C723 C 0.856900 0.274100 1.018300
H724 H 0.915800 0.304900 1.064700
H725 H 0.787600 0.275200 1.043100
C726 C 0.891500 0.176100 1.007700
H727 H 0.831200 0.144200 0.965400
H728 H 0.958700 0.174700 0.981200
H729 H 0.906900 0.146900 1.069700
C730 C 0.740700 0.292900 0.861600
H731 H 0.731200 0.332400 0.805400
H732 H 0.754000 0.231000 0.841100
C733 C 0.635700 0.293500 0.897100
H734 H 0.629300 0.350700 0.929400
H735 H 0.572200 0.286800 0.843900
H736 H 0.636300 0.243600 0.941300
C737 C 0.932100 0.296900 0.727800
H738 H 0.899800 0.356900 0.730500
H739 H 0.899200 0.268400 0.667300
H740 H 0.916500 0.259900 0.779600
C741 C 1.141300 0.189200 0.742200
H742 H 1.124500 0.157500 0.796900
H743 H 1.106000 0.157600 0.684300
H744 H 1.222100 0.190800 0.747100
C745 C 1.105400 0.357100 0.624200
H746 H 1.181800 0.346400 0.616700
H747 H 1.053000 0.329000 0.571800
H748 H 1.091400 0.422100 0.624400
Ca749 Ca 0.996510 0.587430 1.084670
N750 N 0.861100 0.631700 1.163100
Si751 Si 0.913740 0.692980 1.260990
C752 C 1.067900 0.703100 1.272200
H753 H 1.100200 0.643100 1.269500
H754 H 1.100800 0.731600 1.332700
H755 H 1.083500 0.740100 1.220400
C756 C 0.858700 0.810800 1.257800
H757 H 0.875500 0.842500 1.203100
H758 H 0.894000 0.842400 1.315700
H759 H 0.777900 0.809200 1.252900
C760 C 0.894600 0.642900 1.375800
H761 H 0.818200 0.653600 1.383300
H762 H 0.947000 0.671000 1.428200
H763 H 0.908600 0.577900 1.375600
Si764 Si 0.719020 0.609110 1.123130
C765 C 0.639100 0.599400 1.220600
H766 H 0.561700 0.582800 1.193700
H767 H 0.640600 0.657400 1.253200
H768 H 0.673300 0.553100 1.265600
C769 C 0.641900 0.694300 1.038700
H770 H 0.641800 0.752300 1.071000
H771 H 0.565000 0.674100 1.015900
H772 H 0.678600 0.701100 0.985200
C773 C 0.715300 0.490600 1.064700
H774 H 0.761800 0.491100 1.017300
H775 H 0.638500 0.475700 1.034200
H776 H 0.743700 0.445500 1.113100
O777 O 0.938500 0.554370 0.928750
C778 C 0.877500 0.607700 0.862100
C779 C 0.849400 0.692200 0.878100
H780 H 0.872500 0.717900 0.939100
H781 H 0.806200 0.726700 0.828400
C782 C 0.842800 0.565600 0.765800
C783 C 0.737200 0.526700 0.737700
C784 C 0.708500 0.485800 0.650500
H785 H 0.637800 0.457600 0.632900
C786 C 0.780000 0.484600 0.587700
C787 C 0.883100 0.525800 0.615500
H788 H 0.932100 0.527100 0.572800
C789 C 0.917200 0.565100 0.703900
C790 C 1.031400 0.606700 0.731400
H791 H 1.084600 0.561200 0.762200
H792 H 1.029400 0.656700 0.775100
H793 H 1.054500 0.629100 0.674800
C794 C 0.745800 0.439400 0.493500
H795 H 0.742300 0.374100 0.502500
H796 H 0.800400 0.452900 0.454800
H797 H 0.672400 0.461600 0.461700
C798 C 0.653200 0.530400 0.801200
H799 H 0.625500 0.592200 0.803000
H800 H 0.689100 0.511500 0.865100
H801 H 0.590800 0.490000 0.776400
O802 O 1.161200 0.677500 1.070000
C803 C 1.143100 0.725900 0.981700
H804 H 1.084200 0.695100 0.935300
H805 H 1.212400 0.724800 0.956900
C806 C 1.108500 0.823900 0.992300
H807 H 1.168800 0.855800 1.034600
H808 H 1.041300 0.825300 1.018800
H809 H 1.093100 0.853100 0.930300
C810 C 1.259300 0.707100 1.138400
H811 H 1.268800 0.667600 1.194600
H812 H 1.246000 0.769000 1.158900
C813 C 1.364300 0.706500 1.102900
H814 H 1.370700 0.649300 1.070600
H815 H 1.427800 0.713200 1.156100
H816 H 1.363700 0.756400 1.058700
Si817 Si 0.739800 0.093300 0.354000
C818 C 0.823000 0.079000 0.258000
C819 C 0.825000 0.173000 0.437500
C820 C 0.820000 0.019400 0.432000
O821 O 0.415700 0.212100 0.465200
C822 C 0.434700 0.307800 0.455200
C823 C 0.448100 0.357300 0.549600
C824 C 0.312400 0.188800 0.493500
C825 C 0.210500 0.216700 0.425400
Si826 Si 0.239800 0.406700 0.854000
C827 C 0.323000 0.421000 0.758000
C828 C 0.325000 0.327000 0.937500
C829 C 0.320000 0.480600 0.932000
O830 O -0.084300 0.287900 0.965200
C831 C -0.065300 0.192200 0.955200
C832 C -0.051900 0.142700 1.049600
C833 C -0.187600 0.311200 0.993500
C834 C -0.289500 0.283300 0.925400
Si835 Si 0.260200 0.906700 0.646000
C836 C 0.177000 0.921000 0.742000
C837 C 0.175000 0.827000 0.562500
C838 C 0.180000 0.980600 0.568000
O839 O 0.584300 0.787900 0.534800
C840 C 0.565300 0.692200 0.544800
C841 C 0.551900 0.642700 0.450400
C842 C 0.687600 0.811200 0.506500
C843 C 0.789500 0.783300 0.574600
Si844 Si 0.760200 0.593300 0.146000
C845 C 0.677000 0.579000 0.242000
C846 C 0.675000 0.673000 0.062500
C847 C 0.680000 0.519400 0.068000
O848 O 1.084300 0.712100 0.034800
C849 C 1.065300 0.807800 0.044800
C850 C 1.051900 0.857300 -0.049600
C851 C 1.187600 0.688800 0.006500
C852 C 1.289500 0.716700 0.074600

#END
