./ABAGIW_from_xyz.cif_generated_by_CrystalShift
_symmetry_cell_setting triclinic
_symmetry_space_group_name_H-M 'P 1'
loop_
_symmetry_equiv_pos_site_id
_symmetry_equiv_pos_as_xyz
1 x,y,z
_cell_length_a 8.552000
_cell_length_b 5.459000
_cell_length_c 19.337000
_cell_angle_alpha 90.000000
_cell_angle_beta 90.668000
_cell_angle_gamma 90.000000
_cell_volume 902.693616
loop_
_atom_site_label
_atom_site_type_symbol
_atom_site_fract_x
_atom_site_fract_y
_atom_site_fract_z
O1 O 0.702940 -0.113760 0.101900
O2 O 0.356860 0.402760 0.063840
N3 N 0.645390 0.212200 0.040340
H4 H 0.590500 0.338500 0.025600
C5 C -0.092690 0.233700 0.219410
H6 H -0.189400 0.234100 0.243100
C7 C -0.059470 0.417000 0.172240
H8 H -0.133500 0.543300 0.163500
C9 C 0.081930 0.416400 0.137640
H10 H 0.104000 0.543300 0.105600
C11 C 0.191700 0.232500 0.149260
C12 C 0.342550 0.241300 0.109400
C13 C 0.458230 0.064800 0.124430
H14 H 0.440600 -0.053000 0.159600
C15 C 0.596860 0.061000 0.088590
C16 C 0.797800 0.149900 0.014060
H17 H 0.874900 0.281700 0.023100
H18 H 0.793600 0.114500 -0.036100
C19 C 0.835030 -0.080300 0.056280
H20 H 0.847100 -0.223900 0.025500
H21 H 0.932900 -0.058200 0.083400
C22 C 0.015470 0.050100 0.231930
H23 H -0.006800 -0.075200 0.264400
C24 C 0.156490 0.048700 0.197060
H25 H 0.229900 -0.078500 0.205800
O26 O -0.202940 0.386240 0.398100
O27 O 0.143140 0.902760 0.436160
N28 N -0.145390 0.712200 0.459660
H29 H -0.090500 0.838500 0.474400
C30 C 0.592690 0.733700 0.280590
H31 H 0.689400 0.734100 0.256900
C32 C 0.559470 0.917000 0.327760
H33 H 0.633500 1.043300 0.336500
C34 C 0.418070 0.916400 0.362360
H35 H 0.396000 1.043300 0.394400
C36 C 0.308300 0.732500 0.350740
C37 C 0.157450 0.741300 0.390600
C38 C 0.041770 0.564800 0.375570
H39 H 0.059400 0.447000 0.340400
C40 C -0.096860 0.561000 0.411410
C41 C -0.297800 0.649900 0.485940
H42 H -0.374900 0.781700 0.476900
H43 H -0.293600 0.614500 0.536100
C44 C -0.335030 0.419700 0.443720
H45 H -0.347100 0.276100 0.474500
H46 H -0.432900 0.441800 0.416600
C47 C 0.484530 0.550100 0.268070
H48 H 0.506800 0.424800 0.235600
C49 C 0.343510 0.548700 0.302940
H50 H 0.270100 0.421500 0.294200
O51 O 0.297060 1.113760 0.898100
O52 O 0.643140 0.597240 0.936160
N53 N 0.354610 0.787800 0.959660
H54 H 0.409500 0.661500 0.974400
C55 C 1.092690 0.766300 0.780590
H56 H 1.189400 0.765900 0.756900
C57 C 1.059470 0.583000 0.827760
H58 H 1.133500 0.456700 0.836500
C59 C 0.918070 0.583600 0.862360
H60 H 0.896000 0.456700 0.894400
C61 C 0.808300 0.767500 0.850740
C62 C 0.657450 0.758700 0.890600
C63 C 0.541770 0.935200 0.875570
H64 H 0.559400 1.053000 0.840400
C65 C 0.403140 0.939000 0.911410
C66 C 0.202200 0.850100 0.985940
H67 H 0.125100 0.718300 0.976900
H68 H 0.206400 0.885500 1.036100
C69 C 0.164970 1.080300 0.943720
H70 H 0.152900 1.223900 0.974500
H71 H 0.067100 1.058200 0.916600
C72 C 0.984530 0.949900 0.768070
H73 H 1.006800 1.075200 0.735600
C74 C 0.843510 0.951300 0.802940
H75 H 0.770100 1.078500 0.794200
O76 O 1.202940 0.613760 0.601900
O77 O 0.856860 0.097240 0.563840
N78 N 1.145390 0.287800 0.540340
H79 H 1.090500 0.161500 0.525600
C80 C 0.407310 0.266300 0.719410
H81 H 0.310600 0.265900 0.743100
C82 C 0.440530 0.083000 0.672240
H83 H 0.366500 -0.043300 0.663500
C84 C 0.581930 0.083600 0.637640
H85 H 0.604000 -0.043300 0.605600
C86 C 0.691700 0.267500 0.649260
C87 C 0.842550 0.258700 0.609400
C88 C 0.958230 0.435200 0.624430
H89 H 0.940600 0.553000 0.659600
C90 C 1.096860 0.439000 0.588590
C91 C 1.297800 0.350100 0.514060
H92 H 1.374900 0.218300 0.523100
H93 H 1.293600 0.385500 0.463900
C94 C 1.335030 0.580300 0.556280
H95 H 1.347100 0.723900 0.525500
H96 H 1.432900 0.558200 0.583400
C97 C 0.515470 0.449900 0.731930
H98 H 0.493200 0.575200 0.764400
C99 C 0.656490 0.451300 0.697060
H100 H 0.729900 0.578500 0.705800

#END
