./ABAHUI_from_xyz.cif_generated_by_CrystalShift
_symmetry_cell_setting triclinic
_symmetry_space_group_name_H-M 'P 1'
loop_
_symmetry_equiv_pos_site_id
_symmetry_equiv_pos_as_xyz
1 x,y,z
_cell_length_a 5.779600
_cell_length_b 7.469100
_cell_length_c 16.984200
_cell_angle_alpha 77.956000
_cell_angle_beta 89.394000
_cell_angle_gamma 72.547000
_cell_volume 682.968034
loop_
_atom_site_label
_atom_site_type_symbol
_atom_site_fract_x
_atom_site_fract_y
_atom_site_fract_z
O1 O 0.155600 0.316000 0.333180
O2 O 1.142900 -0.195200 0.347500
O3 O 0.237100 0.534200 0.059380
O4 O -0.175500 0.518100 0.262610
N5 N 0.563200 0.271080 0.155130
N6 N 0.408200 0.296460 0.211100
C7 C 0.860600 0.029300 0.252330
H8 H 0.750500 0.042600 0.292700
C9 C 1.093100 -0.098100 0.269170
C10 C 1.257800 -0.122500 0.209270
H11 H 1.412900 -0.209300 0.220800
C12 C 1.185700 -0.014800 0.132130
H13 H 1.294300 -0.030500 0.091500
C14 C 0.956000 0.116200 0.113730
H15 H 0.910700 0.189000 0.061700
C16 C 0.795000 0.136070 0.174890
C17 C 0.188800 0.419680 0.194920
C18 C 0.035300 0.426200 0.265100
C19 C 0.017500 0.313900 0.404680
H20 H -0.116600 0.264100 0.398600
H21 H -0.047500 0.442900 0.414100
C22 C 0.185700 0.189100 0.472260
H23 H 0.099000 0.178800 0.520700
H24 H 0.313200 0.243300 0.479200
H25 H 0.254500 0.063800 0.460900
C26 C 0.098400 0.540200 0.114760
C27 C -0.158000 0.670300 0.098750
H28 H -0.184700 0.731500 0.042600
H29 H -0.185300 0.766300 0.130500
H30 H -0.268300 0.596300 0.112900
C31 C 1.384300 -0.313100 0.370510
H32 H 1.394900 -0.373900 0.426600
H33 H 1.492000 -0.235700 0.361600
H34 H 1.429700 -0.409600 0.338900
H35 H 0.517000 0.341000 0.106700
O36 O 0.844400 0.684000 0.666820
O37 O -0.142900 1.195200 0.652500
O38 O 0.762900 0.465800 0.940620
O39 O 1.175500 0.481900 0.737390
N40 N 0.436800 0.728920 0.844870
N41 N 0.591800 0.703540 0.788900
C42 C 0.139400 0.970700 0.747670
H43 H 0.249500 0.957400 0.707300
C44 C -0.093100 1.098100 0.730830
C45 C -0.257800 1.122500 0.790730
H46 H -0.412900 1.209300 0.779200
C47 C -0.185700 1.014800 0.867870
H48 H -0.294300 1.030500 0.908500
C49 C 0.044000 0.883800 0.886270
H50 H 0.089300 0.811000 0.938300
C51 C 0.205000 0.863930 0.825110
C52 C 0.811200 0.580320 0.805080
C53 C 0.964700 0.573800 0.734900
C54 C 0.982500 0.686100 0.595320
H55 H 1.116600 0.735900 0.601400
H56 H 1.047500 0.557100 0.585900
C57 C 0.814300 0.810900 0.527740
H58 H 0.901000 0.821200 0.479300
H59 H 0.686800 0.756700 0.520800
H60 H 0.745500 0.936200 0.539100
C61 C 0.901600 0.459800 0.885240
C62 C 1.158000 0.329700 0.901250
H63 H 1.184700 0.268500 0.957400
H64 H 1.185300 0.233700 0.869500
H65 H 1.268300 0.403700 0.887100
C66 C -0.384300 1.313100 0.629490
H67 H -0.394900 1.373900 0.573400
H68 H -0.492000 1.235700 0.638400
H69 H -0.429700 1.409600 0.661100
H70 H 0.483000 0.659000 0.893300

#END
