./ABAJOE_from_xyz.cif_generated_by_CrystalShift
_symmetry_cell_setting triclinic
_symmetry_space_group_name_H-M 'P 1'
loop_
_symmetry_equiv_pos_site_id
_symmetry_equiv_pos_as_xyz
1 x,y,z
_cell_length_a 8.190000
_cell_length_b 13.914000
_cell_length_c 11.675000
_cell_angle_alpha 90.000000
_cell_angle_beta 102.380000
_cell_angle_gamma 90.000000
_cell_volume 1299.495990
loop_
_atom_site_label
_atom_site_type_symbol
_atom_site_fract_x
_atom_site_fract_y
_atom_site_fract_z
N1 N 0.086300 0.547490 0.221010
C2 C 0.122600 0.455440 0.182000
O3 O 0.081500 0.381500 0.225480
C4 C 0.207600 0.473980 0.089500
N5 N 0.210200 0.574700 0.075550
C6 C 0.275500 0.628780 -0.001300
H7 H 0.324400 0.599700 -0.057400
C8 C 0.267500 0.726400 0.006000
H9 H 0.311800 0.764100 -0.045700
C10 C 0.194700 0.770400 0.088700
H11 H 0.190300 0.837100 0.092000
C12 C 0.129200 0.716350 0.165300
H13 H 0.080100 0.745300 0.221300
C14 C 0.137700 0.617730 0.157700
C15 C -0.006300 0.562300 0.312400
H16 H 0.069600 0.579700 0.384000
H17 H -0.063600 0.504100 0.324000
H18 H -0.086300 0.612900 0.289500
C19 C 0.274800 0.409500 0.016200
O20 O 0.311500 0.435430 -0.076070
C21 C 0.306400 0.307590 0.055200
C22 C 0.376200 0.282800 0.169900
H23 H 0.395500 0.330400 0.227100
C24 C 0.417700 0.189180 0.201200
H25 H 0.465400 0.173300 0.278500
C26 C 0.386900 0.119620 0.115400
Cl27 Cl 0.437910 0.000780 0.154270
C28 C 0.314400 0.141420 0.001000
H29 H 0.291400 0.093100 -0.055200
C30 C 0.276600 0.235150 -0.029100
H31 H 0.230500 0.250700 -0.106800
N32 N 0.913700 1.047490 0.278990
C33 C 0.877400 0.955440 0.318000
O34 O 0.918500 0.881500 0.274520
C35 C 0.792400 0.973980 0.410500
N36 N 0.789800 1.074700 0.424450
C37 C 0.724500 1.128780 0.501300
H38 H 0.675600 1.099700 0.557400
C39 C 0.732500 1.226400 0.494000
H40 H 0.688200 1.264100 0.545700
C41 C 0.805300 1.270400 0.411300
H42 H 0.809700 1.337100 0.408000
C43 C 0.870800 1.216350 0.334700
H44 H 0.919900 1.245300 0.278700
C45 C 0.862300 1.117730 0.342300
C46 C 1.006300 1.062300 0.187600
H47 H 0.930400 1.079700 0.116000
H48 H 1.063600 1.004100 0.176000
H49 H 1.086300 1.112900 0.210500
C50 C 0.725200 0.909500 0.483800
O51 O 0.688500 0.935430 0.576070
C52 C 0.693600 0.807590 0.444800
C53 C 0.623800 0.782800 0.330100
H54 H 0.604500 0.830400 0.272900
C55 C 0.582300 0.689180 0.298800
H56 H 0.534600 0.673300 0.221500
C57 C 0.613100 0.619620 0.384600
Cl58 Cl 0.562090 0.500780 0.345730
C59 C 0.685600 0.641420 0.499000
H60 H 0.708600 0.593100 0.555200
C61 C 0.723400 0.735150 0.529100
H62 H 0.769500 0.750700 0.606800
N63 N 0.913700 0.452510 0.778990
C64 C 0.877400 0.544560 0.818000
O65 O 0.918500 0.618500 0.774520
C66 C 0.792400 0.526020 0.910500
N67 N 0.789800 0.425300 0.924450
C68 C 0.724500 0.371220 1.001300
H69 H 0.675600 0.400300 1.057400
C70 C 0.732500 0.273600 0.994000
H71 H 0.688200 0.235900 1.045700
C72 C 0.805300 0.229600 0.911300
H73 H 0.809700 0.162900 0.908000
C74 C 0.870800 0.283650 0.834700
H75 H 0.919900 0.254700 0.778700
C76 C 0.862300 0.382270 0.842300
C77 C 1.006300 0.437700 0.687600
H78 H 0.930400 0.420300 0.616000
H79 H 1.063600 0.495900 0.676000
H80 H 1.086300 0.387100 0.710500
C81 C 0.725200 0.590500 0.983800
O82 O 0.688500 0.564570 1.076070
C83 C 0.693600 0.692410 0.944800
C84 C 0.623800 0.717200 0.830100
H85 H 0.604500 0.669600 0.772900
C86 C 0.582300 0.810820 0.798800
H87 H 0.534600 0.826700 0.721500
C88 C 0.613100 0.880380 0.884600
Cl89 Cl 0.562090 0.999220 0.845730
C90 C 0.685600 0.858580 0.999000
H91 H 0.708600 0.906900 1.055200
C92 C 0.723400 0.764850 1.029100
H93 H 0.769500 0.749300 1.106800
N94 N 0.086300 -0.047490 0.721010
C95 C 0.122600 0.044560 0.682000
O96 O 0.081500 0.118500 0.725480
C97 C 0.207600 0.026020 0.589500
N98 N 0.210200 -0.074700 0.575550
C99 C 0.275500 -0.128780 0.498700
H100 H 0.324400 -0.099700 0.442600
C101 C 0.267500 -0.226400 0.506000
H102 H 0.311800 -0.264100 0.454300
C103 C 0.194700 -0.270400 0.588700
H104 H 0.190300 -0.337100 0.592000
C105 C 0.129200 -0.216350 0.665300
H106 H 0.080100 -0.245300 0.721300
C107 C 0.137700 -0.117730 0.657700
C108 C -0.006300 -0.062300 0.812400
H109 H 0.069600 -0.079700 0.884000
H110 H -0.063600 -0.004100 0.824000
H111 H -0.086300 -0.112900 0.789500
C112 C 0.274800 0.090500 0.516200
O113 O 0.311500 0.064570 0.423930
C114 C 0.306400 0.192410 0.555200
C115 C 0.376200 0.217200 0.669900
H116 H 0.395500 0.169600 0.727100
C117 C 0.417700 0.310820 0.701200
H118 H 0.465400 0.326700 0.778500
C119 C 0.386900 0.380380 0.615400
Cl120 Cl 0.437910 0.499220 0.654270
C121 C 0.314400 0.358580 0.501000
H122 H 0.291400 0.406900 0.444800
C123 C 0.276600 0.264850 0.470900
H124 H 0.230500 0.249300 0.393200

#END
