./ABAJEU_from_xyz.cif_generated_by_CrystalShift
_symmetry_cell_setting triclinic
_symmetry_space_group_name_H-M 'P 1'
loop_
_symmetry_equiv_pos_site_id
_symmetry_equiv_pos_as_xyz
1 x,y,z
_cell_length_a 10.065700
_cell_length_b 10.217400
_cell_length_c 11.359800
_cell_angle_alpha 90.000000
_cell_angle_beta 97.649000
_cell_angle_gamma 90.000000
_cell_volume 1157.906349
loop_
_atom_site_label
_atom_site_type_symbol
_atom_site_fract_x
_atom_site_fract_y
_atom_site_fract_z
Br1 Br 0.832110 0.034300 0.630910
Cl2 Cl 0.431260 0.248810 1.001680
O3 O 0.913250 0.140970 1.019980
C4 C 0.411700 0.142700 0.881200
C5 C 0.523400 0.086900 0.841300
C6 C 0.660200 0.116200 0.899100
H7 H 0.676700 0.109100 0.981400
C8 C 0.762100 0.152200 0.842110
C9 C 0.896100 0.183300 0.908680
O10 O 0.981110 0.240800 0.864630
C11 C 0.751400 0.177300 0.712900
H12 H 0.796400 0.258900 0.699400
H13 H 0.657800 0.186300 0.680400
C14 C 0.499900 0.002600 0.744900
H15 H 0.572400 -0.037900 0.717100
C16 C 0.283400 0.118400 0.825800
H17 H 0.210200 0.158000 0.853300
C18 C 0.264800 0.035400 0.729800
H19 H 0.178600 0.018700 0.692200
C20 C 1.042000 0.170900 1.087700
H21 H 1.111300 0.124500 1.054700
H22 H 1.041600 0.144700 1.168800
H23 H 1.058300 0.263300 1.084500
C24 C 0.372700 -0.022800 0.689300
H25 H 0.359900 -0.079200 0.624600
Br26 Br 0.167890 0.534300 0.869090
Cl27 Cl 0.568740 0.748810 0.498320
O28 O 0.086750 0.640970 0.480020
C29 C 0.588300 0.642700 0.618800
C30 C 0.476600 0.586900 0.658700
C31 C 0.339800 0.616200 0.600900
H32 H 0.323300 0.609100 0.518600
C33 C 0.237900 0.652200 0.657890
C34 C 0.103900 0.683300 0.591320
O35 O 0.018890 0.740800 0.635370
C36 C 0.248600 0.677300 0.787100
H37 H 0.203600 0.758900 0.800600
H38 H 0.342200 0.686300 0.819600
C39 C 0.500100 0.502600 0.755100
H40 H 0.427600 0.462100 0.782900
C41 C 0.716600 0.618400 0.674200
H42 H 0.789800 0.658000 0.646700
C43 C 0.735200 0.535400 0.770200
H44 H 0.821400 0.518700 0.807800
C45 C -0.042000 0.670900 0.412300
H46 H -0.111300 0.624500 0.445300
H47 H -0.041600 0.644700 0.331200
H48 H -0.058300 0.763300 0.415500
C49 C 0.627300 0.477200 0.810700
H50 H 0.640100 0.420800 0.875400
Br51 Br 0.167890 0.965700 0.369090
Cl52 Cl 0.568740 0.751190 -0.001680
O53 O 0.086750 0.859030 -0.019980
C54 C 0.588300 0.857300 0.118800
C55 C 0.476600 0.913100 0.158700
C56 C 0.339800 0.883800 0.100900
H57 H 0.323300 0.890900 0.018600
C58 C 0.237900 0.847800 0.157890
C59 C 0.103900 0.816700 0.091320
O60 O 0.018890 0.759200 0.135370
C61 C 0.248600 0.822700 0.287100
H62 H 0.203600 0.741100 0.300600
H63 H 0.342200 0.813700 0.319600
C64 C 0.500100 0.997400 0.255100
H65 H 0.427600 1.037900 0.282900
C66 C 0.716600 0.881600 0.174200
H67 H 0.789800 0.842000 0.146700
C68 C 0.735200 0.964600 0.270200
H69 H 0.821400 0.981300 0.307800
C70 C -0.042000 0.829100 -0.087700
H71 H -0.111300 0.875500 -0.054700
H72 H -0.041600 0.855300 -0.168800
H73 H -0.058300 0.736700 -0.084500
C74 C 0.627300 1.022800 0.310700
H75 H 0.640100 1.079200 0.375400
Br76 Br 0.832110 0.465700 0.130910
Cl77 Cl 0.431260 0.251190 0.501680
O78 O 0.913250 0.359030 0.519980
C79 C 0.411700 0.357300 0.381200
C80 C 0.523400 0.413100 0.341300
C81 C 0.660200 0.383800 0.399100
H82 H 0.676700 0.390900 0.481400
C83 C 0.762100 0.347800 0.342110
C84 C 0.896100 0.316700 0.408680
O85 O 0.981110 0.259200 0.364630
C86 C 0.751400 0.322700 0.212900
H87 H 0.796400 0.241100 0.199400
H88 H 0.657800 0.313700 0.180400
C89 C 0.499900 0.497400 0.244900
H90 H 0.572400 0.537900 0.217100
C91 C 0.283400 0.381600 0.325800
H92 H 0.210200 0.342000 0.353300
C93 C 0.264800 0.464600 0.229800
H94 H 0.178600 0.481300 0.192200
C95 C 1.042000 0.329100 0.587700
H96 H 1.111300 0.375500 0.554700
H97 H 1.041600 0.355300 0.668800
H98 H 1.058300 0.236700 0.584500
C99 C 0.372700 0.522800 0.189300
H100 H 0.359900 0.579200 0.124600

#END
