./ABAKEV_from_xyz.cif_generated_by_CrystalShift
_symmetry_cell_setting triclinic
_symmetry_space_group_name_H-M 'P 1'
loop_
_symmetry_equiv_pos_site_id
_symmetry_equiv_pos_as_xyz
1 x,y,z
_cell_length_a 7.063900
_cell_length_b 21.564000
_cell_length_c 10.698000
_cell_angle_alpha 90.000000
_cell_angle_beta 107.884000
_cell_angle_gamma 90.000000
_cell_volume 1550.841816
loop_
_atom_site_label
_atom_site_type_symbol
_atom_site_fract_x
_atom_site_fract_y
_atom_site_fract_z
O1 O 0.275900 0.516650 0.833740
N2 N 0.256660 0.464180 0.521630
C3 C 0.241900 0.482400 0.396560
C4 C 0.238500 0.436020 0.302350
H5 H 0.245800 0.393500 0.326500
C6 C 0.224700 0.452450 0.176770
H7 H 0.220700 0.421100 0.113700
C8 C 0.216200 0.514900 0.139440
H9 H 0.208900 0.525400 0.051800
C10 C 0.218400 0.560900 0.227700
H11 H 0.212600 0.603100 0.201300
C12 C 0.229200 0.545730 0.358610
C13 C 0.226500 0.590650 0.453890
H14 H 0.216900 0.633500 0.431900
C15 C 0.237900 0.572160 0.577620
H16 H 0.234000 0.601700 0.642700
C17 C 0.255700 0.508410 0.607340
C18 C 0.273400 0.484930 0.740450
H19 H 0.283600 0.441300 0.753400
O20 O 0.224100 0.016650 -0.333740
N21 N 0.243340 -0.035820 -0.021630
C22 C 0.258100 -0.017600 0.103440
C23 C 0.261500 -0.063980 0.197650
H24 H 0.254200 -0.106500 0.173500
C25 C 0.275300 -0.047550 0.323230
H26 H 0.279300 -0.078900 0.386300
C27 C 0.283800 0.014900 0.360560
H28 H 0.291100 0.025400 0.448200
C29 C 0.281600 0.060900 0.272300
H30 H 0.287400 0.103100 0.298700
C31 C 0.270800 0.045730 0.141390
C32 C 0.273500 0.090650 0.046110
H33 H 0.283100 0.133500 0.068100
C34 C 0.262100 0.072160 -0.077620
H35 H 0.266000 0.101700 -0.142700
C36 C 0.244300 0.008410 -0.107340
C37 C 0.226600 -0.015070 -0.240450
H38 H 0.216400 -0.058700 -0.253400
O39 O 0.724100 0.483350 0.166260
N40 N 0.743340 0.535820 0.478370
C41 C 0.758100 0.517600 0.603440
C42 C 0.761500 0.563980 0.697650
H43 H 0.754200 0.606500 0.673500
C44 C 0.775300 0.547550 0.823230
H45 H 0.779300 0.578900 0.886300
C46 C 0.783800 0.485100 0.860560
H47 H 0.791100 0.474600 0.948200
C48 C 0.781600 0.439100 0.772300
H49 H 0.787400 0.396900 0.798700
C50 C 0.770800 0.454270 0.641390
C51 C 0.773500 0.409350 0.546110
H52 H 0.783100 0.366500 0.568100
C53 C 0.762100 0.427840 0.422380
H54 H 0.766000 0.398300 0.357300
C55 C 0.744300 0.491590 0.392660
C56 C 0.726600 0.515070 0.259550
H57 H 0.716400 0.558700 0.246600
O58 O 0.775900 0.983350 1.333740
N59 N 0.756660 1.035820 1.021630
C60 C 0.741900 1.017600 0.896560
C61 C 0.738500 1.063980 0.802350
H62 H 0.745800 1.106500 0.826500
C63 C 0.724700 1.047550 0.676770
H64 H 0.720700 1.078900 0.613700
C65 C 0.716200 0.985100 0.639440
H66 H 0.708900 0.974600 0.551800
C67 C 0.718400 0.939100 0.727700
H68 H 0.712600 0.896900 0.701300
C69 C 0.729200 0.954270 0.858610
C70 C 0.726500 0.909350 0.953890
H71 H 0.716900 0.866500 0.931900
C72 C 0.737900 0.927840 1.077620
H73 H 0.734000 0.898300 1.142700
C74 C 0.755700 0.991590 1.107340
C75 C 0.773400 1.015070 1.240450
H76 H 0.783600 1.058700 1.253400
O77 O -0.609260 0.217920 0.275260
N78 N -0.129500 0.271090 0.436270
C79 C 0.060800 0.252500 0.500260
C80 C 0.208600 0.298460 0.546400
H81 H 0.175200 0.341100 0.532000
C82 C 0.400200 0.281330 0.611930
H83 H 0.499000 0.312300 0.643000
C84 C 0.452000 0.218790 0.633690
H85 H 0.586000 0.207800 0.678600
C86 C 0.312900 0.173250 0.591280
H87 H 0.350100 0.131000 0.607600
C88 C 0.113100 0.188950 0.522880
C89 C -0.039100 0.144170 0.477420
H90 H -0.009800 0.101300 0.491300
C91 C -0.228000 0.163210 0.413550
H92 H -0.332300 0.133900 0.382100
C93 C -0.265300 0.227330 0.395110
C94 C -0.468000 0.250530 0.324460
H95 H -0.487300 0.294100 0.317700
O96 O 1.109260 0.717920 0.224740
N97 N 0.629500 0.771090 0.063730
C98 C 0.439200 0.752500 -0.000260
C99 C 0.291400 0.798460 -0.046400
H100 H 0.324800 0.841100 -0.032000
C101 C 0.099800 0.781330 -0.111930
H102 H 0.001000 0.812300 -0.143000
C103 C 0.048000 0.718790 -0.133690
H104 H -0.086000 0.707800 -0.178600
C105 C 0.187100 0.673250 -0.091280
H106 H 0.149900 0.631000 -0.107600
C107 C 0.386900 0.688950 -0.022880
C108 C 0.539100 0.644170 0.022580
H109 H 0.509800 0.601300 0.008700
C110 C 0.728000 0.663210 0.086450
H111 H 0.832300 0.633900 0.117900
C112 C 0.765300 0.727330 0.104890
C113 C 0.968000 0.750530 0.175540
H114 H 0.987300 0.794100 0.182300
O115 O 1.609260 0.782080 0.724740
N116 N 1.129500 0.728910 0.563730
C117 C 0.939200 0.747500 0.499740
C118 C 0.791400 0.701540 0.453600
H119 H 0.824800 0.658900 0.468000
C120 C 0.599800 0.718670 0.388070
H121 H 0.501000 0.687700 0.357000
C122 C 0.548000 0.781210 0.366310
H123 H 0.414000 0.792200 0.321400
C124 C 0.687100 0.826750 0.408720
H125 H 0.649900 0.869000 0.392400
C126 C 0.886900 0.811050 0.477120
C127 C 1.039100 0.855830 0.522580
H128 H 1.009800 0.898700 0.508700
C129 C 1.228000 0.836790 0.586450
H130 H 1.332300 0.866100 0.617900
C131 C 1.265300 0.772670 0.604890
C132 C 1.468000 0.749470 0.675540
H133 H 1.487300 0.705900 0.682300
O134 O -0.109260 0.282080 0.775260
N135 N 0.370500 0.228910 0.936270
C136 C 0.560800 0.247500 1.000260
C137 C 0.708600 0.201540 1.046400
H138 H 0.675200 0.158900 1.032000
C139 C 0.900200 0.218670 1.111930
H140 H 0.999000 0.187700 1.143000
C141 C 0.952000 0.281210 1.133690
H142 H 1.086000 0.292200 1.178600
C143 C 0.812900 0.326750 1.091280
H144 H 0.850100 0.369000 1.107600
C145 C 0.613100 0.311050 1.022880
C146 C 0.460900 0.355830 0.977420
H147 H 0.490200 0.398700 0.991300
C148 C 0.272000 0.336790 0.913550
H149 H 0.167700 0.366100 0.882100
C150 C 0.234700 0.272670 0.895110
C151 C 0.032000 0.249470 0.824460
H152 H 0.012700 0.205900 0.817700

#END
