./ABALUL_from_xyz.cif_generated_by_CrystalShift
_symmetry_cell_setting triclinic
_symmetry_space_group_name_H-M 'P 1'
loop_
_symmetry_equiv_pos_site_id
_symmetry_equiv_pos_as_xyz
1 x,y,z
_cell_length_a 15.092000
_cell_length_b 15.092000
_cell_length_c 13.016000
_cell_angle_alpha 90.000000
_cell_angle_beta 90.000000
_cell_angle_gamma 90.000000
_cell_volume 2964.634327
loop_
_atom_site_label
_atom_site_type_symbol
_atom_site_fract_x
_atom_site_fract_y
_atom_site_fract_z
S1 S -0.053920 0.367800 0.211460
Cu2 Cu 0.000000 0.250000 0.293610
Cl3 Cl 0.000000 0.250000 0.464300
Cl4 Cl 0.098870 0.558510 0.071470
Cu5 Cu 0.037820 0.422970 0.089720
N6 N -0.104400 0.562400 0.465000
C7 C -0.037600 0.574500 0.400000
H8 H -0.001000 0.623700 0.407600
C9 C -0.157700 0.493700 0.456500
H10 H -0.204500 0.487500 0.502400
C11 C -0.145500 0.430500 0.380500
H12 H -0.182900 0.381800 0.375700
C13 C -0.075200 0.441800 0.311100
C14 C -0.022000 0.517300 0.323800
H15 H 0.024700 0.527500 0.278700
H16 H -0.114000 0.589000 0.533000
S17 S 0.053920 0.132200 0.211460
Cu18 Cu -0.037820 0.077030 0.089720
S19 S -0.117800 0.196080 0.038540
Cu20 Cu 0.000000 0.250000 -0.043610
S21 S 0.117800 0.303920 0.038540
Cu22 Cu 0.172970 0.212180 0.160280
C23 C 0.075200 0.058200 0.311100
C24 C 0.145500 0.069500 0.380500
C25 C 0.157700 0.006300 0.456500
N26 N 0.104400 -0.062400 0.465000
C27 C 0.037600 -0.074500 0.400000
H28 H 0.001000 -0.123700 0.407600
C29 C 0.022000 -0.017300 0.323800
H30 H -0.024700 -0.027500 0.278700
H31 H 0.114000 -0.089000 0.533000
H32 H 0.204500 0.012500 0.502400
H33 H 0.182900 0.118200 0.375700
Cl34 Cl 0.308510 0.151130 0.178530
Cu35 Cu -0.172970 0.287820 0.160280
C36 C -0.191800 0.174800 -0.061100
C37 C -0.180500 0.104500 -0.130500
C38 C -0.243700 0.092300 -0.206500
N39 N -0.312400 0.145600 -0.215000
C40 C -0.324500 0.212400 -0.150000
H41 H -0.373700 0.249000 -0.157600
C42 C -0.267300 0.228000 -0.073800
H43 H -0.277500 0.274700 -0.028700
H44 H -0.339000 0.136000 -0.283000
H45 H -0.237500 0.045500 -0.252400
H46 H -0.131800 0.067100 -0.125700
Cl47 Cl -0.308510 0.348870 0.178530
C48 C 0.191800 0.325200 -0.061100
C49 C 0.180500 0.395500 -0.130500
C50 C 0.243700 0.407700 -0.206500
N51 N 0.312400 0.354400 -0.215000
C52 C 0.324500 0.287600 -0.150000
H53 H 0.373700 0.251000 -0.157600
C54 C 0.267300 0.272000 -0.073800
H55 H 0.277500 0.225300 -0.028700
H56 H 0.339000 0.364000 -0.283000
H57 H 0.237500 0.454500 -0.252400
H58 H 0.131800 0.432900 -0.125700
Cl59 Cl 0.000000 0.250000 -0.214300
Cl60 Cl -0.098870 -0.058510 0.071470
S61 S 0.946080 0.367800 0.211460
Cu62 Cu 1.000000 0.250000 0.293610
Cl63 Cl 1.000000 0.250000 0.464300
Cl64 Cl 1.098870 0.558510 0.071470
Cu65 Cu 1.037820 0.422970 0.089720
N66 N 0.895600 0.562400 0.465000
C67 C 0.962400 0.574500 0.400000
H68 H 0.999000 0.623700 0.407600
C69 C 0.842300 0.493700 0.456500
H70 H 0.795500 0.487500 0.502400
C71 C 0.854500 0.430500 0.380500
H72 H 0.817100 0.381800 0.375700
C73 C 0.924800 0.441800 0.311100
C74 C 0.978000 0.517300 0.323800
H75 H 1.024700 0.527500 0.278700
H76 H 0.886000 0.589000 0.533000
S77 S 1.053920 0.132200 0.211460
Cu78 Cu 0.962180 0.077030 0.089720
S79 S 0.882200 0.196080 0.038540
Cu80 Cu 1.000000 0.250000 -0.043610
S81 S 1.117800 0.303920 0.038540
Cu82 Cu 1.172970 0.212180 0.160280
C83 C 1.075200 0.058200 0.311100
C84 C 1.145500 0.069500 0.380500
C85 C 1.157700 0.006300 0.456500
N86 N 1.104400 -0.062400 0.465000
C87 C 1.037600 -0.074500 0.400000
H88 H 1.001000 -0.123700 0.407600
C89 C 1.022000 -0.017300 0.323800
H90 H 0.975300 -0.027500 0.278700
H91 H 1.114000 -0.089000 0.533000
H92 H 1.204500 0.012500 0.502400
H93 H 1.182900 0.118200 0.375700
Cl94 Cl 1.308510 0.151130 0.178530
Cu95 Cu 0.827030 0.287820 0.160280
C96 C 0.808200 0.174800 -0.061100
C97 C 0.819500 0.104500 -0.130500
C98 C 0.756300 0.092300 -0.206500
N99 N 0.687600 0.145600 -0.215000
C100 C 0.675500 0.212400 -0.150000
H101 H 0.626300 0.249000 -0.157600
C102 C 0.732700 0.228000 -0.073800
H103 H 0.722500 0.274700 -0.028700
H104 H 0.661000 0.136000 -0.283000
H105 H 0.762500 0.045500 -0.252400
H106 H 0.868200 0.067100 -0.125700
Cl107 Cl 0.691490 0.348870 0.178530
C108 C 1.191800 0.325200 -0.061100
C109 C 1.180500 0.395500 -0.130500
C110 C 1.243700 0.407700 -0.206500
N111 N 1.312400 0.354400 -0.215000
C112 C 1.324500 0.287600 -0.150000
H113 H 1.373700 0.251000 -0.157600
C114 C 1.267300 0.272000 -0.073800
H115 H 1.277500 0.225300 -0.028700
H116 H 1.339000 0.364000 -0.283000
H117 H 1.237500 0.454500 -0.252400
H118 H 1.131800 0.432900 -0.125700
Cl119 Cl 1.000000 0.250000 -0.214300
Cl120 Cl 0.901130 -0.058510 0.071470
S121 S 0.382200 0.196080 0.461460
Cu122 Cu 0.500000 0.250000 0.543610
Cl123 Cl 0.500000 0.250000 0.714300
Cl124 Cl 0.191490 0.348870 0.321470
Cu125 Cu 0.327030 0.287820 0.339720
N126 N 0.187600 0.145600 0.715000
C127 C 0.175500 0.212400 0.650000
H128 H 0.126300 0.249000 0.657600
C129 C 0.256300 0.092300 0.706500
H130 H 0.262500 0.045500 0.752400
C131 C 0.319500 0.104500 0.630500
H132 H 0.368200 0.067100 0.625700
C133 C 0.308200 0.174800 0.561100
C134 C 0.232700 0.228000 0.573800
H135 H 0.222500 0.274700 0.528700
H136 H 0.161000 0.136000 0.783000
S137 S 0.617800 0.303920 0.461460
Cu138 Cu 0.672970 0.212180 0.339720
S139 S 0.553920 0.132200 0.288540
Cu140 Cu 0.500000 0.250000 0.206390
S141 S 0.446080 0.367800 0.288540
Cu142 Cu 0.537820 0.422970 0.410280
C143 C 0.691800 0.325200 0.561100
C144 C 0.680500 0.395500 0.630500
C145 C 0.743700 0.407700 0.706500
N146 N 0.812400 0.354400 0.715000
C147 C 0.824500 0.287600 0.650000
H148 H 0.873700 0.251000 0.657600
C149 C 0.767300 0.272000 0.573800
H150 H 0.777500 0.225300 0.528700
H151 H 0.839000 0.364000 0.783000
H152 H 0.737500 0.454500 0.752400
H153 H 0.631800 0.432900 0.625700
Cl154 Cl 0.598870 0.558510 0.428530
Cu155 Cu 0.462180 0.077030 0.410280
C156 C 0.575200 0.058200 0.188900
C157 C 0.645500 0.069500 0.119500
C158 C 0.657700 0.006300 0.043500
N159 N 0.604400 -0.062400 0.035000
C160 C 0.537600 -0.074500 0.100000
H161 H 0.501000 -0.123700 0.092400
C162 C 0.522000 -0.017300 0.176200
H163 H 0.475300 -0.027500 0.221300
H164 H 0.614000 -0.089000 -0.033000
H165 H 0.704500 0.012500 -0.002400
H166 H 0.682900 0.118200 0.124300
Cl167 Cl 0.401130 -0.058510 0.428530
C168 C 0.424800 0.441800 0.188900
C169 C 0.354500 0.430500 0.119500
C170 C 0.342300 0.493700 0.043500
N171 N 0.395600 0.562400 0.035000
C172 C 0.462400 0.574500 0.100000
H173 H 0.499000 0.623700 0.092400
C174 C 0.478000 0.517300 0.176200
H175 H 0.524700 0.527500 0.221300
H176 H 0.386000 0.589000 -0.033000
H177 H 0.295500 0.487500 -0.002400
H178 H 0.317100 0.381800 0.124300
Cl179 Cl 0.500000 0.250000 0.035700
Cl180 Cl 0.808510 0.151130 0.321470
S181 S 0.446080 0.867800 0.711460
Cu182 Cu 0.500000 0.750000 0.793610
Cl183 Cl 0.500000 0.750000 0.964300
Cl184 Cl 0.598870 1.058510 0.571470
Cu185 Cu 0.537820 0.922970 0.589720
N186 N 0.395600 1.062400 0.965000
C187 C 0.462400 1.074500 0.900000
H188 H 0.499000 1.123700 0.907600
C189 C 0.342300 0.993700 0.956500
H190 H 0.295500 0.987500 1.002400
C191 C 0.354500 0.930500 0.880500
H192 H 0.317100 0.881800 0.875700
C193 C 0.424800 0.941800 0.811100
C194 C 0.478000 1.017300 0.823800
H195 H 0.524700 1.027500 0.778700
H196 H 0.386000 1.089000 1.033000
S197 S 0.553920 0.632200 0.711460
Cu198 Cu 0.462180 0.577030 0.589720
S199 S 0.382200 0.696080 0.538540
Cu200 Cu 0.500000 0.750000 0.456390
S201 S 0.617800 0.803920 0.538540
Cu202 Cu 0.672970 0.712180 0.660280
C203 C 0.575200 0.558200 0.811100
C204 C 0.645500 0.569500 0.880500
C205 C 0.657700 0.506300 0.956500
N206 N 0.604400 0.437600 0.965000
C207 C 0.537600 0.425500 0.900000
H208 H 0.501000 0.376300 0.907600
C209 C 0.522000 0.482700 0.823800
H210 H 0.475300 0.472500 0.778700
H211 H 0.614000 0.411000 1.033000
H212 H 0.704500 0.512500 1.002400
H213 H 0.682900 0.618200 0.875700
Cl214 Cl 0.808510 0.651130 0.678530
Cu215 Cu 0.327030 0.787820 0.660280
C216 C 0.308200 0.674800 0.438900
C217 C 0.319500 0.604500 0.369500
C218 C 0.256300 0.592300 0.293500
N219 N 0.187600 0.645600 0.285000
C220 C 0.175500 0.712400 0.350000
H221 H 0.126300 0.749000 0.342400
C222 C 0.232700 0.728000 0.426200
H223 H 0.222500 0.774700 0.471300
H224 H 0.161000 0.636000 0.217000
H225 H 0.262500 0.545500 0.247600
H226 H 0.368200 0.567100 0.374300
Cl227 Cl 0.191490 0.848870 0.678530
C228 C 0.691800 0.825200 0.438900
C229 C 0.680500 0.895500 0.369500
C230 C 0.743700 0.907700 0.293500
N231 N 0.812400 0.854400 0.285000
C232 C 0.824500 0.787600 0.350000
H233 H 0.873700 0.751000 0.342400
C234 C 0.767300 0.772000 0.426200
H235 H 0.777500 0.725300 0.471300
H236 H 0.839000 0.864000 0.217000
H237 H 0.737500 0.954500 0.247600
H238 H 0.631800 0.932900 0.374300
Cl239 Cl 0.500000 0.750000 0.285700
Cl240 Cl 0.401130 0.441490 0.571470
S241 S -0.117800 0.696080 0.961460
Cu242 Cu 0.000000 0.750000 1.043610
Cl243 Cl 0.000000 0.750000 1.214300
Cl244 Cl -0.308510 0.848870 0.821470
Cu245 Cu -0.172970 0.787820 0.839720
N246 N -0.312400 0.645600 1.215000
C247 C -0.324500 0.712400 1.150000
H248 H -0.373700 0.749000 1.157600
C249 C -0.243700 0.592300 1.206500
H250 H -0.237500 0.545500 1.252400
C251 C -0.180500 0.604500 1.130500
H252 H -0.131800 0.567100 1.125700
C253 C -0.191800 0.674800 1.061100
C254 C -0.267300 0.728000 1.073800
H255 H -0.277500 0.774700 1.028700
H256 H -0.339000 0.636000 1.283000
S257 S 0.117800 0.803920 0.961460
Cu258 Cu 0.172970 0.712180 0.839720
S259 S 0.053920 0.632200 0.788540
Cu260 Cu 0.000000 0.750000 0.706390
S261 S -0.053920 0.867800 0.788540
Cu262 Cu 0.037820 0.922970 0.910280
C263 C 0.191800 0.825200 1.061100
C264 C 0.180500 0.895500 1.130500
C265 C 0.243700 0.907700 1.206500
N266 N 0.312400 0.854400 1.215000
C267 C 0.324500 0.787600 1.150000
H268 H 0.373700 0.751000 1.157600
C269 C 0.267300 0.772000 1.073800
H270 H 0.277500 0.725300 1.028700
H271 H 0.339000 0.864000 1.283000
H272 H 0.237500 0.954500 1.252400
H273 H 0.131800 0.932900 1.125700
Cl274 Cl 0.098870 1.058510 0.928530
Cu275 Cu -0.037820 0.577030 0.910280
C276 C 0.075200 0.558200 0.688900
C277 C 0.145500 0.569500 0.619500
C278 C 0.157700 0.506300 0.543500
N279 N 0.104400 0.437600 0.535000
C280 C 0.037600 0.425500 0.600000
H281 H 0.001000 0.376300 0.592400
C282 C 0.022000 0.482700 0.676200
H283 H -0.024700 0.472500 0.721300
H284 H 0.114000 0.411000 0.467000
H285 H 0.204500 0.512500 0.497600
H286 H 0.182900 0.618200 0.624300
Cl287 Cl -0.098870 0.441490 0.928530
C288 C -0.075200 0.941800 0.688900
C289 C -0.145500 0.930500 0.619500
C290 C -0.157700 0.993700 0.543500
N291 N -0.104400 1.062400 0.535000
C292 C -0.037600 1.074500 0.600000
H293 H -0.001000 1.123700 0.592400
C294 C -0.022000 1.017300 0.676200
H295 H 0.024700 1.027500 0.721300
H296 H -0.114000 1.089000 0.467000
H297 H -0.204500 0.987500 0.497600
H298 H -0.182900 0.881800 0.624300
Cl299 Cl 0.000000 0.750000 0.535700
Cl300 Cl 0.308510 0.651130 0.821470
S301 S 0.882200 0.696080 0.961460
Cu302 Cu 1.000000 0.750000 1.043610
Cl303 Cl 1.000000 0.750000 1.214300
Cl304 Cl 0.691490 0.848870 0.821470
Cu305 Cu 0.827030 0.787820 0.839720
N306 N 0.687600 0.645600 1.215000
C307 C 0.675500 0.712400 1.150000
H308 H 0.626300 0.749000 1.157600
C309 C 0.756300 0.592300 1.206500
H310 H 0.762500 0.545500 1.252400
C311 C 0.819500 0.604500 1.130500
H312 H 0.868200 0.567100 1.125700
C313 C 0.808200 0.674800 1.061100
C314 C 0.732700 0.728000 1.073800
H315 H 0.722500 0.774700 1.028700
H316 H 0.661000 0.636000 1.283000
S317 S 1.117800 0.803920 0.961460
Cu318 Cu 1.172970 0.712180 0.839720
S319 S 1.053920 0.632200 0.788540
Cu320 Cu 1.000000 0.750000 0.706390
S321 S 0.946080 0.867800 0.788540
Cu322 Cu 1.037820 0.922970 0.910280
C323 C 1.191800 0.825200 1.061100
C324 C 1.180500 0.895500 1.130500
C325 C 1.243700 0.907700 1.206500
N326 N 1.312400 0.854400 1.215000
C327 C 1.324500 0.787600 1.150000
H328 H 1.373700 0.751000 1.157600
C329 C 1.267300 0.772000 1.073800
H330 H 1.277500 0.725300 1.028700
H331 H 1.339000 0.864000 1.283000
H332 H 1.237500 0.954500 1.252400
H333 H 1.131800 0.932900 1.125700
Cl334 Cl 1.098870 1.058510 0.928530
Cu335 Cu 0.962180 0.577030 0.910280
C336 C 1.075200 0.558200 0.688900
C337 C 1.145500 0.569500 0.619500
C338 C 1.157700 0.506300 0.543500
N339 N 1.104400 0.437600 0.535000
C340 C 1.037600 0.425500 0.600000
H341 H 1.001000 0.376300 0.592400
C342 C 1.022000 0.482700 0.676200
H343 H 0.975300 0.472500 0.721300
H344 H 1.114000 0.411000 0.467000
H345 H 1.204500 0.512500 0.497600
H346 H 1.182900 0.618200 0.624300
Cl347 Cl 0.901130 0.441490 0.928530
C348 C 0.924800 0.941800 0.688900
C349 C 0.854500 0.930500 0.619500
C350 C 0.842300 0.993700 0.543500
N351 N 0.895600 1.062400 0.535000
C352 C 0.962400 1.074500 0.600000
H353 H 0.999000 1.123700 0.592400
C354 C 0.978000 1.017300 0.676200
H355 H 1.024700 1.027500 0.721300
H356 H 0.886000 1.089000 0.467000
H357 H 0.795500 0.987500 0.497600
H358 H 0.817100 0.881800 0.624300
Cl359 Cl 1.000000 0.750000 0.535700
Cl360 Cl 1.308510 0.651130 0.821470

#END
