
#######################################################################
#
#                 Cambridge Crystallographic Data Centre
#                                CCDC 
#
#######################################################################
#
# If this CIF has been generated from an entry in the Cambridge 
# Structural Database, then it will include bibliographic, chemical, 
# crystal, experimental, refinement or atomic coordinate data resulting 
# from the CCDC's data processing and validation procedures.
#
#######################################################################

data_ABAPOK
_symmetry_cell_setting           triclinic
_symmetry_space_group_name_H-M   'P -1'
_symmetry_Int_Tables_number      2
_space_group_name_Hall           '-P 1'
loop_
_symmetry_equiv_pos_site_id
_symmetry_equiv_pos_as_xyz
1 x,y,z
2 -x,-y,-z
_cell_length_a                   8.8860(4)
_cell_length_b                   9.3428(5)
_cell_length_c                   12.1494(6)
_cell_angle_alpha                72.289(3)
_cell_angle_beta                 74.319(2)
_cell_angle_gamma                63.429(2)
_cell_volume                     848.627
loop_
_atom_site_label
_atom_site_type_symbol
_atom_site_fract_x
_atom_site_fract_y
_atom_site_fract_z
C1 C 0.76040(18) 0.46783(19) 0.49605(13)
H1 H 0.8399 0.4114 0.4401
C2 C 0.7342(2) 0.6270(2) 0.48827(14)
H2 H 0.7965 0.6772 0.4281
C3 C 0.6153(2) 0.71133(19) 0.57003(15)
H3 H 0.5972 0.8191 0.5646
C4 C 0.52179(19) 0.63806(17) 0.66070(13)
H4 H 0.4415 0.6963 0.7155
C5 C 0.54922(15) 0.47730(15) 0.66875(11)
C6 C 0.67024(15) 0.38967(16) 0.58609(11)
C7 C 0.69450(17) 0.22183(17) 0.59516(12)
H5 H 0.6076 0.1872 0.6359
C8 C 0.25890(16) 0.35977(17) 0.91804(11)
C9 C 0.31776(17) 0.23354(17) 1.00615(12)
H6 H 0.2466 0.1781 1.0421
C10 C 0.47403(17) 0.16776(16) 1.05564(12)
C11 C 0.62373(18) 0.18941(19) 0.99839(13)
H7 H 0.6292 0.2485 0.9215
C12 C 0.7634(2) 0.1246(2) 1.05398(15)
H8 H 0.8618 0.1414 1.0152
C13 C 0.7569(2) 0.03523(19) 1.16672(14)
C14 C 0.6130(2) 0.0072(2) 1.22484(15)
H9 H 0.6102 -0.0555 1.3007
C15 C 0.4742(2) 0.07297(19) 1.16918(14)
H10 H 0.3772 0.0539 1.2083
C16 C -0.1064(2) 0.5320(3) 0.76182(19)
H11 H -0.0975 0.4408 0.7358
H12 H -0.1339 0.6279 0.6999
H13 H -0.1945 0.5510 0.8285
C17 C 0.09091(18) 0.38980(19) 0.89357(13)
N1 N 0.83143(16) 0.12225(15) 0.54872(12)
O1 O 0.82593(17) -0.03007(15) 0.56443(13)
H14 H 0.9160 -0.0912 0.5328
O2 O 0.46629(12) 0.39236(12) 0.75426(8)
O3 O -0.00369(16) 0.32873(18) 0.95683(13)
O4 O 0.05387(15) 0.49645(18) 0.79367(11)
Cl1 Cl 0.93049(7) -0.04275(8) 1.23850(5)
C18 C 0.34517(17) 0.47105(16) 0.84520(12)
H15 H 0.2621 0.5754 0.8114
H16 H 0.4027 0.4906 0.8930
C1 C 0.23960(18) 0.53217(19) 0.50395(13)
H1 H 0.1601 0.5886 0.5599
C2 C 0.2658(2) 0.3730(2) 0.51173(14)
H2 H 0.2035 0.3228 0.5719
C3 C 0.3847(2) 0.28867(19) 0.42997(15)
H3 H 0.4028 0.1809 0.4354
C4 C 0.47821(19) 0.36194(17) 0.33930(13)
H4 H 0.5585 0.3037 0.2845
C5 C 0.45078(15) 0.52270(15) 0.33125(11)
C6 C 0.32976(15) 0.61033(16) 0.41391(11)
C7 C 0.30550(17) 0.77817(17) 0.40484(12)
H5 H 0.3924 0.8128 0.3641
C8 C 0.74110(16) 0.64023(17) 0.08196(11)
C9 C 0.68224(17) 0.76646(17) -0.00615(12)
H6 H 0.7534 0.8219 -0.0421
C10 C 0.52597(17) 0.83224(16) -0.05564(12)
C11 C 0.37627(18) 0.81059(19) 0.00161(13)
H7 H 0.3708 0.7515 0.0785
C12 C 0.2366(2) 0.8754(2) -0.05398(15)
H8 H 0.1382 0.8586 -0.0152
C13 C 0.2431(2) 0.96477(19) -0.16672(14)
C14 C 0.3870(2) 0.9928(2) -0.22484(15)
H9 H 0.3898 1.0555 -0.3007
C15 C 0.5258(2) 0.92703(19) -0.16918(14)
H10 H 0.6228 0.9461 -0.2083
C16 C 1.1064(2) 0.4680(3) 0.23818(19)
H11 H 1.0975 0.5592 0.2642
H12 H 1.1339 0.3721 0.3001
H13 H 1.1945 0.4490 0.1715
C17 C 0.90909(18) 0.61020(19) 0.10643(13)
N1 N 0.16857(16) 0.87775(15) 0.45128(12)
O1 O 0.17407(17) 1.03007(15) 0.43557(13)
H14 H 0.0840 1.0912 0.4672
O2 O 0.53371(12) 0.60764(12) 0.24574(8)
O3 O 1.00369(16) 0.67127(18) 0.04317(13)
O4 O 0.94613(15) 0.50355(18) 0.20633(11)
Cl1 Cl 0.06951(7) 1.04275(8) -0.23850(5)
C18 C 0.65483(17) 0.52895(16) 0.15480(12)
H15 H 0.7379 0.4246 0.1886
H16 H 0.5973 0.5094 0.1070

#END
