./ABCLUA10_from_xyz.cif_generated_by_CrystalShift
_symmetry_cell_setting triclinic
_symmetry_space_group_name_H-M 'P 1'
loop_
_symmetry_equiv_pos_site_id
_symmetry_equiv_pos_as_xyz
1 x,y,z
_cell_length_a 11.206000
_cell_length_b 8.248000
_cell_length_c 14.272000
_cell_angle_alpha 90.000000
_cell_angle_beta 107.660000
_cell_angle_gamma 90.000000
_cell_volume 1256.953957
loop_
_atom_site_label
_atom_site_type_symbol
_atom_site_fract_x
_atom_site_fract_y
_atom_site_fract_z
C1 C 0.259900 0.570800 0.643800
C2 C 0.319600 0.533500 0.750700
C3 C 0.425600 0.647500 0.802300
C4 C 0.484900 0.608400 0.911600
C5 C 0.622500 0.634000 0.930000
C6 C 0.645400 0.563000 0.837200
C7 C 0.777800 0.582500 0.832100
C8 C 0.534900 0.642900 0.756700
C9 C 0.560000 0.810300 0.730900
C10 C 0.811300 0.510500 0.744800
C11 C 0.786800 0.327600 0.728700
C12 C 0.653800 0.277700 0.685300
C13 C 0.574400 0.333500 0.601900
C14 C 0.443000 0.286400 0.563900
C15 C 0.356800 0.362800 0.493400
C16 C 0.222000 0.324700 0.461300
C17 C 0.140200 0.446400 0.492400
O18 O 0.183700 0.451200 0.599500
H19 H 0.873000 -0.045000 0.947000
H20 H -0.046000 0.463000 0.492000
H21 H -0.029000 0.385000 0.403000
O22 O 0.558100 0.928500 0.761300
C23 C 0.761100 0.642400 1.093600
C24 C 0.803500 0.546500 1.185500
C25 C 0.339300 0.658500 1.002200
O26 O 0.837200 0.252800 0.825300
O27 O 0.872700 0.021600 0.756700
C28 C 0.004900 0.403100 0.461300
O29 O 0.693100 0.551500 1.018100
O30 O 0.787500 0.779900 1.084900
O31 O 0.437700 0.709700 0.972100
C32 C 0.948000 0.548200 0.756000
C33 C 0.875700 0.099500 0.827900
C34 C 0.923500 0.039000 0.931200
O35 O 0.279600 0.691000 0.603000
H36 H 0.268000 0.503000 0.781000
H37 H 0.397000 0.747000 0.798000
H38 H 0.641000 0.749000 0.932000
H39 H 0.795000 0.701000 0.833000
H40 H 0.766000 0.556000 0.688000
H41 H 0.627000 0.192000 0.708000
H42 H 0.415000 0.186000 0.585000
H43 H 0.201000 0.192000 0.475000
H44 H 0.159000 0.543000 0.468000
H45 H 0.600000 0.810000 0.675000
H46 H 0.857000 0.654000 1.227000
H47 H 0.968000 0.663000 0.762000
H48 H 1.007000 0.506000 0.812000
H49 H 0.339000 0.431000 0.760000
H50 H 0.468000 0.494000 0.917000
H51 H 0.622000 0.450000 0.837000
H52 H 0.839000 0.535000 0.890000
H53 H 0.828000 0.278000 0.684000
H54 H 0.606000 0.416000 0.570000
H55 H 0.378000 0.441000 0.468000
H56 H 0.185000 0.301000 0.396000
H57 H 0.519000 0.576000 0.697000
H58 H 0.756000 0.503000 1.202000
H59 H 0.819000 0.431000 1.168000
H60 H 0.957000 0.512000 0.699000
H61 H 0.938000 0.128000 0.982000
H62 H 0.991000 0.010000 0.923000
H63 H 0.000000 0.284000 0.498000
C64 C 0.740100 1.070800 0.356200
C65 C 0.680400 1.033500 0.249300
C66 C 0.574400 1.147500 0.197700
C67 C 0.515100 1.108400 0.088400
C68 C 0.377500 1.134000 0.070000
C69 C 0.354600 1.063000 0.162800
C70 C 0.222200 1.082500 0.167900
C71 C 0.465100 1.142900 0.243300
C72 C 0.440000 1.310300 0.269100
C73 C 0.188700 1.010500 0.255200
C74 C 0.213200 0.827600 0.271300
C75 C 0.346200 0.777700 0.314700
C76 C 0.425600 0.833500 0.398100
C77 C 0.557000 0.786400 0.436100
C78 C 0.643200 0.862800 0.506600
C79 C 0.778000 0.824700 0.538700
C80 C 0.859800 0.946400 0.507600
O81 O 0.816300 0.951200 0.400500
H82 H 0.127000 0.455000 0.053000
H83 H 1.046000 0.963000 0.508000
H84 H 1.029000 0.885000 0.597000
O85 O 0.441900 1.428500 0.238700
C86 C 0.238900 1.142400 -0.093600
C87 C 0.196500 1.046500 -0.185500
C88 C 0.660700 1.158500 -0.002200
O89 O 0.162800 0.752800 0.174700
O90 O 0.127300 0.521600 0.243300
C91 C 0.995100 0.903100 0.538700
O92 O 0.306900 1.051500 -0.018100
O93 O 0.212500 1.279900 -0.084900
O94 O 0.562300 1.209700 0.027900
C95 C 0.052000 1.048200 0.244000
C96 C 0.124300 0.599500 0.172100
C97 C 0.076500 0.539000 0.068800
O98 O 0.720400 1.191000 0.397000
H99 H 0.732000 1.003000 0.219000
H100 H 0.603000 1.247000 0.202000
H101 H 0.359000 1.249000 0.068000
H102 H 0.205000 1.201000 0.167000
H103 H 0.234000 1.056000 0.312000
H104 H 0.373000 0.692000 0.292000
H105 H 0.585000 0.686000 0.415000
H106 H 0.799000 0.692000 0.525000
H107 H 0.841000 1.043000 0.532000
H108 H 0.400000 1.310000 0.325000
H109 H 0.143000 1.154000 -0.227000
H110 H 0.032000 1.163000 0.238000
H111 H -0.007000 1.006000 0.188000
H112 H 0.661000 0.931000 0.240000
H113 H 0.532000 0.994000 0.083000
H114 H 0.378000 0.950000 0.163000
H115 H 0.161000 1.035000 0.110000
H116 H 0.172000 0.778000 0.316000
H117 H 0.394000 0.916000 0.430000
H118 H 0.622000 0.941000 0.532000
H119 H 0.815000 0.801000 0.604000
H120 H 0.481000 1.076000 0.303000
H121 H 0.244000 1.003000 -0.202000
H122 H 0.181000 0.931000 -0.168000
H123 H 0.043000 1.012000 0.301000
H124 H 0.062000 0.628000 0.018000
H125 H 0.009000 0.510000 0.077000
H126 H 1.000000 0.784000 0.502000

#END
