
#######################################################################
#
#                 Cambridge Crystallographic Data Centre
#                                CCDC 
#
#######################################################################
#
# If this CIF has been generated from an entry in the Cambridge 
# Structural Database, then it will include bibliographic, chemical, 
# crystal, experimental, refinement or atomic coordinate data resulting 
# from the CCDC's data processing and validation procedures.
#
#######################################################################

data_ABEBEP
_symmetry_cell_setting           triclinic
_symmetry_space_group_name_H-M   'P -1'
_symmetry_Int_Tables_number      2
_space_group_name_Hall           '-P 1'
loop_
_symmetry_equiv_pos_site_id
_symmetry_equiv_pos_as_xyz
1 x,y,z
2 -x,-y,-z
_cell_length_a                   5.921(2)
_cell_length_b                   8.057(3)
_cell_length_c                   11.136(4)
_cell_angle_alpha                70.92(3)
_cell_angle_beta                 87.63(3)
_cell_angle_gamma                83.82(3)
_cell_volume                     499.135
loop_
_atom_site_label
_atom_site_type_symbol
_atom_site_fract_x
_atom_site_fract_y
_atom_site_fract_z
O1 O 1.0271(3) 0.7320(2) 0.45409(16)
O2 O 0.8086(3) 0.8517(2) -0.02331(16)
N1 N 0.8417(3) 0.9238(2) 0.15328(16)
H1 H 0.9381 0.9947 0.1121
N2 N 0.8056(3) 0.5996(2) 0.36278(16)
H2 H 0.8696 0.5010 0.4114
C1 C 0.6064(4) 0.6912(3) 0.1569(2)
C2 C 0.9142(4) 1.0712(3) 0.3021(2)
H3 H 1.0739 1.0495 0.2874
H4 H 0.8898 1.0730 0.3874
H5 H 0.8569 1.1829 0.2433
C3 C 0.4332(4) 0.6628(3) 0.0872(2)
H6 H 0.4139 0.7326 0.0026
C4 C 0.4905(4) 0.4523(3) 0.3351(2)
H7 H 0.5107 0.3792 0.4188
C5 C 0.6343(4) 0.5845(3) 0.2833(2)
C6 C 0.7899(4) 0.9244(3) 0.28318(19)
C7 C 0.5354(4) 0.9603(3) 0.3069(2)
H8 H 0.4743 1.0637 0.2409
H9 H 0.5133 0.9789 0.3877
H10 H 0.4591 0.8610 0.3070
C8 C 0.7596(4) 0.8283(3) 0.0904(2)
C9 C 0.8842(4) 0.7443(3) 0.3742(2)
C10 C 0.3195(4) 0.4285(3) 0.2646(3)
H11 H 0.2238 0.3408 0.3011
C11 C 0.2891(4) 0.5332(3) 0.1408(3)
H12 H 0.1728 0.5175 0.0931
O1 O -0.0271(3) 0.2680(2) 0.54591(16)
O2 O 0.1914(3) 0.1483(2) 1.02331(16)
N1 N 0.1583(3) 0.0762(2) 0.84672(16)
H1 H 0.0619 0.0053 0.8879
N2 N 0.1944(3) 0.4004(2) 0.63722(16)
H2 H 0.1304 0.4990 0.5886
C1 C 0.3936(4) 0.3088(3) 0.8431(2)
C2 C 0.0858(4) -0.0712(3) 0.6979(2)
H3 H -0.0739 -0.0495 0.7126
H4 H 0.1102 -0.0730 0.6126
H5 H 0.1431 -0.1829 0.7567
C3 C 0.5668(4) 0.3372(3) 0.9128(2)
H6 H 0.5861 0.2674 0.9974
C4 C 0.5095(4) 0.5477(3) 0.6649(2)
H7 H 0.4893 0.6208 0.5812
C5 C 0.3657(4) 0.4155(3) 0.7167(2)
C6 C 0.2101(4) 0.0756(3) 0.71682(19)
C7 C 0.4646(4) 0.0397(3) 0.6931(2)
H8 H 0.5257 -0.0637 0.7591
H9 H 0.4867 0.0211 0.6123
H10 H 0.5409 0.1390 0.6930
C8 C 0.2404(4) 0.1717(3) 0.9096(2)
C9 C 0.1158(4) 0.2557(3) 0.6258(2)
C10 C 0.6805(4) 0.5715(3) 0.7354(3)
H11 H 0.7762 0.6592 0.6989
C11 C 0.7109(4) 0.4668(3) 0.8592(3)
H12 H 0.8272 0.4825 0.9069

#END
