./ABEDIU01_from_xyz.cif_generated_by_CrystalShift
_symmetry_cell_setting triclinic
_symmetry_space_group_name_H-M 'P 1'
loop_
_symmetry_equiv_pos_site_id
_symmetry_equiv_pos_as_xyz
1 x,y,z
_cell_length_a 4.717700
_cell_length_b 16.964300
_cell_length_c 19.449400
_cell_angle_alpha 71.100000
_cell_angle_beta 88.345000
_cell_angle_gamma 89.735000
_cell_volume 1472.028307
loop_
_atom_site_label
_atom_site_type_symbol
_atom_site_fract_x
_atom_site_fract_y
_atom_site_fract_z
S1 S 0.810280 0.097860 0.498610
S2 S 1.131980 0.121430 0.699870
O3 O 0.454000 -0.157380 0.648290
O4 O 1.718800 0.336450 0.608250
N5 N 0.710100 0.029510 0.635760
N6 N 1.214700 0.199680 0.562930
C7 C 0.568900 0.015540 0.526220
C8 C 0.542000 -0.011290 0.601340
C9 C 0.349500 -0.078570 0.648410
H10 H 0.354000 -0.076300 0.697700
H11 H 0.157000 -0.071800 0.630000
C12 C 0.260800 -0.222640 0.685530
H13 H 0.065000 -0.207900 0.666800
H14 H 0.249000 -0.227300 0.736600
C15 C 0.352000 -0.302130 0.673730
H16 H 0.241000 -0.348800 0.702300
C17 C 0.549900 -0.309400 0.627900
H18 H 0.664000 -0.261600 0.601000
H19 H 0.578000 -0.366000 0.620400
C20 C 0.863200 0.087320 0.588300
C21 C 1.067800 0.138670 0.609280
C22 C 1.372900 0.201150 0.674160
H23 H 1.486000 0.215800 0.708700
C24 C 1.389200 0.235200 0.600520
C25 C 1.575700 0.306410 0.558280
H26 H 1.711000 0.285400 0.528900
H27 H 1.460000 0.352300 0.525300
C28 C 1.871900 0.411250 0.573100
H29 H 1.728000 0.457800 0.553900
H30 H 1.981000 0.406000 0.533100
C31 C 2.067700 0.427700 0.626000
H32 H 2.247000 0.386000 0.651000
C33 C 2.078600 0.491700 0.644600
H34 H 1.952800 0.536600 0.624300
H35 H 2.212700 0.495400 0.678900
C36 C 0.431100 -0.015540 0.473780
S37 S 0.189720 -0.097860 0.501390
C38 C 0.136800 -0.087320 0.411700
N39 N 0.289900 -0.029510 0.364240
C40 C 0.458000 0.011290 0.398660
C41 C 0.650500 0.078570 0.351590
O42 O 0.546000 0.157380 0.351710
C43 C 0.739200 0.222640 0.314470
H44 H 0.935000 0.207900 0.333200
H45 H 0.751000 0.227300 0.263400
C46 C 0.648000 0.302130 0.326270
H47 H 0.759000 0.348800 0.297700
C48 C 0.450100 0.309400 0.372100
H49 H 0.336000 0.261600 0.399000
H50 H 0.422000 0.366000 0.379600
H51 H 0.646000 0.076300 0.302300
H52 H 0.843000 0.071800 0.370000
C53 C -0.067800 -0.138670 0.390720
S54 S -0.131980 -0.121430 0.300130
C55 C -0.372900 -0.201150 0.325840
H56 H -0.486000 -0.215800 0.291300
C57 C -0.389200 -0.235200 0.399480
N58 N -0.214700 -0.199680 0.437070
C59 C -0.575700 -0.306410 0.441720
O60 O -0.718800 -0.336450 0.391750
C61 C -0.871900 -0.411250 0.426900
H62 H -0.728000 -0.457800 0.446100
H63 H -0.981000 -0.406000 0.466900
C64 C -1.067700 -0.427700 0.374000
H65 H -1.247000 -0.386000 0.349000
C66 C -1.078600 -0.491700 0.355400
H67 H -0.952800 -0.536600 0.375700
H68 H -1.212700 -0.495400 0.321100
H69 H -0.711000 -0.285400 0.471100
H70 H -0.460000 -0.352300 0.474700
S71 S 0.810280 1.097860 0.498610
S72 S 1.131980 1.121430 0.699870
O73 O 0.454000 0.842620 0.648290
O74 O 1.718800 1.336450 0.608250
N75 N 0.710100 1.029510 0.635760
N76 N 1.214700 1.199680 0.562930
C77 C 0.568900 1.015540 0.526220
C78 C 0.542000 0.988710 0.601340
C79 C 0.349500 0.921430 0.648410
H80 H 0.354000 0.923700 0.697700
H81 H 0.157000 0.928200 0.630000
C82 C 0.260800 0.777360 0.685530
H83 H 0.065000 0.792100 0.666800
H84 H 0.249000 0.772700 0.736600
C85 C 0.352000 0.697870 0.673730
H86 H 0.241000 0.651200 0.702300
C87 C 0.549900 0.690600 0.627900
H88 H 0.664000 0.738400 0.601000
H89 H 0.578000 0.634000 0.620400
C90 C 0.863200 1.087320 0.588300
C91 C 1.067800 1.138670 0.609280
C92 C 1.372900 1.201150 0.674160
H93 H 1.486000 1.215800 0.708700
C94 C 1.389200 1.235200 0.600520
C95 C 1.575700 1.306410 0.558280
H96 H 1.711000 1.285400 0.528900
H97 H 1.460000 1.352300 0.525300
C98 C 1.871900 1.411250 0.573100
H99 H 1.728000 1.457800 0.553900
H100 H 1.981000 1.406000 0.533100
C101 C 2.067700 1.427700 0.626000
H102 H 2.247000 1.386000 0.651000
C103 C 2.078600 1.491700 0.644600
H104 H 1.952800 1.536600 0.624300
H105 H 2.212700 1.495400 0.678900
C106 C 0.431100 0.984460 0.473780
S107 S 0.189720 0.902140 0.501390
C108 C 0.136800 0.912680 0.411700
N109 N 0.289900 0.970490 0.364240
C110 C 0.458000 1.011290 0.398660
C111 C 0.650500 1.078570 0.351590
O112 O 0.546000 1.157380 0.351710
C113 C 0.739200 1.222640 0.314470
H114 H 0.935000 1.207900 0.333200
H115 H 0.751000 1.227300 0.263400
C116 C 0.648000 1.302130 0.326270
H117 H 0.759000 1.348800 0.297700
C118 C 0.450100 1.309400 0.372100
H119 H 0.336000 1.261600 0.399000
H120 H 0.422000 1.366000 0.379600
H121 H 0.646000 1.076300 0.302300
H122 H 0.843000 1.071800 0.370000
C123 C -0.067800 0.861330 0.390720
S124 S -0.131980 0.878570 0.300130
C125 C -0.372900 0.798850 0.325840
H126 H -0.486000 0.784200 0.291300
C127 C -0.389200 0.764800 0.399480
N128 N -0.214700 0.800320 0.437070
C129 C -0.575700 0.693590 0.441720
O130 O -0.718800 0.663550 0.391750
C131 C -0.871900 0.588750 0.426900
H132 H -0.728000 0.542200 0.446100
H133 H -0.981000 0.594000 0.466900
C134 C -1.067700 0.572300 0.374000
H135 H -1.247000 0.614000 0.349000
C136 C -1.078600 0.508300 0.355400
H137 H -0.952800 0.463400 0.375700
H138 H -1.212700 0.504600 0.321100
H139 H -0.711000 0.714600 0.471100
H140 H -0.460000 0.647700 0.474700
S141 S -0.111100 0.271580 -0.207800
S142 S 0.188440 0.098950 -0.003030
O143 O -0.729300 0.415780 -0.118680
O144 O 0.556300 -0.058880 -0.140290
N145 N -0.216500 0.246060 -0.071340
N146 N 0.293700 0.125860 -0.139340
C147 C -0.359000 0.332480 -0.183460
H148 H -0.457000 0.375300 -0.218100
C149 C -0.387300 0.310730 -0.109930
C150 C -0.578800 0.350730 -0.068540
H151 H -0.711000 0.308600 -0.039000
H152 H -0.462000 0.376200 -0.038100
C153 C -0.884300 0.464620 -0.083990
H154 H -0.738000 0.495600 -0.060800
H155 H -0.990000 0.425800 -0.043000
C156 C -1.078800 0.521170 -0.138800
H157 H -1.184200 0.496500 -0.167500
C158 C -1.114100 0.598100 -0.150000
H159 H -1.013100 0.625400 -0.122600
H160 H -1.241500 0.628600 -0.185800
C161 C -0.062200 0.219690 -0.116620
C162 C 0.139900 0.151960 -0.093610
C163 C 0.430700 0.034310 -0.027280
C164 C 0.458600 0.059410 -0.102420
C165 C 0.650100 0.022960 -0.146920
H166 H 0.654000 0.059600 -0.198800
H167 H 0.847000 0.020100 -0.131400
C168 C 0.754700 -0.098310 -0.175040
H169 H 0.948000 -0.096600 -0.155600
H170 H 0.763000 -0.067600 -0.226600
C171 C 0.667100 -0.186780 -0.161120
H172 H 0.766000 -0.213000 -0.188000
C173 C 0.466400 -0.227090 -0.116140
H174 H 0.362000 -0.201000 -0.088200
H175 H 0.420000 -0.284600 -0.110600
C176 C 0.569300 -0.034310 0.027280
S177 S 0.811560 -0.098950 0.003030
C178 C 0.860100 -0.151960 0.093610
N179 N 0.706300 -0.125860 0.139340
C180 C 0.541400 -0.059410 0.102420
C181 C 0.349900 -0.022960 0.146920
O182 O 0.443700 0.058880 0.140290
C183 C 0.245300 0.098310 0.175040
H184 H 0.052000 0.096600 0.155600
H185 H 0.237000 0.067600 0.226600
C186 C 0.332900 0.186780 0.161120
H187 H 0.234000 0.213000 0.188000
C188 C 0.533600 0.227090 0.116140
H189 H 0.638000 0.201000 0.088200
H190 H 0.580000 0.284600 0.110600
H191 H 0.346000 -0.059600 0.198800
H192 H 0.153000 -0.020100 0.131400
C193 C 1.062200 -0.219690 0.116620
S194 S 1.111100 -0.271580 0.207800
C195 C 1.359000 -0.332480 0.183460
H196 H 1.457000 -0.375300 0.218100
C197 C 1.387300 -0.310730 0.109930
N198 N 1.216500 -0.246060 0.071340
C199 C 1.578800 -0.350730 0.068540
O200 O 1.729300 -0.415780 0.118680
C201 C 1.884300 -0.464620 0.083990
H202 H 1.738000 -0.495600 0.060800
H203 H 1.990000 -0.425800 0.043000
C204 C 2.078800 -0.521170 0.138800
H205 H 2.184200 -0.496500 0.167500
C206 C 2.114100 -0.598100 0.150000
H207 H 2.013100 -0.625400 0.122600
H208 H 2.241500 -0.628600 0.185800
H209 H 1.711000 -0.308600 0.039000
H210 H 1.462000 -0.376200 0.038100
S211 S -0.111100 0.271580 0.792200
S212 S 0.188440 0.098950 0.996970
O213 O -0.729300 0.415780 0.881320
O214 O 0.556300 -0.058880 0.859710
N215 N -0.216500 0.246060 0.928660
N216 N 0.293700 0.125860 0.860660
C217 C -0.359000 0.332480 0.816540
H218 H -0.457000 0.375300 0.781900
C219 C -0.387300 0.310730 0.890070
C220 C -0.578800 0.350730 0.931460
H221 H -0.711000 0.308600 0.961000
H222 H -0.462000 0.376200 0.961900
C223 C -0.884300 0.464620 0.916010
H224 H -0.738000 0.495600 0.939200
H225 H -0.990000 0.425800 0.957000
C226 C -1.078800 0.521170 0.861200
H227 H -1.184200 0.496500 0.832500
C228 C -1.114100 0.598100 0.850000
H229 H -1.013100 0.625400 0.877400
H230 H -1.241500 0.628600 0.814200
C231 C -0.062200 0.219690 0.883380
C232 C 0.139900 0.151960 0.906390
C233 C 0.430700 0.034310 0.972720
C234 C 0.458600 0.059410 0.897580
C235 C 0.650100 0.022960 0.853080
H236 H 0.654000 0.059600 0.801200
H237 H 0.847000 0.020100 0.868600
C238 C 0.754700 -0.098310 0.824960
H239 H 0.948000 -0.096600 0.844400
H240 H 0.763000 -0.067600 0.773400
C241 C 0.667100 -0.186780 0.838880
H242 H 0.766000 -0.213000 0.812000
C243 C 0.466400 -0.227090 0.883860
H244 H 0.362000 -0.201000 0.911800
H245 H 0.420000 -0.284600 0.889400
C246 C 0.569300 -0.034310 1.027280
S247 S 0.811560 -0.098950 1.003030
C248 C 0.860100 -0.151960 1.093610
N249 N 0.706300 -0.125860 1.139340
C250 C 0.541400 -0.059410 1.102420
C251 C 0.349900 -0.022960 1.146920
O252 O 0.443700 0.058880 1.140290
C253 C 0.245300 0.098310 1.175040
H254 H 0.052000 0.096600 1.155600
H255 H 0.237000 0.067600 1.226600
C256 C 0.332900 0.186780 1.161120
H257 H 0.234000 0.213000 1.188000
C258 C 0.533600 0.227090 1.116140
H259 H 0.638000 0.201000 1.088200
H260 H 0.580000 0.284600 1.110600
H261 H 0.346000 -0.059600 1.198800
H262 H 0.153000 -0.020100 1.131400
C263 C 1.062200 -0.219690 1.116620
S264 S 1.111100 -0.271580 1.207800
C265 C 1.359000 -0.332480 1.183460
H266 H 1.457000 -0.375300 1.218100
C267 C 1.387300 -0.310730 1.109930
N268 N 1.216500 -0.246060 1.071340
C269 C 1.578800 -0.350730 1.068540
O270 O 1.729300 -0.415780 1.118680
C271 C 1.884300 -0.464620 1.083990
H272 H 1.738000 -0.495600 1.060800
H273 H 1.990000 -0.425800 1.043000
C274 C 2.078800 -0.521170 1.138800
H275 H 2.184200 -0.496500 1.167500
C276 C 2.114100 -0.598100 1.150000
H277 H 2.013100 -0.625400 1.122600
H278 H 2.241500 -0.628600 1.185800
H279 H 1.711000 -0.308600 1.039000
H280 H 1.462000 -0.376200 1.038100
S281 S -0.111100 1.271580 -0.207800
S282 S 0.188440 1.098950 -0.003030
O283 O -0.729300 1.415780 -0.118680
O284 O 0.556300 0.941120 -0.140290
N285 N -0.216500 1.246060 -0.071340
N286 N 0.293700 1.125860 -0.139340
C287 C -0.359000 1.332480 -0.183460
H288 H -0.457000 1.375300 -0.218100
C289 C -0.387300 1.310730 -0.109930
C290 C -0.578800 1.350730 -0.068540
H291 H -0.711000 1.308600 -0.039000
H292 H -0.462000 1.376200 -0.038100
C293 C -0.884300 1.464620 -0.083990
H294 H -0.738000 1.495600 -0.060800
H295 H -0.990000 1.425800 -0.043000
C296 C -1.078800 1.521170 -0.138800
H297 H -1.184200 1.496500 -0.167500
C298 C -1.114100 1.598100 -0.150000
H299 H -1.013100 1.625400 -0.122600
H300 H -1.241500 1.628600 -0.185800
C301 C -0.062200 1.219690 -0.116620
C302 C 0.139900 1.151960 -0.093610
C303 C 0.430700 1.034310 -0.027280
C304 C 0.458600 1.059410 -0.102420
C305 C 0.650100 1.022960 -0.146920
H306 H 0.654000 1.059600 -0.198800
H307 H 0.847000 1.020100 -0.131400
C308 C 0.754700 0.901690 -0.175040
H309 H 0.948000 0.903400 -0.155600
H310 H 0.763000 0.932400 -0.226600
C311 C 0.667100 0.813220 -0.161120
H312 H 0.766000 0.787000 -0.188000
C313 C 0.466400 0.772910 -0.116140
H314 H 0.362000 0.799000 -0.088200
H315 H 0.420000 0.715400 -0.110600
C316 C 0.569300 0.965690 0.027280
S317 S 0.811560 0.901050 0.003030
C318 C 0.860100 0.848040 0.093610
N319 N 0.706300 0.874140 0.139340
C320 C 0.541400 0.940590 0.102420
C321 C 0.349900 0.977040 0.146920
O322 O 0.443700 1.058880 0.140290
C323 C 0.245300 1.098310 0.175040
H324 H 0.052000 1.096600 0.155600
H325 H 0.237000 1.067600 0.226600
C326 C 0.332900 1.186780 0.161120
H327 H 0.234000 1.213000 0.188000
C328 C 0.533600 1.227090 0.116140
H329 H 0.638000 1.201000 0.088200
H330 H 0.580000 1.284600 0.110600
H331 H 0.346000 0.940400 0.198800
H332 H 0.153000 0.979900 0.131400
C333 C 1.062200 0.780310 0.116620
S334 S 1.111100 0.728420 0.207800
C335 C 1.359000 0.667520 0.183460
H336 H 1.457000 0.624700 0.218100
C337 C 1.387300 0.689270 0.109930
N338 N 1.216500 0.753940 0.071340
C339 C 1.578800 0.649270 0.068540
O340 O 1.729300 0.584220 0.118680
C341 C 1.884300 0.535380 0.083990
H342 H 1.738000 0.504400 0.060800
H343 H 1.990000 0.574200 0.043000
C344 C 2.078800 0.478830 0.138800
H345 H 2.184200 0.503500 0.167500
C346 C 2.114100 0.401900 0.150000
H347 H 2.013100 0.374600 0.122600
H348 H 2.241500 0.371400 0.185800
H349 H 1.711000 0.691400 0.039000
H350 H 1.462000 0.623800 0.038100
S351 S -0.111100 1.271580 0.792200
S352 S 0.188440 1.098950 0.996970
O353 O -0.729300 1.415780 0.881320
O354 O 0.556300 0.941120 0.859710
N355 N -0.216500 1.246060 0.928660
N356 N 0.293700 1.125860 0.860660
C357 C -0.359000 1.332480 0.816540
H358 H -0.457000 1.375300 0.781900
C359 C -0.387300 1.310730 0.890070
C360 C -0.578800 1.350730 0.931460
H361 H -0.711000 1.308600 0.961000
H362 H -0.462000 1.376200 0.961900
C363 C -0.884300 1.464620 0.916010
H364 H -0.738000 1.495600 0.939200
H365 H -0.990000 1.425800 0.957000
C366 C -1.078800 1.521170 0.861200
H367 H -1.184200 1.496500 0.832500
C368 C -1.114100 1.598100 0.850000
H369 H -1.013100 1.625400 0.877400
H370 H -1.241500 1.628600 0.814200
C371 C -0.062200 1.219690 0.883380
C372 C 0.139900 1.151960 0.906390
C373 C 0.430700 1.034310 0.972720
C374 C 0.458600 1.059410 0.897580
C375 C 0.650100 1.022960 0.853080
H376 H 0.654000 1.059600 0.801200
H377 H 0.847000 1.020100 0.868600
C378 C 0.754700 0.901690 0.824960
H379 H 0.948000 0.903400 0.844400
H380 H 0.763000 0.932400 0.773400
C381 C 0.667100 0.813220 0.838880
H382 H 0.766000 0.787000 0.812000
C383 C 0.466400 0.772910 0.883860
H384 H 0.362000 0.799000 0.911800
H385 H 0.420000 0.715400 0.889400
C386 C 0.569300 0.965690 1.027280
S387 S 0.811560 0.901050 1.003030
C388 C 0.860100 0.848040 1.093610
N389 N 0.706300 0.874140 1.139340
C390 C 0.541400 0.940590 1.102420
C391 C 0.349900 0.977040 1.146920
O392 O 0.443700 1.058880 1.140290
C393 C 0.245300 1.098310 1.175040
H394 H 0.052000 1.096600 1.155600
H395 H 0.237000 1.067600 1.226600
C396 C 0.332900 1.186780 1.161120
H397 H 0.234000 1.213000 1.188000
C398 C 0.533600 1.227090 1.116140
H399 H 0.638000 1.201000 1.088200
H400 H 0.580000 1.284600 1.110600
H401 H 0.346000 0.940400 1.198800
H402 H 0.153000 0.979900 1.131400
C403 C 1.062200 0.780310 1.116620
S404 S 1.111100 0.728420 1.207800
C405 C 1.359000 0.667520 1.183460
H406 H 1.457000 0.624700 1.218100
C407 C 1.387300 0.689270 1.109930
N408 N 1.216500 0.753940 1.071340
C409 C 1.578800 0.649270 1.068540
O410 O 1.729300 0.584220 1.118680
C411 C 1.884300 0.535380 1.083990
H412 H 1.738000 0.504400 1.060800
H413 H 1.990000 0.574200 1.043000
C414 C 2.078800 0.478830 1.138800
H415 H 2.184200 0.503500 1.167500
C416 C 2.114100 0.401900 1.150000
H417 H 2.013100 0.374600 1.122600
H418 H 2.241500 0.371400 1.185800
H419 H 1.711000 0.691400 1.039000
H420 H 1.462000 0.623800 1.038100

#END
