./ABEFUJ01_from_xyz.cif_generated_by_CrystalShift
_symmetry_cell_setting triclinic
_symmetry_space_group_name_H-M 'P 1'
loop_
_symmetry_equiv_pos_site_id
_symmetry_equiv_pos_as_xyz
1 x,y,z
_cell_length_a 15.277000
_cell_length_b 11.810000
_cell_length_c 8.636000
_cell_angle_alpha 90.000000
_cell_angle_beta 121.790000
_cell_angle_gamma 90.000000
_cell_volume 1324.377113
loop_
_atom_site_label
_atom_site_type_symbol
_atom_site_fract_x
_atom_site_fract_y
_atom_site_fract_z
S1 S 0.157900 0.111350 0.026230
N2 N 0.349620 0.168900 0.317500
N3 N 0.371100 0.050400 0.534600
N4 N 0.280320 0.030600 0.370800
H5 H 0.238500 -0.022900 0.356300
C6 C 0.552000 0.089800 0.899200
H7 H 0.504500 0.032200 0.837300
C8 C 0.615300 0.086700 1.088100
H9 H 0.609600 0.026800 1.152200
C10 C 0.686600 0.171500 1.181900
H11 H 0.728700 0.168800 1.308200
C12 C 0.694500 0.259400 1.086700
H13 H 0.742900 0.316100 1.148900
C14 C 0.631500 0.265000 0.899300
H15 H 0.636600 0.326100 0.836500
C16 C 0.560200 0.179300 0.804400
C17 C 0.500600 0.190800 0.612400
H18 H 0.484700 0.270800 0.588900
H19 H 0.546700 0.173400 0.570100
C20 C 0.411000 0.135000 0.497600
C21 C 0.263000 0.101100 0.238200
C22 C 0.370900 0.260700 0.233100
C23 C 0.332700 0.366900 0.229000
H24 H 0.288600 0.378400 0.271100
C25 C 0.361300 0.456700 0.160800
H26 H 0.336600 0.529100 0.157800
C27 C 0.425800 0.438500 0.098000
H28 H 0.446000 0.499300 0.055500
C29 C 0.461000 0.331900 0.096900
H30 H 0.503600 0.320200 0.051500
C31 C 0.432600 0.241600 0.163700
H32 H 0.455000 0.168700 0.161600
S33 S 0.157900 0.888650 -0.473770
N34 N 0.349620 0.831100 -0.182500
N35 N 0.371100 0.949600 0.034600
N36 N 0.280320 0.969400 -0.129200
H37 H 0.238500 1.022900 -0.143700
C38 C 0.552000 0.910200 0.399200
H39 H 0.504500 0.967800 0.337300
C40 C 0.615300 0.913300 0.588100
H41 H 0.609600 0.973200 0.652200
C42 C 0.686600 0.828500 0.681900
H43 H 0.728700 0.831200 0.808200
C44 C 0.694500 0.740600 0.586700
H45 H 0.742900 0.683900 0.648900
C46 C 0.631500 0.735000 0.399300
H47 H 0.636600 0.673900 0.336500
C48 C 0.560200 0.820700 0.304400
C49 C 0.500600 0.809200 0.112400
H50 H 0.484700 0.729200 0.088900
H51 H 0.546700 0.826600 0.070100
C52 C 0.411000 0.865000 -0.002400
C53 C 0.263000 0.898900 -0.261800
C54 C 0.370900 0.739300 -0.266900
C55 C 0.332700 0.633100 -0.271000
H56 H 0.288600 0.621600 -0.228900
C57 C 0.361300 0.543300 -0.339200
H58 H 0.336600 0.470900 -0.342200
C59 C 0.425800 0.561500 -0.402000
H60 H 0.446000 0.500700 -0.444500
C61 C 0.461000 0.668100 -0.403100
H62 H 0.503600 0.679800 -0.448500
C63 C 0.432600 0.758400 -0.336300
H64 H 0.455000 0.831300 -0.338400
S65 S 0.657900 0.611350 0.026230
N66 N 0.849620 0.668900 0.317500
N67 N 0.871100 0.550400 0.534600
N68 N 0.780320 0.530600 0.370800
H69 H 0.738500 0.477100 0.356300
C70 C 1.052000 0.589800 0.899200
H71 H 1.004500 0.532200 0.837300
C72 C 1.115300 0.586700 1.088100
H73 H 1.109600 0.526800 1.152200
C74 C 1.186600 0.671500 1.181900
H75 H 1.228700 0.668800 1.308200
C76 C 1.194500 0.759400 1.086700
H77 H 1.242900 0.816100 1.148900
C78 C 1.131500 0.765000 0.899300
H79 H 1.136600 0.826100 0.836500
C80 C 1.060200 0.679300 0.804400
C81 C 1.000600 0.690800 0.612400
H82 H 0.984700 0.770800 0.588900
H83 H 1.046700 0.673400 0.570100
C84 C 0.911000 0.635000 0.497600
C85 C 0.763000 0.601100 0.238200
C86 C 0.870900 0.760700 0.233100
C87 C 0.832700 0.866900 0.229000
H88 H 0.788600 0.878400 0.271100
C89 C 0.861300 0.956700 0.160800
H90 H 0.836600 1.029100 0.157800
C91 C 0.925800 0.938500 0.098000
H92 H 0.946000 0.999300 0.055500
C93 C 0.961000 0.831900 0.096900
H94 H 1.003600 0.820200 0.051500
C95 C 0.932600 0.741600 0.163700
H96 H 0.955000 0.668700 0.161600
S97 S 0.657900 0.388650 -0.473770
N98 N 0.849620 0.331100 -0.182500
N99 N 0.871100 0.449600 0.034600
N100 N 0.780320 0.469400 -0.129200
H101 H 0.738500 0.522900 -0.143700
C102 C 1.052000 0.410200 0.399200
H103 H 1.004500 0.467800 0.337300
C104 C 1.115300 0.413300 0.588100
H105 H 1.109600 0.473200 0.652200
C106 C 1.186600 0.328500 0.681900
H107 H 1.228700 0.331200 0.808200
C108 C 1.194500 0.240600 0.586700
H109 H 1.242900 0.183900 0.648900
C110 C 1.131500 0.235000 0.399300
H111 H 1.136600 0.173900 0.336500
C112 C 1.060200 0.320700 0.304400
C113 C 1.000600 0.309200 0.112400
H114 H 0.984700 0.229200 0.088900
H115 H 1.046700 0.326600 0.070100
C116 C 0.911000 0.365000 -0.002400
C117 C 0.763000 0.398900 -0.261800
C118 C 0.870900 0.239300 -0.266900
C119 C 0.832700 0.133100 -0.271000
H120 H 0.788600 0.121600 -0.228900
C121 C 0.861300 0.043300 -0.339200
H122 H 0.836600 -0.029100 -0.342200
C123 C 0.925800 0.061500 -0.402000
H124 H 0.946000 0.000700 -0.444500
C125 C 0.961000 0.168100 -0.403100
H126 H 1.003600 0.179800 -0.448500
C127 C 0.932600 0.258400 -0.336300
H128 H 0.955000 0.331300 -0.338400

#END
