
#######################################################################
#
#                 Cambridge Crystallographic Data Centre
#                                CCDC 
#
#######################################################################
#
# If this CIF has been generated from an entry in the Cambridge 
# Structural Database, then it will include bibliographic, chemical, 
# crystal, experimental, refinement or atomic coordinate data resulting 
# from the CCDC's data processing and validation procedures.
#
#######################################################################

data_ABEBIT
_symmetry_cell_setting           triclinic
_symmetry_space_group_name_H-M   'P -1'
_symmetry_Int_Tables_number      2
_space_group_name_Hall           '-P 1'
loop_
_symmetry_equiv_pos_site_id
_symmetry_equiv_pos_as_xyz
1 x,y,z
2 -x,-y,-z
_cell_length_a                   8.5431(14)
_cell_length_b                   8.908(2)
_cell_length_c                   12.0833(18)
_cell_angle_alpha                73.705(17)
_cell_angle_beta                 89.232(13)
_cell_angle_gamma                67.14(2)
_cell_volume                     808.535
loop_
_atom_site_label
_atom_site_type_symbol
_atom_site_fract_x
_atom_site_fract_y
_atom_site_fract_z
N1 N 0.1275(3) 0.7947(3) 0.1046(2)
H1 H 0.0282 0.8542 0.0662
N2 N 0.2590(3) 0.7505(3) 0.3554(2)
H2 H 0.2351 0.8250 0.3923
C1 C 0.1655(4) 0.6189(3) 0.1625(2)
C2 C 0.3980(4) 0.7812(4) 0.1767(3)
C3 C 0.4085(4) 0.7227(4) 0.2967(3)
C4 C 0.1754(4) 0.5598(4) 0.2831(2)
C5 C 0.1510(4) 0.6724(4) 0.3592(2)
C6 C 0.2299(4) 0.8765(4) 0.1038(2)
C7 C 0.1768(4) 0.5112(4) 0.0962(3)
H3 H 0.1685 0.5519 0.0157
C8 C 0.1972(4) 0.3906(4) 0.3350(3)
H4 H 0.2026 0.3493 0.4152
C9 C 0.5473(4) 0.7597(5) 0.1229(3)
H5 H 0.5411 0.7990 0.0425
C10 C 0.5672(5) 0.6467(5) 0.3619(3)
H6 H 0.5743 0.6105 0.4425
C11 C 0.7134(5) 0.6251(6) 0.3078(4)
H7 H 0.8193 0.5729 0.3518
C12 C 0.2002(5) 0.3453(5) 0.1489(4)
H8 H 0.2091 0.2732 0.1042
C13 C 0.2106(5) 0.2849(5) 0.2683(4)
H9 H 0.2268 0.1721 0.3038
C14 C 0.7038(5) 0.6804(6) 0.1884(4)
H10 H 0.8033 0.6642 0.1521
O1 O 0.1893(3) 1.0261(3) 0.04337(18)
O2 O 0.0396(3) 0.6884(3) 0.4246(2)
N1 N 0.8725(3) 0.2053(3) 0.8954(2)
H1 H 0.9718 0.1458 0.9338
N2 N 0.7410(3) 0.2495(3) 0.6446(2)
H2 H 0.7649 0.1750 0.6077
C1 C 0.8345(4) 0.3811(3) 0.8375(2)
C2 C 0.6020(4) 0.2188(4) 0.8233(3)
C3 C 0.5915(4) 0.2773(4) 0.7033(3)
C4 C 0.8246(4) 0.4402(4) 0.7169(2)
C5 C 0.8490(4) 0.3276(4) 0.6408(2)
C6 C 0.7701(4) 0.1235(4) 0.8962(2)
C7 C 0.8232(4) 0.4888(4) 0.9038(3)
H3 H 0.8315 0.4481 0.9843
C8 C 0.8028(4) 0.6094(4) 0.6650(3)
H4 H 0.7974 0.6507 0.5848
C9 C 0.4527(4) 0.2403(5) 0.8771(3)
H5 H 0.4589 0.2010 0.9575
C10 C 0.4328(5) 0.3533(5) 0.6381(3)
H6 H 0.4257 0.3895 0.5575
C11 C 0.2866(5) 0.3749(6) 0.6922(4)
H7 H 0.1807 0.4271 0.6482
C12 C 0.7998(5) 0.6547(5) 0.8511(4)
H8 H 0.7909 0.7268 0.8958
C13 C 0.7894(5) 0.7151(5) 0.7317(4)
H9 H 0.7732 0.8279 0.6962
C14 C 0.2962(5) 0.3196(6) 0.8116(4)
H10 H 0.1967 0.3358 0.8479
O1 O 0.8107(3) -0.0261(3) 0.95663(18)
O2 O 0.9604(3) 0.3116(3) 0.5754(2)
N3 N 0.7275(4) 0.1111(4) 0.3130(3)
C15 C 0.6667(6) 0.0523(6) 0.4092(4)
H11 H 0.5983 -0.0054 0.4036
C16 C 0.8462(15) 0.1791(14) 0.3197(8)
H12 H 0.7881 0.2975 0.3148
H13 H 0.9155 0.1683 0.2568
H14 H 0.9174 0.1187 0.3921
O3 O 0.6903(5) 0.0656(4) 0.5031(2)
C17 C 0.6947(11) 0.0890(11) 0.2055(5)
H15 H 0.6486 0.0037 0.2179
H16 H 0.7992 0.0532 0.1705
H17 H 0.6140 0.1950 0.1550
N3 N 0.2725(4) 0.8889(4) 0.6870(3)
C15 C 0.3333(6) 0.9477(6) 0.5908(4)
H11 H 0.4017 1.0054 0.5964
C16 C 0.1538(15) 0.8209(14) 0.6803(8)
H12 H 0.2119 0.7025 0.6852
H13 H 0.0845 0.8317 0.7432
H14 H 0.0826 0.8813 0.6079
O3 O 0.3097(5) 0.9344(4) 0.4969(2)
C17 C 0.3053(11) 0.9110(11) 0.7945(5)
H15 H 0.3514 0.9963 0.7821
H16 H 0.2008 0.9468 0.8295
H17 H 0.3860 0.8050 0.8450

#END
