./MAPZOT_from_POSCAR.cif_generated_by_CrystalShift
_symmetry_cell_setting triclinic
_symmetry_space_group_name_H-M 'P 1'
loop_
_symmetry_equiv_pos_site_id
_symmetry_equiv_pos_as_xyz
1 x,y,z
_cell_length_a 11.173000
_cell_length_b 12.536000
_cell_length_c 13.026000
_cell_angle_alpha 90.000000
_cell_angle_beta 90.916000
_cell_angle_gamma 90.000000
_cell_volume 1824.249991
loop_
_atom_site_label
_atom_site_type_symbol
_atom_site_fract_x
_atom_site_fract_y
_atom_site_fract_z
H1 H 0.406600 0.430000 0.783200
H2 H 0.683000 0.273100 0.919800
H3 H 0.646800 0.127900 0.813400
H4 H 0.491400 0.131500 0.691800
H5 H 0.283600 0.196900 0.459100
H6 H 0.189400 0.035600 0.417800
H7 H 0.123400 -0.077400 0.547200
H8 H 0.160500 -0.033400 0.718800
H9 H 0.257100 0.125800 0.761700
H10 H 0.053800 0.463900 0.746000
H11 H -0.031000 0.613600 0.671300
H12 H -0.043600 0.744400 0.532400
H13 H 0.026200 0.813200 0.380000
H14 H 0.197000 0.739900 0.305300
H15 H 0.295600 0.595700 0.379200
H16 H 0.379400 0.460600 0.449800
H17 H 0.455400 0.312500 0.521500
H18 H 0.593400 0.930000 0.716800
H19 H 0.435900 0.925100 0.596600
H20 H 0.317000 0.773100 0.580200
H21 H 0.353200 0.627900 0.686600
H22 H 0.508600 0.631500 0.808200
H23 H 0.716400 0.696900 1.040900
H24 H 0.810600 0.535600 1.082200
H25 H 0.876600 0.422600 0.952800
H26 H 0.839500 0.466600 0.781200
H27 H 0.742900 0.625800 0.738300
H28 H 0.455400 0.187500 0.021500
H29 H 0.379400 0.039400 -0.050200
H30 H 0.295600 -0.095700 -0.120800
H31 H 0.197000 -0.239900 -0.194700
H32 H 0.026200 -0.313200 -0.120000
H33 H -0.043600 -0.244400 0.032400
H34 H -0.031000 -0.113600 0.171300
H35 H 0.053800 0.036100 0.246000
H36 H 0.257100 0.374200 0.261700
H37 H 0.160500 0.533400 0.218800
H38 H 0.123400 0.577400 0.047200
H39 H 0.189400 0.464400 -0.082200
H40 H 0.283600 0.303100 -0.040900
H41 H 0.491400 0.368500 0.191800
H42 H 0.646800 0.372100 0.313400
H43 H 0.683000 0.226900 0.419800
H44 H 0.564100 0.074900 0.403400
H45 H 0.406600 0.070000 0.283200
H46 H 0.946200 0.963900 0.754000
H47 H 1.031000 1.113600 0.828700
H48 H 1.043600 1.244400 0.967600
H49 H 0.973800 1.313200 1.120000
H50 H 0.803000 1.239900 1.194700
H51 H 0.704400 1.095700 1.120800
H52 H 0.620600 0.960600 1.050200
H53 H 0.544600 0.812500 0.978500
H54 H 0.593400 0.570000 0.216800
H55 H 0.435900 0.574900 0.096600
H56 H 0.317000 0.726900 0.080200
H57 H 0.353200 0.872100 0.186600
H58 H 0.508600 0.868500 0.308200
H59 H 0.716400 0.803100 0.540900
H60 H 0.810600 0.964400 0.582200
H61 H 0.876600 1.077400 0.452800
H62 H 0.839500 1.033400 0.281200
H63 H 0.742900 0.874200 0.238300
H64 H 0.946200 0.536100 0.254000
H65 H 1.031000 0.386400 0.328700
H66 H 1.043600 0.255600 0.467600
H67 H 0.973800 0.186800 0.620000
H68 H 0.803000 0.260100 0.694700
H69 H 0.704400 0.404300 0.620800
H70 H 0.620600 0.539400 0.550200
H71 H 0.544600 0.687500 0.478500
H72 H 0.564100 0.425100 0.903400
C73 C 0.451200 0.635700 0.139600
C74 C 0.380900 0.724400 0.130200
C75 C 0.402800 0.809800 0.192700
C76 C 0.495200 0.807700 0.264600
C77 C 0.568300 0.719200 0.274200
C78 C 0.741500 0.849800 0.487100
C79 C 0.798000 0.945200 0.511400
C80 C 0.835600 1.012200 0.435600
C81 C 0.814500 0.985900 0.334500
C82 C 0.757600 0.891700 0.309200
C83 C 0.721200 0.821700 0.385700
C84 C 0.815000 0.557200 0.362800
C85 C 0.914200 0.507700 0.316400
C86 C 0.963700 0.419800 0.360600
C87 C 0.919000 0.376300 0.452300
C88 C 0.975100 0.287400 0.499200
C89 C 0.933800 0.246100 0.587900
C90 C 0.832800 0.290300 0.632400
C91 C 0.332700 0.212900 0.142600
C92 C 0.385100 0.157000 0.051200
C93 C 0.667300 0.787100 0.857400
C94 C 0.614900 0.843000 0.948800
C95 C 0.659300 0.931000 0.991400
C96 C 0.764300 0.983800 0.951700
C97 C 0.817600 1.076300 0.998500
C98 C 0.774700 1.123700 1.089100
C99 C 0.832800 1.209700 1.132400
C100 C 0.933800 1.253900 1.087900
C101 C 0.975100 1.212600 0.999200
C102 C 0.919000 1.123700 0.952300
C103 C 0.963700 1.080200 0.860600
C104 C 0.914200 0.992300 0.816400
C105 C 0.815000 0.942800 0.862800
C106 C 0.721200 0.678300 0.885700
C107 C 0.757600 0.608300 0.809200
C108 C 0.814500 0.514100 0.834500
C109 C 0.835600 0.487800 0.935600
C110 C 0.798000 0.554800 1.011400
C111 C 0.741500 0.650200 0.987100
C112 C 0.568300 0.780800 0.774200
C113 C 0.495200 0.692300 0.764600
C114 C 0.402800 0.690200 0.692700
C115 C 0.380900 0.775600 0.630200
C116 C 0.451200 0.864300 0.639600
C117 C 0.544600 0.867200 0.711100
C118 C 0.774700 0.376300 0.589100
C119 C 0.817600 0.423700 0.498500
C120 C 0.764300 0.516200 0.451700
C121 C 0.659300 0.569000 0.491400
C122 C 0.614900 0.657000 0.448800
C123 C 0.667300 0.712900 0.357400
C124 C 0.340700 0.069000 0.008600
C125 C 0.235700 0.016200 0.048300
C126 C 0.455400 0.132800 0.288900
C127 C 0.548800 0.135700 0.360400
C128 C 0.619100 0.224400 0.369800
C129 C 0.597200 0.309800 0.307300
C130 C 0.504800 0.307700 0.235400
C131 C 0.431700 0.219200 0.225800
C132 C 0.258500 0.349800 0.012900
C133 C 0.202000 0.445200 -0.011400
C134 C 0.164400 0.512200 0.064400
C135 C 0.185500 0.485900 0.165500
C136 C 0.182400 -0.076300 0.001500
C137 C 0.225300 -0.123700 -0.089100
C138 C 0.332700 0.287100 0.642600
C139 C 0.385100 0.343000 0.551200
C140 C 0.340700 0.431000 0.508600
C141 C 0.235700 0.483800 0.548300
C142 C 0.182400 0.576300 0.501500
C143 C 0.225300 0.623700 0.410900
C144 C 0.167200 0.709700 0.367600
C145 C 0.066200 0.753900 0.412100
C146 C 0.024900 0.712600 0.500800
C147 C 0.081000 0.623700 0.547700
C148 C 0.036300 0.580200 0.639400
C149 C 0.085800 0.492300 0.683600
C150 C 0.185000 0.442800 0.637200
C151 C 0.278800 0.178300 0.614300
C152 C 0.242400 0.108300 0.690800
C153 C 0.185500 0.014100 0.665500
C154 C 0.164400 -0.012200 0.564400
C155 C 0.202000 0.054800 0.488600
C156 C 0.258500 0.150200 0.512900
C157 C 0.431700 0.280800 0.725800
C158 C 0.504800 0.192300 0.735400
C159 C 0.597200 0.190200 0.807300
C160 C 0.619100 0.275600 0.869800
C161 C 0.548800 0.364300 0.860400
C162 C 0.455400 0.367200 0.788900
C163 C 0.242400 0.391700 0.190800
C164 C 0.278800 0.321700 0.114300
C165 C 0.185000 0.057200 0.137200
C166 C 0.085800 0.007700 0.183600
C167 C 0.036300 -0.080200 0.139400
C168 C 0.081000 -0.123700 0.047700
C169 C 0.024900 -0.212600 0.000800
C170 C 0.066200 -0.253900 -0.087900
C171 C 0.167200 -0.209700 -0.132400
C172 C 0.544600 0.632800 0.211100
N173 N 0.232200 0.147400 0.184780
N174 N 0.767800 0.647400 0.315220
N175 N 0.767800 0.852600 0.815220
N176 N 0.232200 0.352600 0.684780
O177 O 0.812800 0.818500 0.731820
O178 O 0.812800 0.681500 0.231820
O179 O 0.187200 0.318500 0.768180
O180 O 0.187200 0.181500 0.268180

#END
