./MAQWEJ_from_POSCAR.cif_generated_by_CrystalShift
_symmetry_cell_setting triclinic
_symmetry_space_group_name_H-M 'P 1'
loop_
_symmetry_equiv_pos_site_id
_symmetry_equiv_pos_as_xyz
1 x,y,z
_cell_length_a 5.973900
_cell_length_b 8.180300
_cell_length_c 23.571600
_cell_angle_alpha 90.000000
_cell_angle_beta 97.029000
_cell_angle_gamma 90.000000
_cell_volume 1143.246566
loop_
_atom_site_label
_atom_site_type_symbol
_atom_site_fract_x
_atom_site_fract_y
_atom_site_fract_z
H1 H 1.283000 0.572000 0.224000
H2 H 1.104200 1.287700 0.410500
H3 H 1.259600 1.358900 0.365700
H4 H 1.011100 1.430300 0.367500
H5 H 1.017700 0.799300 0.503000
H6 H 1.613600 1.058700 0.429900
H7 H 1.605700 1.044100 0.528500
H8 H 1.027000 0.812400 0.404700
H9 H 0.410500 1.252400 0.255900
H10 H 1.162300 0.718000 0.131500
H11 H -0.447100 0.525800 0.664200
H12 H 0.109300 1.256600 0.182800
H13 H -0.230500 0.247300 0.660400
H14 H 0.902400 0.717000 0.049600
H15 H 0.435500 0.934000 0.093000
H16 H 0.725900 0.466300 0.216700
H17 H 0.739800 0.929400 0.166400
H18 H 0.468000 0.459700 0.133800
H19 H 1.230500 0.747300 0.339600
H20 H 0.532000 -0.040300 0.866200
H21 H 1.447100 1.025800 0.335800
H22 H 0.260200 0.429400 0.833600
H23 H -0.283000 0.072000 0.776000
H24 H 0.274100 -0.033700 0.783300
H25 H -0.307700 0.415300 0.434900
H26 H 0.564500 0.434000 0.907000
H27 H -0.104200 0.787700 0.589500
H28 H 0.097600 0.217000 0.950400
H29 H -0.259600 0.858900 0.634300
H30 H -0.011100 0.930300 0.632500
H31 H -0.017700 0.299300 0.497000
H32 H -0.613600 0.558700 0.570100
H33 H 0.890700 0.756600 0.817200
H34 H -0.605700 0.544100 0.471500
H35 H -0.162300 0.218000 0.868500
H36 H -0.027000 0.312400 0.595300
H37 H 0.589500 0.752400 0.744100
H38 H 1.307700 0.915300 0.565100
C39 C -0.144900 0.361000 0.570100
C40 C 0.583900 0.688100 0.777400
C41 C -0.486700 0.497200 0.496700
C42 C -0.020200 0.166300 0.867800
C43 C -0.491200 0.506200 0.555300
C44 C 0.761700 0.691200 0.820700
C45 C -0.139600 0.352400 0.511800
C46 C 0.750200 0.599600 0.868370
C47 C -0.104700 0.831600 0.628100
C48 C -0.138600 0.090600 0.764400
C49 C -0.012900 0.707400 0.670600
C50 C 0.132800 0.166300 0.916400
C51 C -0.311000 0.420900 0.475000
C52 C 0.567300 0.499700 0.873800
C53 C 0.237600 0.016400 0.817300
C54 C 1.311000 0.920900 0.525000
C55 C 1.104700 1.331600 0.371900
C56 C 1.139600 0.852400 0.488200
C57 C -0.149200 0.248200 0.731700
C58 C 1.491200 1.006200 0.444700
C59 C 1.149200 0.748200 0.268300
C60 C 0.956800 0.989300 0.276300
C61 C 1.103000 1.052600 0.318400
C62 C 0.043200 0.489300 0.723700
C63 C 1.311700 0.961200 0.343300
C64 C 0.388000 0.496300 0.830500
C65 C 1.308700 0.803600 0.309900
C66 C 0.391400 0.014000 0.866100
C67 C 1.486700 0.997200 0.503300
C68 C 0.661200 0.591000 0.085420
C69 C 0.601500 1.092100 0.217470
C70 C 0.971000 0.592200 0.182040
C71 C -0.103000 0.552600 0.681600
C72 C 0.608600 0.514000 0.133900
C73 C 1.144900 0.861000 0.429900
C74 C 0.612000 0.996300 0.169500
C75 C 0.029000 0.092200 0.817960
C76 C 0.762400 0.516400 0.182700
C77 C 0.398500 0.592100 0.782530
C78 C 0.432700 0.999700 0.126200
C79 C 0.338800 0.091000 0.914580
C80 C 0.867200 0.666300 0.083600
C81 C 1.318600 0.939000 0.407800
C82 C 1.012900 1.207400 0.329400
C83 C 1.138600 0.590600 0.235600
C84 C 0.249800 1.099600 0.131630
C85 C 0.238300 1.191200 0.179300
C86 C -0.308700 0.303600 0.690100
C87 C 1.020200 0.666300 0.132200
C88 C -0.311700 0.461200 0.656700
C89 C 0.416100 1.188100 0.222600
C90 C -0.318600 0.439000 0.592200
N91 N 0.212000 0.599200 0.738490
N92 N 0.177600 0.734900 0.704750
N93 N 0.822400 1.234900 0.295250
N94 N 0.788000 1.099200 0.261510
N95 N -0.507900 0.202200 0.675100
N96 N 1.507900 0.702200 0.324900
O97 O 1.502100 0.554900 0.315600
O98 O 0.963200 0.842500 0.250500
O99 O 0.036800 0.342500 0.749500
O100 O 1.677300 0.773200 0.347240
O101 O -0.502100 0.054900 0.684400
O102 O -0.677300 0.273200 0.652760
Cl103 Cl 0.969700 0.607400 0.924590
Cl104 Cl 0.030300 1.107400 0.075410
Br105 Br 0.443720 0.595810 0.019220
Br106 Br 0.556280 0.095810 0.980780

#END
