./MAQYEL_from_POSCAR.cif_generated_by_CrystalShift
_symmetry_cell_setting triclinic
_symmetry_space_group_name_H-M 'P 1'
loop_
_symmetry_equiv_pos_site_id
_symmetry_equiv_pos_as_xyz
1 x,y,z
_cell_length_a 11.158700
_cell_length_b 13.047900
_cell_length_c 13.143100
_cell_angle_alpha 111.784000
_cell_angle_beta 110.740000
_cell_angle_gamma 97.685000
_cell_volume 1582.447864
loop_
_atom_site_label
_atom_site_type_symbol
_atom_site_fract_x
_atom_site_fract_y
_atom_site_fract_z
H1 H 0.819100 0.977700 0.622800
H2 H 0.884700 0.588500 -0.004700
H3 H 0.725900 0.988000 0.504600
H4 H 0.685500 0.473100 -0.180200
H5 H 0.657700 0.612200 0.709300
H6 H 0.510200 0.365800 -0.169300
H7 H 0.683200 0.661400 0.563700
H8 H 0.577400 0.948700 0.694400
H9 H 0.547500 0.898900 0.838300
H10 H 0.813300 1.201500 1.139900
H11 H 0.872100 1.308600 1.272600
H12 H 0.750600 1.199000 1.231600
H13 H 0.686100 0.909500 1.261200
H14 H 0.634200 0.399400 0.387200
H15 H 0.631000 1.018900 1.289900
H16 H 0.844500 0.524200 0.543900
H17 H 0.789100 1.038000 1.334900
H18 H 0.990600 0.632300 0.505800
H19 H 1.104800 1.104100 1.205800
H20 H 1.092100 0.917600 1.074300
H21 H 0.889600 0.767100 0.971200
H22 H 0.110400 0.232900 0.028800
H23 H 0.009400 0.367700 0.494200
H24 H -0.092100 0.082400 -0.074300
H25 H 0.155500 0.475800 0.456100
H26 H -0.104800 -0.104100 -0.205800
H27 H 0.365800 0.600600 0.612800
H28 H 0.489800 0.634200 1.169300
H29 H 0.314500 0.526900 1.180200
H30 H 0.210900 -0.038000 -0.334900
H31 H 0.369000 -0.018900 -0.289900
H32 H 0.313900 0.090500 -0.261200
H33 H 0.115300 0.411500 1.004700
H34 H 0.249400 -0.199000 -0.231600
H35 H 0.127900 -0.308600 -0.272600
H36 H 0.186700 -0.201500 -0.139900
H37 H 0.714700 0.789300 0.382100
H38 H 0.798100 0.774300 0.500100
H39 H 0.452500 0.101100 0.161700
H40 H 0.653200 0.683700 0.401300
H41 H 0.422600 0.051300 0.305600
H42 H 0.444900 0.741400 0.385600
H43 H 0.457300 0.873100 0.464800
H44 H 0.316800 0.338600 0.436300
H45 H 0.503300 0.841300 0.357500
H46 H 0.342300 0.387800 0.290700
H47 H 0.688500 1.017900 0.617000
H48 H 0.496700 0.158700 0.642500
H49 H 0.274100 0.012000 0.495400
H50 H 0.311500 -0.017900 0.383000
H51 H 0.180900 0.022300 0.377200
H52 H 0.542700 0.126900 0.535200
H53 H 0.285300 0.210700 0.617900
H54 H 0.201900 0.225700 0.499900
H55 H 0.346800 0.316300 0.598700
H56 H 0.555100 0.258600 0.614400
C57 C 0.501100 0.177500 0.578100
C58 C 0.292100 0.234900 0.557400
C59 C 0.273600 0.032400 0.430600
C60 C 1.122900 0.710300 0.212800
C61 C 0.969600 0.793600 0.323200
C62 C 0.358600 0.159400 0.487700
C63 C -0.170700 0.282500 0.568700
C64 C 0.030400 0.206400 0.676800
C65 C -0.122900 0.289700 0.787200
C66 C 0.360600 0.320000 0.294900
C67 C 0.345200 0.290100 0.381100
C68 C 0.370000 0.191100 0.389200
C69 C 0.498900 0.822500 0.421900
C70 C 0.408100 0.121000 0.304200
C71 C 0.425500 0.149800 0.218000
C72 C 0.403000 0.250200 0.214900
C73 C 0.707900 0.765100 0.442600
C74 C 0.186100 0.454400 0.998700
C75 C 0.166400 -0.224100 -0.225500
C76 C 0.305000 0.523800 1.104300
C77 C 0.300500 0.011500 -0.269700
C78 C 0.407900 0.587200 1.098300
C79 C 0.202500 0.030800 -0.135700
C80 C 0.390000 0.581500 0.985200
C81 C 0.268900 0.509900 0.882900
C82 C 0.487600 0.647000 0.967000
C83 C 0.462100 0.640400 0.853300
C84 C 0.339500 0.568000 0.746800
C85 C 0.243700 0.502000 0.764300
C86 C 0.305000 0.557600 0.628600
C87 C 0.084300 -0.059700 -0.190900
C88 C 0.181000 0.483500 0.536300
C89 C -0.024500 -0.041600 -0.167700
C90 C 0.093000 0.420000 0.559800
C91 C -0.016200 0.069000 -0.087800
C92 C 0.660100 0.766700 0.995900
C93 C 0.788100 0.859700 1.053300
C94 C 0.897000 0.841100 1.028600
C95 C 0.103000 0.158900 -0.028600
C96 C 1.016200 0.931000 1.087800
C97 C 0.211900 0.140300 -0.053300
C98 C 1.024500 1.041600 1.167700
C99 C 0.339900 0.233300 0.004100
C100 C 0.915700 1.059700 1.190900
C101 C 0.797500 0.969200 1.135700
C102 C 0.699500 0.988500 1.269700
C103 C 0.907000 0.580000 0.440200
C104 C 0.819000 0.516500 0.463700
C105 C 0.695000 0.442400 0.371400
C106 C 0.833600 1.224100 1.225500
C107 C 0.756300 0.498000 0.235700
C108 C 0.660500 0.432000 0.253200
C109 C 0.537900 0.359600 0.146700
C110 C 0.597000 0.749800 0.785100
C111 C 0.574500 0.850200 0.782000
C112 C 0.512400 0.353000 0.033000
C113 C 0.591900 0.879000 0.695800
C114 C 0.731100 0.490100 0.117100
C115 C 0.630000 0.808900 0.610800
C116 C 0.654800 0.709900 0.618900
C117 C 0.610000 0.418500 0.014800
C118 C 0.639400 0.680000 0.705100
C119 C 0.592100 0.412800 -0.098300
C120 C 0.641400 0.840600 0.512300
C121 C 0.726400 0.967600 0.569400
C122 C 0.695000 0.476200 -0.104300
C123 C 1.170700 0.717500 0.431300
C124 C 0.813900 0.545600 0.001300
N125 N 0.831900 0.553800 0.109800
N126 N 0.610600 0.725000 1.055100
N127 N 0.122200 0.430000 0.671700
N128 N 0.168100 0.446200 0.890200
N129 N 0.877800 0.570000 0.328300
N130 N 0.389400 0.275000 -0.055100
N131 N 0.424300 0.282600 0.127500
N132 N 0.575700 0.717400 0.872500
O133 O 0.948000 0.878800 0.353200
O134 O 0.928900 1.170100 1.273400
O135 O 0.052000 0.121200 0.646800
O136 O 0.688400 0.987400 1.156800
O137 O 1.263500 0.754300 0.524700
O138 O 0.311600 0.012600 -0.156800
O139 O 0.071100 -0.170100 -0.273400
O140 O 1.185300 0.746900 0.174100
O141 O -0.185300 0.253100 0.825900
O142 O -0.263500 0.245700 0.475300
Br143 Br 1.068810 0.452510 0.217520
Br144 Br -0.068810 0.547490 0.782480
Re145 Re 1.015610 0.651400 0.277960
Re146 Re -0.015610 0.348600 0.722040

#END
