./MARHOE_from_POSCAR.cif_generated_by_CrystalShift
_symmetry_cell_setting triclinic
_symmetry_space_group_name_H-M 'P 1'
loop_
_symmetry_equiv_pos_site_id
_symmetry_equiv_pos_as_xyz
1 x,y,z
_cell_length_a 6.489700
_cell_length_b 19.302000
_cell_length_c 12.454000
_cell_angle_alpha 90.000000
_cell_angle_beta 99.848000
_cell_angle_gamma 90.000000
_cell_volume 1537.052957
loop_
_atom_site_label
_atom_site_type_symbol
_atom_site_fract_x
_atom_site_fract_y
_atom_site_fract_z
H1 H 0.462300 1.532000 0.629800
H2 H 0.157900 0.441000 0.147200
H3 H 0.212200 1.129200 0.975900
H4 H -0.044600 1.207800 1.012200
H5 H 0.212600 1.494600 0.723700
H6 H -0.064000 1.314900 0.938100
H7 H -0.560200 0.308900 0.105100
H8 H 0.723800 1.456200 0.595400
H9 H 0.433300 1.158900 0.860700
H10 H 0.064100 1.402100 0.822000
H11 H -0.325800 0.481600 -0.087000
H12 H 0.751000 1.225200 0.765300
H13 H -0.030400 0.355900 0.212800
H14 H 0.485000 1.102300 0.480200
H15 H 0.969600 1.144100 0.712800
H16 H 0.674200 1.018400 0.413000
H17 H -0.515000 0.397700 -0.019800
H18 H 0.439800 1.191100 0.605100
H19 H -0.249000 0.274800 0.265300
H20 H 1.157900 1.059000 0.647200
H21 H -0.935900 0.097900 0.322000
H22 H 1.537700 0.468000 0.370200
H23 H -0.566700 0.341100 0.360700
H24 H 1.277100 0.656100 0.353600
H25 H -0.276200 0.043800 0.095400
H26 H 1.787800 0.870800 0.024100
H27 H -1.064000 0.185100 0.438100
H28 H 2.044600 0.792200 -0.012200
H29 H -0.787400 0.005400 0.223700
H30 H 1.787400 0.505400 0.276300
H31 H -1.044600 0.292200 0.512200
H32 H 2.064000 0.685100 0.061900
H33 H -0.787800 0.370800 0.475900
H34 H 1.276200 0.543800 0.404600
H35 H -0.277100 0.156100 0.146400
H36 H 1.566700 0.841100 0.139300
H37 H -0.537700 -0.032000 0.129800
H38 H 1.935900 0.597900 0.178000
H39 H -0.157900 0.559000 -0.147200
H40 H 1.249000 0.774800 0.234700
H41 H 1.515000 0.897700 0.519800
H42 H 1.030400 0.855900 0.287200
H43 H 1.325800 0.981600 0.587000
H44 H 0.560200 0.691100 -0.105100
H45 H 1.560200 0.808900 0.394900
H46 H 0.842100 0.941000 0.352800
H47 H 0.462300 0.532000 0.629800
H48 H 0.325800 0.518400 0.087000
H49 H 0.722900 0.343900 0.646400
H50 H 0.030400 0.644100 -0.212800
H51 H 0.212200 0.129200 0.975900
H52 H -0.044600 0.207800 1.012200
H53 H 0.212600 0.494600 0.723700
H54 H 0.515000 0.602300 0.019800
H55 H -0.064000 0.314900 0.938100
H56 H 0.249000 0.725200 -0.265300
H57 H 0.723800 0.456200 0.595400
H58 H 0.935900 0.902100 -0.322000
H59 H 0.433300 0.158900 0.860700
H60 H 0.566700 0.658900 -0.360700
H61 H 0.064100 0.402100 0.822000
H62 H 0.276200 0.956200 -0.095400
H63 H 0.751000 0.225200 0.765300
H64 H 1.064000 0.814900 -0.438100
H65 H 0.485000 0.102300 0.480200
H66 H 0.787400 0.994600 -0.223700
H67 H 0.969600 0.144100 0.712800
H68 H 1.044600 0.707800 -0.512200
H69 H 0.674200 0.018400 0.413000
H70 H 0.787800 0.629200 -0.475900
H71 H 0.439800 0.191100 0.605100
H72 H 0.277100 0.843900 -0.146400
H73 H 1.157900 0.059000 0.647200
H74 H 0.537700 1.032000 -0.129800
H75 H 1.537700 -0.532000 0.370200
H76 H 0.157900 0.441000 1.147200
H77 H 1.277100 -0.343900 0.353600
H78 H 1.787800 -0.129200 0.024100
H79 H 2.044600 -0.207800 -0.012200
H80 H 1.787400 -0.494600 0.276300
H81 H -0.560200 0.308900 1.105100
H82 H 2.064000 -0.314900 0.061900
H83 H 1.276200 -0.456200 0.404600
H84 H 1.566700 -0.158900 0.139300
H85 H -0.325800 0.481600 0.913000
H86 H 1.935900 -0.402100 0.178000
H87 H -0.030400 0.355900 1.212800
H88 H 1.249000 -0.225200 0.234700
H89 H 1.515000 -0.102300 0.519800
H90 H 1.030400 -0.144100 0.287200
H91 H -0.515000 0.397700 0.980200
H92 H 1.325800 -0.018400 0.587000
H93 H -0.249000 0.274800 1.265300
H94 H 1.560200 -0.191100 0.394900
H95 H -0.935900 0.097900 1.322000
H96 H 0.842100 -0.059000 0.352800
H97 H -0.566700 0.341100 1.360700
H98 H -0.537700 1.532000 0.629800
H99 H -0.276200 0.043800 1.095400
H100 H -0.277100 1.343900 0.646400
H101 H -1.064000 0.185100 1.438100
H102 H -0.787800 1.129200 0.975900
H103 H -0.787400 0.005400 1.223700
H104 H -1.044600 1.207800 1.012200
H105 H -1.044600 0.292200 1.512200
H106 H -0.787400 1.494600 0.723700
H107 H -0.787800 0.370800 1.475900
H108 H -1.064000 1.314900 0.938100
H109 H -0.277100 0.156100 1.146400
H110 H -0.276200 1.456200 0.595400
H111 H -0.537700 -0.032000 1.129800
H112 H -0.566700 1.158900 0.860700
H113 H -0.157900 0.559000 0.852800
H114 H -0.935900 1.402100 0.822000
H115 H -0.249000 1.225200 0.765300
H116 H -0.515000 1.102300 0.480200
H117 H -0.030400 1.144100 0.712800
H118 H 0.560200 0.691100 0.894900
H119 H -0.325800 1.018400 0.413000
H120 H -0.560200 1.191100 0.605100
H121 H 0.157900 1.059000 0.647200
H122 H 0.325800 0.518400 1.087000
H123 H 0.537700 0.468000 0.370200
H124 H 0.030400 0.644100 0.787200
H125 H 0.277100 0.656100 0.353600
H126 H 0.787800 0.870800 0.024100
H127 H 1.044600 0.792200 -0.012200
H128 H 0.515000 0.602300 1.019800
H129 H 0.787400 0.505400 0.276300
H130 H 0.249000 0.725200 0.734700
H131 H 1.064000 0.685100 0.061900
H132 H 0.935900 0.902100 0.678000
H133 H 0.276200 0.543800 0.404600
H134 H 0.566700 0.658900 0.639300
H135 H 0.566700 0.841100 0.139300
H136 H 0.276200 0.956200 0.904600
H137 H 0.935900 0.597900 0.178000
H138 H 1.064000 0.814900 0.561900
H139 H 0.249000 0.774800 0.234700
H140 H 0.787400 0.994600 0.776300
H141 H 0.515000 0.897700 0.519800
H142 H 1.044600 0.707800 0.487800
H143 H 0.030400 0.855900 0.287200
H144 H 0.787800 0.629200 0.524100
H145 H 0.325800 0.981600 0.587000
H146 H 0.277100 0.843900 0.853600
H147 H 0.560200 0.808900 0.394900
H148 H 0.537700 1.032000 0.870200
H149 H -0.157900 0.941000 0.352800
H150 H 1.157900 0.441000 0.147200
H151 H -0.537700 0.532000 0.629800
H152 H -0.277100 0.343900 0.646400
H153 H -0.787800 0.129200 0.975900
H154 H -1.044600 0.207800 1.012200
H155 H 0.439800 0.308900 0.105100
H156 H -0.787400 0.494600 0.723700
H157 H -1.064000 0.314900 0.938100
H158 H -0.276200 0.456200 0.595400
H159 H 0.674200 0.481600 -0.087000
H160 H -0.566700 0.158900 0.860700
H161 H 0.969600 0.355900 0.212800
H162 H -0.935900 0.402100 0.822000
H163 H -0.249000 0.225200 0.765300
H164 H -0.515000 0.102300 0.480200
H165 H 0.485000 0.397700 -0.019800
H166 H -0.030400 0.144100 0.712800
H167 H 0.751000 0.274800 0.265300
H168 H -0.325800 0.018400 0.413000
H169 H 0.064100 0.097900 0.322000
H170 H -0.560200 0.191100 0.605100
H171 H 0.433300 0.341100 0.360700
H172 H 0.157900 0.059000 0.647200
H173 H 0.723800 0.043800 0.095400
H174 H 0.537700 -0.532000 0.370200
H175 H -0.064000 0.185100 0.438100
H176 H 0.277100 -0.343900 0.353600
H177 H 0.212600 0.005400 0.223700
H178 H 0.787800 -0.129200 0.024100
H179 H -0.044600 0.292200 0.512200
H180 H 1.044600 -0.207800 -0.012200
H181 H 0.212200 0.370800 0.475900
H182 H 0.787400 -0.494600 0.276300
H183 H 0.722900 0.156100 0.146400
H184 H 1.064000 -0.314900 0.061900
H185 H 0.462300 -0.032000 0.129800
H186 H 0.276200 -0.456200 0.404600
H187 H 0.842100 0.559000 -0.147200
H188 H 0.566700 -0.158900 0.139300
H189 H 0.935900 -0.402100 0.178000
H190 H 0.249000 -0.225200 0.234700
H191 H 0.515000 -0.102300 0.519800
H192 H 1.560200 0.691100 -0.105100
H193 H 0.030400 -0.144100 0.287200
H194 H 0.325800 -0.018400 0.587000
H195 H 0.560200 -0.191100 0.394900
H196 H 1.325800 0.518400 0.087000
H197 H -0.157900 -0.059000 0.352800
H198 H 1.030400 0.644100 -0.212800
H199 H 1.537700 1.032000 0.870200
H200 H 1.277100 0.843900 0.853600
H201 H 1.787800 0.629200 0.524100
H202 H 1.515000 0.602300 0.019800
H203 H 2.044600 0.707800 0.487800
H204 H 1.249000 0.725200 -0.265300
H205 H 1.787400 0.994600 0.776300
H206 H 1.935900 0.902100 -0.322000
H207 H 2.064000 0.814900 0.561900
H208 H 1.566700 0.658900 -0.360700
H209 H 1.276200 0.956200 0.904600
H210 H 1.276200 0.956200 -0.095400
H211 H 1.566700 0.658900 0.639300
H212 H 2.064000 0.814900 -0.438100
H213 H 1.935900 0.902100 0.678000
H214 H 1.787400 0.994600 -0.223700
H215 H 1.249000 0.725200 0.734700
H216 H 2.044600 0.707800 -0.512200
H217 H 1.515000 0.602300 1.019800
H218 H 1.787800 0.629200 -0.475900
H219 H 1.030400 0.644100 0.787200
H220 H 1.277100 0.843900 -0.146400
H221 H 1.325800 0.518400 1.087000
H222 H 1.537700 1.032000 -0.129800
H223 H 1.560200 0.691100 0.894900
H224 H 1.157900 0.441000 1.147200
H225 H 0.842100 0.559000 0.852800
H226 H 0.462300 -0.032000 1.129800
H227 H 0.722900 0.156100 1.146400
H228 H 0.212200 0.370800 1.475900
H229 H 0.439800 0.308900 1.105100
H230 H -0.044600 0.292200 1.512200
H231 H 0.212600 0.005400 1.223700
H232 H -0.064000 0.185100 1.438100
H233 H 0.674200 0.481600 0.913000
H234 H 0.723800 0.043800 1.095400
H235 H 0.969600 0.355900 1.212800
H236 H 0.433300 0.341100 1.360700
H237 H 0.064100 0.097900 1.322000
H238 H 0.751000 0.274800 1.265300
H239 H 0.485000 0.397700 0.980200
H240 H 0.722900 1.343900 0.646400
C241 C 0.621500 0.406110 1.014600
C242 C 0.168800 0.128090 1.309000
C243 C 0.174700 0.194160 1.352000
C244 C 0.335600 0.309000 1.376100
C245 C 0.329900 0.242480 1.328000
C246 C 0.619700 0.059700 1.132100
C247 C 0.907700 0.381400 1.152500
C248 C 0.037100 0.215800 1.422300
C249 C 0.735800 0.456860 0.974200
C250 C 0.315500 0.036040 1.209600
C251 C 0.313700 0.105440 1.247200
C252 C 0.048300 0.279300 1.466700
C253 C 0.468500 0.152700 1.223300
C254 C 0.202800 0.327100 1.444000
C255 C 0.573900 0.313430 1.145100
C256 C 0.620500 0.126400 1.163800
C257 C 0.470300 0.221860 1.259900
C258 C 0.463400 0.013600 1.153800
C259 C 0.704000 0.367060 1.105300
C260 C 0.978400 0.567420 0.887500
C261 C 0.938900 0.472240 1.021400
C262 C 1.061100 0.527760 0.978600
C263 C 1.296000 0.632940 0.894700
C264 C 1.529700 0.778140 0.740100
C265 C 1.426100 0.686570 0.854900
C266 C 1.021600 0.432580 1.112500
C267 C 1.531500 0.847300 0.776700
C268 C 1.686300 0.894560 0.752800
C269 C 1.264200 0.543140 1.025800
C270 C 1.536600 0.986400 -0.153800
C271 C 1.092300 0.618600 0.847500
C272 C 1.379500 0.873600 -0.163800
C273 C 1.670100 0.757520 0.672000
C274 C 1.825300 0.805840 0.648000
C275 C 1.378500 0.593890 0.985400
C276 C 1.797200 0.672900 -0.444000
C277 C 1.383400 0.727270 0.775100
C278 C 1.951700 0.720700 -0.466700
C279 C 1.831200 0.871910 0.691000
C280 C 1.684500 0.963960 -0.209600
C281 C 1.664400 0.691000 0.623900
C282 C 1.962900 0.784200 -0.422300
C283 C 1.380300 0.940300 0.867900
C284 C 1.380300 0.940300 -0.132100
C285 C 1.962900 0.784200 0.577700
C286 C 1.664400 0.691000 -0.376100
C287 C 1.684500 0.963960 0.790400
C288 C 1.831200 0.871910 -0.309000
C289 C 1.951700 0.720700 0.533300
C290 C 1.383400 0.727270 -0.224900
C291 C 1.797200 0.672900 0.556000
C292 C 1.378500 0.593890 -0.014600
C293 C 1.379500 0.873600 0.836200
C294 C 1.825300 0.805840 -0.352000
C295 C 1.536600 0.986400 0.846200
C296 C 1.670100 0.757520 -0.328000
C297 C -0.021600 -0.067420 0.387500
C298 C 1.092300 0.618600 -0.152500
C299 C 0.061100 -0.027760 0.478600
C300 C 0.296000 -0.132940 0.394700
C301 C 0.529700 -0.278140 0.240100
C302 C 0.426100 -0.186570 0.354900
C303 C 1.264200 0.543140 0.025800
C304 C 0.531500 -0.347300 0.276700
C305 C 0.686300 -0.394560 0.252800
C306 C 0.264200 -0.043140 0.525800
C307 C 1.686300 0.894560 -0.247200
C308 C 0.092300 -0.118600 0.347500
C309 C 1.531500 0.847300 -0.223300
C310 C 0.670100 -0.257520 0.172000
C311 C 0.825300 -0.305840 0.148000
C312 C 0.378500 -0.093890 0.485400
C313 C 1.426100 0.686570 -0.145100
C314 C 0.383400 -0.227270 0.275100
C315 C 1.529700 0.778140 -0.259900
C316 C 0.831200 -0.371910 0.191000
C317 C 1.296000 0.632940 -0.105300
C318 C 0.664400 -0.191000 0.123900
C319 C 1.061100 0.527760 -0.021400
C320 C 0.380300 -0.440300 0.367900
C321 C 0.978400 0.567420 -0.112500
C322 C 0.962900 -0.284200 0.077700
C323 C 0.463400 0.013600 0.153800
C324 C 0.684500 -0.463960 0.290400
C325 C 0.620500 0.126400 0.163800
C326 C 0.951700 -0.220700 0.033300
C327 C 0.202800 0.327100 0.444000
C328 C 0.797200 -0.172900 0.056000
C329 C 0.048300 0.279300 0.466700
C330 C 0.379500 -0.373600 0.336200
C331 C 0.315500 0.036040 0.209600
C332 C 0.536600 -0.486400 0.346200
C333 C 0.037100 0.215800 0.422300
C334 C 0.021600 0.067420 0.612500
C335 C 0.619700 0.059700 0.132100
C336 C -0.061100 0.027760 0.521400
C337 C -0.296000 0.132940 0.605300
C338 C -0.529700 0.278140 0.759900
C339 C -0.426100 0.186570 0.645100
C340 C 0.335600 0.309000 0.376100
C341 C -0.531500 0.347300 0.723300
C342 C -0.686300 0.394560 0.747200
C343 C -0.264200 0.043140 0.474200
C344 C 0.168800 0.128090 0.309000
C345 C -0.092300 0.118600 0.652500
C346 C 0.616600 0.272730 0.224900
C347 C -0.670100 0.257520 0.828000
C348 C -0.825300 0.305840 0.852000
C349 C -0.378500 0.093890 0.514600
C350 C 0.621500 0.406110 0.014600
C351 C -0.383400 0.227270 0.724900
C352 C 0.174700 0.194160 0.352000
C353 C -0.831200 0.371910 0.809000
C354 C 0.329900 0.242480 0.328000
C355 C -0.664400 0.191000 0.876100
C356 C 0.907700 0.381400 0.152500
C357 C -0.380300 0.440300 0.632100
C358 C 0.735800 0.456860 -0.025800
C359 C -0.962900 0.284200 0.922300
C360 C 0.313700 0.105440 0.247200
C361 C -0.684500 0.463960 0.709600
C362 C 0.468500 0.152700 0.223300
C363 C -0.951700 0.220700 0.966700
C364 C 0.573900 0.313430 0.145100
C365 C -0.797200 0.172900 0.944000
C366 C 0.470300 0.221860 0.259900
C367 C -0.379500 0.373600 0.663800
C368 C 0.704000 0.367060 0.105300
C369 C -0.536600 0.486400 0.653800
C370 C 0.938900 0.472240 0.021400
C371 C -0.021600 0.932580 0.387500
C372 C 1.021600 0.432580 0.112500
C373 C 0.061100 0.972240 0.478600
C374 C 0.296000 0.867060 0.394700
C375 C 0.529700 0.721860 0.240100
C376 C 0.426100 0.813430 0.354900
C377 C 0.536600 0.986400 0.846200
C378 C 0.531500 0.652700 0.276700
C379 C 0.686300 0.605440 0.252800
C380 C 0.264200 0.956860 0.525800
C381 C 0.379500 0.873600 0.836200
C382 C 0.092300 0.881400 0.347500
C383 C 0.797200 0.672900 0.556000
C384 C 0.670100 0.742480 0.172000
C385 C 0.825300 0.694160 0.148000
C386 C 0.378500 0.906110 0.485400
C387 C 0.951700 0.720700 0.533300
C388 C 0.383400 0.772730 0.275100
C389 C 0.684500 0.963960 0.790400
C390 C 0.831200 0.628090 0.191000
C391 C 0.962900 0.784200 0.577700
C392 C 0.664400 0.809000 0.123900
C393 C 0.380300 0.940300 0.867900
C394 C 0.380300 0.559700 0.367900
C395 C 0.664400 0.691000 0.623900
C396 C 0.962900 0.715800 0.077700
C397 C 0.831200 0.871910 0.691000
C398 C 0.684500 0.536040 0.290400
C399 C 0.383400 0.727270 0.775100
C400 C 0.951700 0.779300 0.033300
C401 C 0.378500 0.593890 0.985400
C402 C 0.797200 0.827100 0.056000
C403 C 0.825300 0.805840 0.648000
C404 C 0.379500 0.626400 0.336200
C405 C 0.670100 0.757520 0.672000
C406 C 0.536600 0.513600 0.346200
C407 C 0.092300 0.618600 0.847500
C408 C 0.021600 1.067420 0.612500
C409 C 0.264200 0.543140 1.025800
C410 C -0.061100 1.027760 0.521400
C411 C -0.296000 1.132940 0.605300
C412 C -0.529700 1.278140 0.759900
C413 C -0.426100 1.186570 0.645100
C414 C 0.686300 0.894560 0.752800
C415 C -0.531500 1.347300 0.723300
C416 C -0.686300 1.394560 0.747200
C417 C -0.264200 1.043140 0.474200
C418 C 0.531500 0.847300 0.776700
C419 C -0.092300 1.118600 0.652500
C420 C 0.426100 0.686570 0.854900
C421 C -0.670100 1.257520 0.828000
C422 C -0.825300 1.305840 0.852000
C423 C -0.378500 1.093890 0.514600
C424 C 0.529700 0.778140 0.740100
C425 C -0.383400 1.227270 0.724900
C426 C 0.296000 0.632940 0.894700
C427 C -0.831200 1.371910 0.809000
C428 C 0.061100 0.527760 0.978600
C429 C -0.664400 1.191000 0.876100
C430 C -0.021600 0.567420 0.887500
C431 C -0.380300 1.440300 0.632100
C432 C -0.536600 0.013600 1.153800
C433 C -0.962900 1.284200 0.922300
C434 C -0.379500 0.126400 1.163800
C435 C -0.684500 1.463960 0.709600
C436 C -0.797200 0.327100 1.444000
C437 C -0.951700 1.220700 0.966700
C438 C -0.951700 0.279300 1.466700
C439 C -0.797200 1.172900 0.944000
C440 C -0.684500 0.036040 1.209600
C441 C -0.379500 1.373600 0.663800
C442 C -0.962900 0.215800 1.422300
C443 C -0.536600 1.486400 0.653800
C444 C -0.380300 0.059700 1.132100
C445 C 0.978400 -0.067420 0.387500
C446 C -0.664400 0.309000 1.376100
C447 C 1.061100 -0.027760 0.478600
C448 C 1.296000 -0.132940 0.394700
C449 C 1.529700 -0.278140 0.240100
C450 C 1.426100 -0.186570 0.354900
C451 C -0.831200 0.128090 1.309000
C452 C 1.531500 -0.347300 0.276700
C453 C 1.686300 -0.394560 0.252800
C454 C 1.264200 -0.043140 0.525800
C455 C -0.383400 0.272730 1.224900
C456 C 1.092300 -0.118600 0.347500
C457 C -0.378500 0.406110 1.014600
C458 C 1.670100 -0.257520 0.172000
C459 C 1.825300 -0.305840 0.148000
C460 C 1.378500 -0.093890 0.485400
C461 C -0.825300 0.194160 1.352000
C462 C 1.383400 -0.227270 0.275100
C463 C -0.670100 0.242480 1.328000
C464 C 1.831200 -0.371910 0.191000
C465 C -0.092300 0.381400 1.152500
C466 C 1.664400 -0.191000 0.123900
C467 C -0.264200 0.456860 0.974200
C468 C 1.380300 -0.440300 0.367900
C469 C -0.686300 0.105440 1.247200
C470 C 1.962900 -0.284200 0.077700
C471 C -0.531500 0.152700 1.223300
C472 C 1.684500 -0.463960 0.290400
C473 C -0.426100 0.313430 1.145100
C474 C 1.951700 -0.220700 0.033300
C475 C -0.529700 0.221860 1.259900
C476 C 1.797200 -0.172900 0.056000
C477 C -0.296000 0.367060 1.105300
C478 C 1.379500 -0.373600 0.336200
C479 C -0.061100 0.472240 1.021400
C480 C 1.536600 -0.486400 0.346200
C481 C 0.021600 0.432580 1.112500
C482 C 1.021600 0.067420 0.612500
C483 C 0.536600 0.986400 -0.153800
C484 C 0.938900 0.027760 0.521400
C485 C 0.704000 0.132940 0.605300
C486 C 0.470300 0.278140 0.759900
C487 C 0.573900 0.186570 0.645100
C488 C 0.379500 0.873600 -0.163800
C489 C 0.468500 0.347300 0.723300
C490 C 0.313700 0.394560 0.747200
C491 C 0.735800 0.043140 0.474200
C492 C 0.797200 0.672900 -0.444000
C493 C 0.907700 0.118600 0.652500
C494 C 0.951700 0.720700 -0.466700
C495 C 0.329900 0.257520 0.828000
C496 C 0.174700 0.305840 0.852000
C497 C 0.621500 0.093890 0.514600
C498 C 0.684500 0.963960 -0.209600
C499 C 0.616600 0.227270 0.724900
C500 C 0.962900 0.784200 -0.422300
C501 C 0.168800 0.371910 0.809000
C502 C 0.380300 0.940300 -0.132100
C503 C 0.335600 0.191000 0.876100
C504 C 0.664400 0.691000 -0.376100
C505 C 0.619700 0.440300 0.632100
C506 C 0.831200 0.871910 -0.309000
C507 C 0.037100 0.284200 0.922300
C508 C 0.383400 0.727270 -0.224900
C509 C 0.315500 0.463960 0.709600
C510 C 0.378500 0.593890 -0.014600
C511 C 0.048300 0.220700 0.966700
C512 C 0.825300 0.805840 -0.352000
C513 C 0.202800 0.172900 0.944000
C514 C 0.670100 0.757520 -0.328000
C515 C 0.620500 0.373600 0.663800
C516 C 0.092300 0.618600 -0.152500
C517 C 0.463400 0.486400 0.653800
C518 C 0.264200 0.543140 0.025800
C519 C 0.978400 0.932580 0.387500
C520 C 0.686300 0.894560 -0.247200
C521 C 1.061100 0.972240 0.478600
C522 C 1.296000 0.867060 0.394700
C523 C 1.529700 0.721860 0.240100
C524 C 1.426100 0.813430 0.354900
C525 C 0.531500 0.847300 -0.223300
C526 C 1.531500 0.652700 0.276700
C527 C 1.686300 0.605440 0.252800
C528 C 1.264200 0.956860 0.525800
C529 C 0.426100 0.686570 -0.145100
C530 C 1.092300 0.881400 0.347500
C531 C 0.529700 0.778140 -0.259900
C532 C 1.670100 0.742480 0.172000
C533 C 1.825300 0.694160 0.148000
C534 C 1.378500 0.906110 0.485400
C535 C 0.296000 0.632940 -0.105300
C536 C 1.383400 0.772730 0.275100
C537 C 0.061100 0.527760 -0.021400
C538 C 1.831200 0.628090 0.191000
C539 C -0.021600 0.567420 -0.112500
C540 C 1.664400 0.809000 0.123900
C541 C -0.536600 0.013600 0.153800
C542 C 1.380300 0.559700 0.367900
C543 C -0.379500 0.126400 0.163800
C544 C 1.962900 0.715800 0.077700
C545 C -0.797200 0.327100 0.444000
C546 C 1.684500 0.536040 0.290400
C547 C -0.951700 0.279300 0.466700
C548 C 1.951700 0.779300 0.033300
C549 C -0.684500 0.036040 0.209600
C550 C 1.797200 0.827100 0.056000
C551 C -0.962900 0.215800 0.422300
C552 C 1.379500 0.626400 0.336200
C553 C -0.380300 0.059700 0.132100
C554 C 1.536600 0.513600 0.346200
C555 C -0.664400 0.309000 0.376100
C556 C 1.021600 1.067420 0.612500
C557 C -0.831200 0.128090 0.309000
C558 C 0.938900 1.027760 0.521400
C559 C 0.704000 1.132940 0.605300
C560 C 0.470300 1.278140 0.759900
C561 C 0.573900 1.186570 0.645100
C562 C -0.383400 0.272730 0.224900
C563 C 0.468500 1.347300 0.723300
C564 C 0.313700 1.394560 0.747200
C565 C 0.735800 1.043140 0.474200
C566 C -0.378500 0.406110 0.014600
C567 C 0.907700 1.118600 0.652500
C568 C -0.825300 0.194160 0.352000
C569 C 0.329900 1.257520 0.828000
C570 C 0.174700 1.305840 0.852000
C571 C 0.621500 1.093890 0.514600
C572 C -0.670100 0.242480 0.328000
C573 C 0.616600 1.227270 0.724900
C574 C -0.092300 0.381400 0.152500
C575 C 0.168800 1.371910 0.809000
C576 C -0.264200 0.456860 -0.025800
C577 C 0.335600 1.191000 0.876100
C578 C -0.686300 0.105440 0.247200
C579 C 0.619700 1.440300 0.632100
C580 C -0.531500 0.152700 0.223300
C581 C 0.037100 1.284200 0.922300
C582 C -0.426100 0.313430 0.145100
C583 C 0.315500 1.463960 0.709600
C584 C -0.529700 0.221860 0.259900
C585 C 0.048300 1.220700 0.966700
C586 C -0.296000 0.367060 0.105300
C587 C 0.202800 1.172900 0.944000
C588 C -0.061100 0.472240 0.021400
C589 C 0.620500 1.373600 0.663800
C590 C 0.616600 0.272730 1.224900
C591 C 0.463400 1.486400 0.653800
C592 C 0.021600 0.432580 0.112500

#END
