
#######################################################################
#
#                 Cambridge Crystallographic Data Centre
#                                CCDC 
#
#######################################################################
#
# If this CIF has been generated from an entry in the Cambridge 
# Structural Database, then it will include bibliographic, chemical, 
# crystal, experimental, refinement or atomic coordinate data resulting 
# from the CCDC's data processing and validation procedures.
#
#######################################################################

data_LADCEA
_symmetry_cell_setting           triclinic
_symmetry_space_group_name_H-M   'P -1'
_symmetry_Int_Tables_number      2
_space_group_name_Hall           '-P 1'
loop_
_symmetry_equiv_pos_site_id
_symmetry_equiv_pos_as_xyz
1 x,y,z
2 -x,-y,-z
_cell_length_a                   5.3172(2)
_cell_length_b                   8.6548(3)
_cell_length_c                   14.9927(6)
_cell_angle_alpha                101.970(2)
_cell_angle_beta                 93.037(2)
_cell_angle_gamma                100.816(2)
_cell_volume                     659.922
loop_
_atom_site_label
_atom_site_type_symbol
_atom_site_fract_x
_atom_site_fract_y
_atom_site_fract_z
Br1 Br 0.96917(4) -0.21456(2) 0.238312(13)
N1 N 0.5464(3) 0.13526(17) 0.23390(10)
C1 C 0.6536(3) 0.2527(2) 0.30675(11)
N2 N 0.5356(3) 0.38427(18) 0.31984(10)
H1 H 0.429(4) 0.377(3) 0.2837(15)
C2 C 0.8627(3) 0.2397(2) 0.36339(12)
H2 H 0.9357 0.3242 0.4145
C3 C 0.9601(3) 0.1011(2) 0.34301(12)
H3 H 1.1026 0.0887 0.3799
C4 C 0.8483(3) -0.0202(2) 0.26809(12)
C5 C 0.6427(3) 0.0007(2) 0.21546(12)
H4 H 0.5663 -0.0829 0.1644
C6 C 0.5955(3) 0.5243(2) 0.38641(12)
O1 O 0.7716(3) 0.55259(16) 0.44625(9)
C7 C 0.4179(4) 0.6376(2) 0.37754(13)
H5 H 0.2428 0.5879 0.3891
H6 H 0.4096 0.6534 0.3140
C8 C 0.5020(4) 0.8005(2) 0.44309(13)
H7 H 0.3839 0.8707 0.4326
H8 H 0.6766 0.8496 0.4328
H9 H 0.4998 0.7866 0.5063
Br1 Br 0.03083(4) 1.21456(2) 0.761688(13)
N1 N 0.4536(3) 0.86474(17) 0.76610(10)
C1 C 0.3464(3) 0.7473(2) 0.69325(11)
N2 N 0.4644(3) 0.61573(18) 0.68016(10)
H1 H 0.571(4) 0.623(3) 0.7163(15)
C2 C 0.1373(3) 0.7603(2) 0.63661(12)
H2 H 0.0643 0.6758 0.5855
C3 C 0.0399(3) 0.8989(2) 0.65699(12)
H3 H -0.1026 0.9113 0.6201
C4 C 0.1517(3) 1.0202(2) 0.73191(12)
C5 C 0.3573(3) 0.9993(2) 0.78454(12)
H4 H 0.4337 1.0829 0.8356
C6 C 0.4045(3) 0.4757(2) 0.61359(12)
O1 O 0.2284(3) 0.44741(16) 0.55375(9)
C7 C 0.5821(4) 0.3624(2) 0.62246(13)
H5 H 0.7572 0.4121 0.6109
H6 H 0.5904 0.3466 0.6860
C8 C 0.4980(4) 0.1995(2) 0.55691(13)
H7 H 0.6161 0.1293 0.5674
H8 H 0.3234 0.1504 0.5672
H9 H 0.5002 0.2134 0.4937
C9 C 1.0590(3) 0.2575(2) 0.11701(11)
O2 O 1.1605(3) 0.12754(15) 0.10213(9)
H10 H 1.264(4) 0.134(3) 0.1415(16)
O3 O 1.1301(2) 0.36980(16) 0.18247(9)
C10 C 0.8489(3) 0.2552(2) 0.04505(11)
H11 H 0.7080 0.1613 0.0427
H12 H 0.9177 0.2425 -0.0155
C11 C 0.7424(3) 0.4087(2) 0.06445(11)
H13 H 0.8875 0.5025 0.0740
H14 H 0.6586 0.4147 0.1221
C12 C 0.5489(3) 0.4217(2) -0.01100(11)
H15 H 0.6309 0.4149 -0.0691
H16 H 0.4012 0.3295 -0.0200
C9A C -0.0590(3) 0.7425(2) -0.11701(11)
O2A O -0.1605(3) 0.87246(15) -0.10213(9)
H10A H -0.264(4) 0.866(3) -0.1415(16)
O3A O -0.1301(2) 0.63020(16) -0.18247(9)
C10A C 0.1511(3) 0.7448(2) -0.04505(11)
H11A H 0.2920 0.8387 -0.0427
H12A H 0.0823 0.7575 0.0155
C11A C 0.2576(3) 0.5913(2) -0.06445(11)
H13A H 0.1125 0.4975 -0.0740
H14A H 0.3414 0.5853 -0.1221
C12A C 0.4511(3) 0.5783(2) 0.01100(11)
H15A H 0.3691 0.5851 0.0691
H16A H 0.5988 0.6705 0.0200
C9 C 1.0590(3) 0.2575(2) 1.11701(11)
O2 O 1.1605(3) 0.12754(15) 1.10213(9)
H10 H 1.264(4) 0.134(3) 1.1415(16)
O3 O 1.1301(2) 0.36980(16) 1.18247(9)
C10 C 0.8489(3) 0.2552(2) 1.04505(11)
H11 H 0.7080 0.1613 1.0427
H12 H 0.9177 0.2425 0.9845
C11 C 0.7424(3) 0.4087(2) 1.06445(11)
H13 H 0.8875 0.5025 1.0740
H14 H 0.6586 0.4147 1.1221
C12 C 0.5489(3) 0.4217(2) 0.98900(11)
H15 H 0.6309 0.4149 0.9309
H16 H 0.4012 0.3295 0.9800
C9A C -0.0590(3) 0.7425(2) 0.88299(11)
O2A O -0.1605(3) 0.87246(15) 0.89787(9)
H10A H -0.264(4) 0.866(3) 0.8585(16)
O3A O -0.1301(2) 0.63020(16) 0.81753(9)
C10A C 0.1511(3) 0.7448(2) 0.95495(11)
H11A H 0.2920 0.8387 0.9573
H12A H 0.0823 0.7575 1.0155
C11A C 0.2576(3) 0.5913(2) 0.93555(11)
H13A H 0.1125 0.4975 0.9260
H14A H 0.3414 0.5853 0.8779
C12A C 0.4511(3) 0.5783(2) 1.01100(11)
H15A H 0.3691 0.5851 1.0691
H16A H 0.5988 0.6705 1.0200

#END
