./LADCOL_from_POSCAR.cif_generated_by_CrystalShift
_symmetry_cell_setting triclinic
_symmetry_space_group_name_H-M 'P 1'
loop_
_symmetry_equiv_pos_site_id
_symmetry_equiv_pos_as_xyz
1 x,y,z
_cell_length_a 8.089000
_cell_length_b 11.456300
_cell_length_c 23.802200
_cell_angle_alpha 90.000000
_cell_angle_beta 90.000000
_cell_angle_gamma 90.000000
_cell_volume 2205.750129
loop_
_atom_site_label
_atom_site_type_symbol
_atom_site_fract_x
_atom_site_fract_y
_atom_site_fract_z
H1 H 1.300500 0.787500 0.790800
H2 H 1.419100 0.882500 0.765900
H3 H 1.227600 0.893200 0.757100
H4 H 0.943100 0.810000 -0.061900
H5 H 1.213800 1.103500 -0.192100
H6 H 0.699500 1.212500 0.209200
H7 H 0.580900 1.117500 0.234100
H8 H 0.772400 1.106800 0.242900
H9 H 0.492300 1.249600 0.128600
H10 H -0.056900 0.690000 0.438100
H11 H 0.069200 0.691300 0.488100
H12 H 0.365600 1.174800 0.094200
H13 H 0.213800 0.396500 0.307900
H14 H 0.379100 1.158800 0.159400
H15 H 0.537000 0.439000 0.428400
H16 H 0.503400 0.954300 0.235600
H17 H -0.149900 0.561300 0.505200
H18 H -0.099800 0.489500 0.451900
H19 H 0.525600 0.821200 0.219500
H20 H 0.656000 0.342000 0.351100
H21 H 0.682100 0.474100 0.333900
H22 H 0.317900 0.974100 0.166100
H23 H 0.474400 0.321200 0.280500
H24 H 0.496600 0.454300 0.264400
H25 H 0.344000 0.842000 0.148900
H26 H 0.620900 0.658800 0.340600
H27 H 0.634400 0.674800 0.405800
H28 H 0.507700 0.749600 0.371400
H29 H 1.099800 0.989500 0.048100
H30 H 0.227600 0.606800 0.257100
H31 H 0.419100 0.617500 0.265900
H32 H 0.300500 0.712500 0.290800
H33 H 1.149900 1.061300 -0.005200
H34 H 1.507700 0.750400 0.871400
H35 H 1.634400 0.825200 0.905800
H36 H 1.620900 0.841200 0.840600
H37 H 0.463000 0.939000 0.071600
H38 H 0.786200 0.896500 0.192100
H39 H 0.930800 1.191300 0.011900
H40 H 1.056900 1.190000 0.061900
H41 H 1.537000 1.061000 -0.071600
H42 H 0.056900 0.310000 0.561900
H43 H -0.069200 0.308700 0.511900
H44 H 0.850100 0.938700 0.005200
H45 H -0.213800 0.603500 0.692100
H46 H 1.300500 -0.212500 0.790800
H47 H -0.537000 0.561000 0.571600
H48 H 1.419100 -0.117500 0.765900
H49 H 0.149900 0.438700 0.494800
H50 H 0.099800 0.510500 0.548100
H51 H 1.227600 -0.106800 0.757100
H52 H -0.656000 0.658000 0.648900
H53 H -0.682100 0.525900 0.666100
H54 H 1.507700 -0.249600 0.871400
H55 H -0.474400 0.678800 0.719500
H56 H -0.496600 0.545700 0.735600
H57 H 1.634400 -0.174800 0.905800
H58 H -0.620900 0.341200 0.659400
H59 H -0.634400 0.325200 0.594200
H60 H -0.507700 0.250400 0.628600
H61 H 1.620900 -0.158800 0.840600
H62 H -0.227600 0.393200 0.742900
H63 H -0.419100 0.382500 0.734100
H64 H -0.300500 0.287500 0.709200
H65 H 1.496600 0.045700 0.764400
H66 H 1.474400 0.178800 0.780500
H67 H 1.496600 1.045700 0.764400
H68 H 1.474400 1.178800 0.780500
H69 H 1.682100 0.025900 0.833900
H70 H 1.656000 0.158000 0.851100
H71 H 0.900200 0.010500 0.951900
H72 H 0.850100 -0.061300 1.005200
H73 H 1.537000 0.061000 0.928400
H74 H 0.943100 0.690000 0.438100
H75 H 1.069200 0.691300 0.488100
H76 H 1.213800 0.103500 0.807900
H77 H 1.213800 0.396500 0.307900
H78 H 1.069200 -0.191300 0.988100
H79 H 1.537000 0.439000 0.428400
H80 H 0.943100 -0.190000 0.938100
H81 H 0.850100 0.561300 0.505200
H82 H 0.900200 0.489500 0.451900
H83 H 0.900200 1.010500 -0.048100
H84 H 1.656000 0.342000 0.351100
H85 H 1.682100 0.474100 0.333900
H86 H 1.656000 1.158000 -0.148900
H87 H 1.474400 0.321200 0.280500
H88 H 1.496600 0.454300 0.264400
H89 H 0.699500 0.212500 1.209200
H90 H 1.620900 0.658800 0.340600
H91 H 1.634400 0.674800 0.405800
H92 H 1.507700 0.749600 0.371400
H93 H 0.580900 0.117500 1.234100
H94 H 1.227600 0.606800 0.257100
H95 H 1.419100 0.617500 0.265900
H96 H 1.300500 0.712500 0.290800
H97 H 0.772400 0.106800 1.242900
H98 H 0.492300 0.249600 1.128600
H99 H 1.682100 1.025900 0.833900
H100 H 1.656000 1.158000 0.851100
H101 H 0.365600 0.174800 1.094200
H102 H 0.379100 0.158800 1.159400
H103 H 0.503400 -0.045700 1.235600
H104 H 0.525600 -0.178800 1.219500
H105 H 0.317900 -0.025900 1.166100
H106 H 1.056900 0.310000 0.561900
H107 H 0.930800 0.308700 0.511900
H108 H 0.344000 -0.158000 1.148900
H109 H 0.786200 0.603500 0.692100
H110 H 1.099800 -0.010500 1.048100
H111 H 0.463000 0.561000 0.571600
H112 H 1.149900 0.061300 0.994800
H113 H 1.149900 0.438700 0.494800
H114 H 1.099800 0.510500 0.548100
H115 H 0.463000 -0.061000 1.071600
H116 H 0.344000 0.658000 0.648900
H117 H 0.317900 0.525900 0.666100
H118 H 0.786200 -0.103500 1.192100
H119 H 0.525600 0.678800 0.719500
H120 H 0.503400 0.545700 0.735600
H121 H 0.930800 0.191300 1.011900
H122 H 0.379100 0.341200 0.659400
H123 H 0.365600 0.325200 0.594200
H124 H 0.492300 0.250400 0.628600
H125 H 1.056900 0.190000 1.061900
H126 H 0.772400 0.393200 0.742900
H127 H 0.580900 0.382500 0.734100
H128 H 0.699500 0.287500 0.709200
H129 H 1.682100 1.025900 -0.166100
H130 H 1.474400 1.178800 -0.219500
H131 H 0.900200 1.010500 0.951900
H132 H 0.850100 0.938700 1.005200
H133 H 1.300500 -0.212500 -0.209200
H134 H 1.419100 -0.117500 -0.234100
H135 H 1.227600 -0.106800 -0.242900
H136 H 1.507700 -0.249600 -0.128600
H137 H 1.634400 -0.174800 -0.094200
H138 H 0.556900 0.310000 -0.061900
H139 H 0.430800 0.308700 -0.011900
H140 H 1.620900 -0.158800 -0.159400
H141 H 0.286200 0.603500 -0.192100
H142 H 1.496600 0.045700 -0.235600
H143 H -0.037000 0.561000 -0.071600
H144 H 1.474400 0.178800 -0.219500
H145 H 0.649900 0.438700 0.005200
H146 H 0.599800 0.510500 -0.048100
H147 H 1.682100 0.025900 -0.166100
H148 H -0.156000 0.658000 -0.148900
H149 H -0.182100 0.525900 -0.166100
H150 H 1.656000 0.158000 -0.148900
H151 H 0.025600 0.678800 -0.219500
H152 H 0.003400 0.545700 -0.235600
H153 H 0.900200 0.010500 -0.048100
H154 H -0.120900 0.341200 -0.159400
H155 H -0.134400 0.325200 -0.094200
H156 H -0.007700 0.250400 -0.128600
H157 H 0.850100 -0.061300 0.005200
H158 H 0.272400 0.393200 -0.242900
H159 H 0.080900 0.382500 -0.234100
H160 H 0.199500 0.287500 -0.209200
H161 H 1.537000 0.061000 -0.071600
H162 H 1.213800 0.103500 -0.192100
H163 H 1.537000 1.061000 0.928400
H164 H 1.069200 -0.191300 -0.011900
H165 H 0.943100 -0.190000 -0.061900
H166 H 1.496600 1.045700 -0.235600
H167 H 1.620900 0.841200 -0.159400
H168 H 0.699500 0.212500 0.209200
H169 H 0.580900 0.117500 0.234100
H170 H 0.443100 0.690000 0.061900
H171 H 0.569200 0.691300 0.011900
H172 H 0.772400 0.106800 0.242900
H173 H 0.713800 0.396500 0.192100
H174 H 0.492300 0.249600 0.128600
H175 H 1.037000 0.439000 0.071600
H176 H 0.365600 0.174800 0.094200
H177 H 0.350100 0.561300 -0.005200
H178 H 0.400200 0.489500 0.048100
H179 H 0.379100 0.158800 0.159400
H180 H 1.156000 0.342000 0.148900
H181 H 1.182100 0.474100 0.166100
H182 H 0.503400 -0.045700 0.235600
H183 H 0.974400 0.321200 0.219500
H184 H 0.996600 0.454300 0.235600
H185 H 0.525600 -0.178800 0.219500
H186 H 1.120900 0.658800 0.159400
H187 H 1.134400 0.674800 0.094200
H188 H 1.007700 0.749600 0.128600
H189 H 0.317900 -0.025900 0.166100
H190 H 0.727600 0.606800 0.242900
H191 H 0.919100 0.617500 0.234100
H192 H 0.800500 0.712500 0.209200
H193 H 0.344000 -0.158000 0.148900
H194 H 1.213800 1.103500 0.807900
H195 H 1.099800 -0.010500 0.048100
H196 H 1.069200 0.808700 0.988100
H197 H 1.149900 0.061300 -0.005200
H198 H 0.463000 -0.061000 0.071600
H199 H 0.786200 -0.103500 0.192100
H200 H 0.930800 0.191300 0.011900
H201 H 1.056900 0.190000 0.061900
H202 H 0.556900 0.310000 0.938100
H203 H 0.430800 0.308700 0.988100
H204 H 1.634400 0.825200 -0.094200
H205 H 0.286200 0.603500 0.807900
H206 H 1.507700 0.750400 -0.128600
H207 H -0.037000 0.561000 0.928400
H208 H 0.300500 0.787500 0.790800
H209 H 0.649900 0.438700 1.005200
H210 H 0.599800 0.510500 0.951900
H211 H 0.419100 0.882500 0.765900
H212 H -0.156000 0.658000 0.851100
H213 H -0.182100 0.525900 0.833900
H214 H 0.227600 0.893200 0.757100
H215 H 0.025600 0.678800 0.780500
H216 H 0.003400 0.545700 0.764400
H217 H 0.507700 0.750400 0.871400
H218 H -0.120900 0.341200 0.840600
H219 H -0.134400 0.325200 0.905800
H220 H -0.007700 0.250400 0.871400
H221 H 0.634400 0.825200 0.905800
H222 H 0.272400 0.393200 0.757100
H223 H 0.080900 0.382500 0.765900
H224 H 0.199500 0.287500 0.790800
H225 H 0.620900 0.841200 0.840600
H226 H 0.943100 0.810000 0.938100
H227 H 0.496600 1.045700 0.764400
H228 H 0.474400 1.178800 0.780500
H229 H 0.682100 1.025900 0.833900
H230 H 0.656000 1.158000 0.851100
H231 H -0.099800 1.010500 0.951900
H232 H -0.149900 0.938700 1.005200
H233 H 0.537000 1.061000 0.928400
H234 H 0.443100 0.690000 1.061900
H235 H 0.569200 0.691300 1.011900
H236 H 0.213800 1.103500 0.807900
H237 H 0.713800 0.396500 1.192100
H238 H 0.069200 0.808700 0.988100
H239 H 1.037000 0.439000 1.071600
H240 H -0.056900 0.810000 0.938100
H241 H 0.350100 0.561300 0.994800
H242 H 0.400200 0.489500 1.048100
H243 H 1.227600 0.893200 -0.242900
H244 H 1.156000 0.342000 1.148900
H245 H 1.182100 0.474100 1.166100
H246 H 1.419100 0.882500 -0.234100
H247 H 0.974400 0.321200 1.219500
H248 H 0.996600 0.454300 1.235600
H249 H 1.300500 0.787500 -0.209200
H250 H 1.120900 0.658800 1.159400
H251 H 1.134400 0.674800 1.094200
H252 H 1.007700 0.749600 1.128600
H253 H -0.300500 1.212500 1.209200
H254 H 0.727600 0.606800 1.242900
H255 H 0.919100 0.617500 1.234100
H256 H 0.800500 0.712500 1.209200
H257 H -0.419100 1.117500 1.234100
H258 H -0.227600 1.106800 1.242900
H259 H -0.507700 1.249600 1.128600
H260 H -0.634400 1.174800 1.094200
H261 H -0.620900 1.158800 1.159400
H262 H -0.496600 0.954300 1.235600
H263 H -0.474400 0.821200 1.219500
H264 H -0.682100 0.974100 1.166100
H265 H -0.656000 0.842000 1.148900
H266 H 0.443100 -0.190000 0.561900
H267 H 0.569200 -0.191300 0.511900
H268 H 0.099800 0.989500 1.048100
H269 H 0.713800 0.103500 0.692100
H270 H 0.149900 1.061300 0.994800
H271 H 1.037000 0.061000 0.571600
H272 H -0.537000 0.939000 1.071600
H273 H 0.350100 -0.061300 0.494800
H274 H 0.400200 0.010500 0.548100
H275 H -0.213800 0.896500 1.192100
H276 H 1.156000 0.158000 0.648900
H277 H 1.182100 0.025900 0.666100
H278 H -0.069200 1.191300 1.011900
H279 H 0.974400 0.178800 0.719500
H280 H 0.996600 0.045700 0.735600
H281 H 0.056900 1.190000 1.061900
H282 H 1.120900 -0.158800 0.659400
H283 H 1.134400 -0.174800 0.594200
H284 H 1.007700 -0.249600 0.628600
H285 H 0.300500 0.787500 -0.209200
H286 H 0.727600 -0.106800 0.742900
H287 H 0.919100 -0.117500 0.734100
H288 H 0.800500 -0.212500 0.709200
H289 H 0.419100 0.882500 -0.234100
H290 H 0.227600 0.893200 -0.242900
H291 H 0.699500 1.212500 1.209200
H292 H 0.580900 1.117500 1.234100
H293 H 0.507700 0.750400 -0.128600
H294 H 0.634400 0.825200 -0.094200
H295 H 0.620900 0.841200 -0.159400
H296 H 0.496600 1.045700 -0.235600
H297 H 0.474400 1.178800 -0.219500
H298 H 0.556900 0.190000 0.438100
H299 H 0.430800 0.191300 0.488100
H300 H 0.682100 1.025900 -0.166100
H301 H 0.286200 -0.103500 0.307900
H302 H 0.656000 1.158000 -0.148900
H303 H -0.037000 -0.061000 0.428400
H304 H -0.099800 1.010500 -0.048100
H305 H 0.649900 0.061300 0.505200
H306 H 0.599800 -0.010500 0.451900
H307 H -0.149900 0.938700 0.005200
H308 H -0.156000 -0.158000 0.351100
H309 H -0.182100 -0.025900 0.333900
H310 H 0.537000 1.061000 -0.071600
H311 H 0.025600 -0.178800 0.280500
H312 H 0.003400 -0.045700 0.264400
H313 H 0.213800 1.103500 -0.192100
H314 H -0.120900 0.158800 0.340600
H315 H -0.134400 0.174800 0.405800
H316 H -0.007700 0.249600 0.371400
H317 H 0.069200 0.808700 -0.011900
H318 H 0.272400 0.106800 0.257100
H319 H 0.080900 0.117500 0.265900
H320 H 0.199500 0.212500 0.290800
H321 H -0.056900 0.810000 -0.061900
H322 H 0.772400 1.106800 1.242900
H323 H -0.300500 1.212500 0.209200
H324 H 0.492300 1.249600 1.128600
H325 H -0.419100 1.117500 0.234100
H326 H -0.227600 1.106800 0.242900
H327 H -0.507700 1.249600 0.128600
H328 H -0.634400 1.174800 0.094200
H329 H -0.620900 1.158800 0.159400
H330 H 0.443100 0.810000 0.561900
H331 H 0.569200 0.808700 0.511900
H332 H -0.496600 0.954300 0.235600
H333 H 0.713800 1.103500 0.692100
H334 H -0.474400 0.821200 0.219500
H335 H 1.037000 1.061000 0.571600
H336 H -0.682100 0.974100 0.166100
H337 H 0.350100 0.938700 0.494800
H338 H 0.400200 1.010500 0.548100
H339 H -0.656000 0.842000 0.148900
H340 H 1.156000 1.158000 0.648900
H341 H 1.182100 1.025900 0.666100
H342 H 0.099800 0.989500 0.048100
H343 H 0.974400 1.178800 0.719500
H344 H 0.996600 1.045700 0.735600
H345 H 0.149900 1.061300 -0.005200
H346 H 1.120900 0.841200 0.659400
H347 H 1.134400 0.825200 0.594200
H348 H 1.007700 0.750400 0.628600
H349 H -0.537000 0.939000 0.071600
H350 H 0.727600 0.893200 0.742900
H351 H 0.919100 0.882500 0.734100
H352 H 0.800500 0.787500 0.709200
H353 H -0.213800 0.896500 0.192100
H354 H 0.365600 1.174800 1.094200
H355 H 0.379100 1.158800 1.159400
H356 H -0.069200 1.191300 0.011900
H357 H 0.056900 1.190000 0.061900
H358 H 1.056900 1.190000 1.061900
H359 H 0.930800 1.191300 1.011900
H360 H 0.300500 -0.212500 0.790800
H361 H 0.419100 -0.117500 0.765900
H362 H 0.556900 1.190000 0.438100
H363 H 0.430800 1.191300 0.488100
H364 H 0.227600 -0.106800 0.757100
H365 H 0.286200 0.896500 0.307900
H366 H 0.507700 -0.249600 0.871400
H367 H -0.037000 0.939000 0.428400
H368 H 0.634400 -0.174800 0.905800
H369 H 0.649900 1.061300 0.505200
H370 H 0.599800 0.989500 0.451900
H371 H 0.620900 -0.158800 0.840600
H372 H -0.156000 0.842000 0.351100
H373 H -0.182100 0.974100 0.333900
H374 H 0.496600 0.045700 0.764400
H375 H 0.025600 0.821200 0.280500
H376 H 0.003400 0.954300 0.264400
H377 H 0.474400 0.178800 0.780500
H378 H -0.120900 1.158800 0.340600
H379 H -0.134400 1.174800 0.405800
H380 H -0.007700 1.249600 0.371400
H381 H 0.682100 0.025900 0.833900
H382 H 0.272400 1.106800 0.257100
H383 H 0.080900 1.117500 0.265900
H384 H 0.199500 1.212500 0.290800
H385 H 0.656000 0.158000 0.851100
H386 H 0.503400 0.954300 1.235600
H387 H 0.525600 0.821200 1.219500
H388 H -0.099800 0.010500 0.951900
H389 H -0.149900 -0.061300 1.005200
H390 H 0.537000 0.061000 0.928400
H391 H 0.213800 0.103500 0.807900
H392 H 0.069200 -0.191300 0.988100
H393 H -0.056900 -0.190000 0.938100
H394 H 0.056900 0.190000 0.061900
H395 H -0.069200 0.191300 0.011900
H396 H 0.786200 0.896500 1.192100
H397 H -0.213800 -0.103500 0.192100
H398 H 0.463000 0.939000 1.071600
H399 H -0.537000 -0.061000 0.071600
H400 H -0.300500 0.212500 1.209200
H401 H 0.149900 0.061300 -0.005200
H402 H 0.099800 -0.010500 0.048100
H403 H -0.419100 0.117500 1.234100
H404 H -0.656000 -0.158000 0.148900
H405 H -0.682100 -0.025900 0.166100
H406 H 1.069200 0.808700 -0.011900
H407 H -0.474400 -0.178800 0.219500
H408 H -0.496600 -0.045700 0.235600
H409 H -0.227600 0.106800 1.242900
H410 H -0.620900 0.158800 0.159400
H411 H -0.634400 0.174800 0.094200
H412 H -0.507700 0.249600 0.128600
H413 H -0.507700 0.249600 1.128600
H414 H -0.227600 0.106800 0.242900
H415 H -0.419100 0.117500 0.234100
H416 H -0.300500 0.212500 0.209200
H417 H -0.634400 0.174800 1.094200
H418 H 0.317900 0.974100 1.166100
H419 H 0.344000 0.842000 1.148900
H420 H -0.620900 0.158800 1.159400
H421 H -0.496600 -0.045700 1.235600
H422 H -0.474400 -0.178800 1.219500
H423 H -0.682100 -0.025900 1.166100
H424 H -0.656000 -0.158000 1.148900
H425 H 0.099800 -0.010500 1.048100
H426 H -0.056900 -0.190000 -0.061900
H427 H 0.069200 -0.191300 -0.011900
H428 H 0.149900 0.061300 0.994800
H429 H 0.213800 0.103500 -0.192100
H430 H -0.537000 -0.061000 1.071600
H431 H 0.537000 0.061000 -0.071600
H432 H -0.213800 -0.103500 1.192100
H433 H -0.149900 -0.061300 0.005200
H434 H -0.099800 0.010500 -0.048100
H435 H -0.069200 0.191300 1.011900
H436 H 0.656000 0.158000 -0.148900
H437 H 0.682100 0.025900 -0.166100
H438 H 0.056900 0.190000 1.061900
H439 H 0.474400 0.178800 -0.219500
H440 H 0.496600 0.045700 -0.235600
H441 H 1.149900 1.061300 0.994800
H442 H 0.620900 -0.158800 -0.159400
H443 H 0.634400 -0.174800 -0.094200
H444 H 0.507700 -0.249600 -0.128600
H445 H 1.099800 0.989500 1.048100
H446 H 0.227600 -0.106800 -0.242900
H447 H 0.419100 -0.117500 -0.234100
H448 H 0.300500 -0.212500 -0.209200
C449 C 0.475100 1.099600 0.795000
C450 C 0.312800 -0.130900 -0.217300
C451 C 0.560100 -0.174700 -0.125600
C452 C 1.056900 1.036900 1.017700
C453 C -0.134500 0.087700 1.136250
C454 C -0.428100 0.080300 1.117070
C455 C -0.324500 0.114600 1.066300
C456 C -0.299200 0.062100 1.164080
C457 C -0.025300 0.144000 1.042200
C458 C 0.475100 0.099600 -0.205000
C459 C 0.600300 0.085000 -0.157200
C460 C -0.312100 -0.070000 1.174300
C461 C -0.056900 -0.036900 -0.017700
C462 C -0.488700 -0.046800 1.108800
C463 C 0.488700 0.046800 -0.108800
C464 C 0.056900 0.036900 1.017700
C465 C 0.312100 0.070000 -0.174300
C466 C 0.025300 -0.144000 -0.042200
C467 C -0.600300 -0.085000 1.157200
C468 C 0.299200 -0.062100 -0.164080
C469 C 0.324500 -0.114600 -0.066300
C470 C -0.475100 -0.099600 1.205000
C471 C 0.428100 -0.080300 -0.117070
C472 C 0.134500 -0.087700 -0.136250
C473 C -0.560100 0.174700 1.125600
C474 C 0.399700 0.915000 1.157200
C475 C 1.312800 0.869100 0.782700
C476 C -0.312800 0.130900 0.217300
C477 C -0.312800 0.130900 1.217300
C478 C -0.560100 0.174700 0.125600
C479 C -0.600300 -0.085000 0.157200
C480 C 0.056900 0.036900 0.017700
C481 C 1.025300 0.856000 -0.042200
C482 C -0.488700 -0.046800 0.108800
C483 C 0.511300 0.953200 1.108800
C484 C -0.312100 -0.070000 0.174300
C485 C 0.134500 -0.087700 0.863750
C486 C 0.428100 -0.080300 0.882930
C487 C 0.324500 -0.114600 0.933700
C488 C 0.299200 -0.062100 0.835920
C489 C 0.025300 -0.144000 0.957800
C490 C -0.025300 0.144000 0.042200
C491 C -0.299200 0.062100 0.164080
C492 C 0.312100 0.070000 0.825700
C493 C -0.324500 0.114600 0.066300
C494 C 0.488700 0.046800 0.891200
C495 C -0.428100 0.080300 0.117070
C496 C -0.056900 -0.036900 0.982300
C497 C -0.134500 0.087700 0.136250
C498 C 0.524900 0.900400 1.205000
C499 C 0.600300 0.085000 0.842800
C500 C 1.299200 0.937900 -0.164080
C501 C 0.187200 1.130900 0.282700
C502 C 0.475100 0.099600 0.795000
C503 C -0.060100 1.174700 0.374400
C504 C 0.024900 0.900400 0.295000
C505 C 0.560100 -0.174700 0.874400
C506 C -0.100300 0.915000 0.342800
C507 C 0.556900 1.036900 0.482300
C508 C 0.011300 0.953200 0.391200
C509 C 0.312800 -0.130900 0.782700
C510 C 0.187900 0.930000 0.325700
C511 C 0.474700 1.144000 0.457800
C512 C 0.200800 1.062100 0.335920
C513 C 1.324500 0.885400 -0.066300
C514 C 0.687900 0.930000 1.174300
C515 C 0.175500 1.114600 0.433700
C516 C 0.071900 1.080300 0.382930
C517 C -0.134500 1.087700 0.136250
C518 C -0.428100 1.080300 0.117070
C519 C -0.324500 1.114600 0.066300
C520 C -0.299200 1.062100 0.164080
C521 C -0.025300 1.144000 0.042200
C522 C 0.365500 1.087700 0.363750
C523 C 0.439900 1.174700 1.125600
C524 C -0.312100 0.930000 0.174300
C525 C 1.428100 0.919700 -0.117070
C526 C -0.488700 0.953200 0.108800
C527 C 0.812800 0.869100 0.717300
C528 C 0.056900 1.036900 0.017700
C529 C 1.060100 0.825300 0.625600
C530 C 0.975100 1.099600 0.705000
C531 C -0.600300 0.915000 0.157200
C532 C 1.100300 1.085000 0.657200
C533 C 0.443100 0.963100 0.517700
C534 C -0.475100 0.900400 0.205000
C535 C 0.988700 1.046800 0.608800
C536 C 0.812100 1.070000 0.674300
C537 C -0.560100 1.174700 0.125600
C538 C 0.525300 0.856000 0.542200
C539 C 0.799200 0.937900 0.664080
C540 C 0.824500 0.885400 0.566300
C541 C -0.312800 1.130900 0.217300
C542 C 0.928100 0.919700 0.617070
C543 C 0.634500 0.912300 0.636250
C544 C 0.687200 1.130900 1.217300
C545 C 1.134500 0.912300 -0.136250
C546 C 0.974700 1.144000 1.042200
C547 C 0.700800 1.062100 1.164080
C548 C 0.675500 1.114600 1.066300
C549 C 0.134500 0.912300 -0.136250
C550 C 0.428100 0.919700 -0.117070
C551 C 0.324500 0.885400 -0.066300
C552 C 0.299200 0.937900 -0.164080
C553 C 0.025300 0.856000 -0.042200
C554 C 1.312100 1.070000 -0.174300
C555 C 0.187200 0.130900 0.282700
C556 C 0.312100 1.070000 -0.174300
C557 C -0.060100 0.174700 0.374400
C558 C 0.488700 1.046800 -0.108800
C559 C 0.024900 -0.099600 0.295000
C560 C -0.056900 0.963100 -0.017700
C561 C -0.100300 -0.085000 0.342800
C562 C 0.556900 0.036900 0.482300
C563 C 0.600300 1.085000 -0.157200
C564 C 0.011300 -0.046800 0.391200
C565 C 0.187900 -0.070000 0.325700
C566 C 0.475100 1.099600 -0.205000
C567 C 0.474700 0.144000 0.457800
C568 C 0.200800 0.062100 0.335920
C569 C 0.560100 0.825300 -0.125600
C570 C 0.175500 0.114600 0.433700
C571 C 0.071900 0.080300 0.382930
C572 C 0.365500 0.087700 0.363750
C573 C 0.312800 0.869100 -0.217300
C574 C 0.134500 0.587700 0.363750
C575 C 1.488700 1.046800 -0.108800
C576 C 0.812800 -0.130900 0.717300
C577 C 0.428100 0.580300 0.382930
C578 C 0.571900 1.080300 1.117070
C579 C 0.865500 1.087700 1.136250
C580 C 0.324500 0.614600 0.433700
C581 C -0.134500 1.087700 1.136250
C582 C -0.428100 1.080300 1.117070
C583 C -0.324500 1.114600 1.066300
C584 C -0.299200 1.062100 1.164080
C585 C -0.025300 1.144000 1.042200
C586 C 1.060100 -0.174700 0.625600
C587 C 0.975100 0.099600 0.705000
C588 C -0.312100 0.930000 1.174300
C589 C 1.100300 0.085000 0.657200
C590 C -0.488700 0.953200 1.108800
C591 C 0.443100 -0.036900 0.517700
C592 C 0.056900 1.036900 1.017700
C593 C 0.988700 0.046800 0.608800
C594 C 0.812100 0.070000 0.674300
C595 C -0.600300 0.915000 1.157200
C596 C 0.525300 -0.144000 0.542200
C597 C 0.799200 -0.062100 0.664080
C598 C -0.475100 0.900400 1.205000
C599 C 0.824500 -0.114600 0.566300
C600 C 0.928100 -0.080300 0.617070
C601 C -0.560100 1.174700 1.125600
C602 C 0.634500 -0.087700 0.636250
C603 C 1.134500 0.912300 0.863750
C604 C 1.428100 0.919700 0.882930
C605 C -0.312800 1.130900 1.217300
C606 C 1.324500 0.885400 0.933700
C607 C 0.299200 0.562100 0.335920
C608 C 0.812800 0.630900 1.217300
C609 C 0.687200 1.130900 0.217300
C610 C 1.060100 0.674700 1.125600
C611 C 0.975100 0.400400 1.205000
C612 C 1.100300 0.415000 1.157200
C613 C 0.134500 0.912300 0.863750
C614 C 0.428100 0.919700 0.882930
C615 C 0.324500 0.885400 0.933700
C616 C 0.299200 0.937900 0.835920
C617 C 0.025300 0.856000 0.957800
C618 C 0.443100 0.536900 1.017700
C619 C 0.988700 0.453200 1.108800
C620 C 0.312100 1.070000 0.825700
C621 C 0.812100 0.430000 1.174300
C622 C 0.488700 1.046800 0.891200
C623 C 0.525300 0.644000 1.042200
C624 C -0.056900 0.963100 0.982300
C625 C 0.799200 0.562100 1.164080
C626 C 0.824500 0.614600 1.066300
C627 C 0.600300 1.085000 0.842800
C628 C 0.928100 0.580300 1.117070
C629 C 0.634500 0.587700 1.136250
C630 C -0.475100 -0.099600 0.205000
C631 C 1.299200 0.937900 0.835920
C632 C 1.025300 0.856000 0.957800
C633 C 0.560100 0.825300 0.874400
C634 C 0.025300 0.644000 0.457800
C635 C 0.187200 0.369100 0.782700
C636 C -0.060100 0.325300 0.874400
C637 C 0.312800 0.869100 0.782700
C638 C 0.024900 0.599600 0.795000
C639 C -0.100300 0.585000 0.842800
C640 C 0.556900 0.463100 0.982300
C641 C 0.312100 0.430000 0.325700
C642 C 1.312800 0.869100 -0.217300
C643 C 0.011300 0.546800 0.891200
C644 C 0.187900 0.570000 0.825700
C645 C 0.865500 0.087700 0.136250
C646 C 0.571900 0.080300 0.117070
C647 C 0.675500 0.114600 0.066300
C648 C 0.700800 0.062100 0.164080
C649 C 0.974700 0.144000 0.042200
C650 C 0.474700 0.356000 0.957800
C651 C 0.200800 0.437900 0.835920
C652 C 0.687900 -0.070000 0.174300
C653 C 0.175500 0.385400 0.933700
C654 C 0.511300 -0.046800 0.108800
C655 C 0.071900 0.419700 0.882930
C656 C 1.056900 0.036900 0.017700
C657 C 0.365500 0.412300 0.863750
C658 C 1.312100 1.070000 0.825700
C659 C 0.399700 -0.085000 0.157200
C660 C 0.488700 0.453200 0.391200
C661 C 0.812800 0.630900 0.217300
C662 C 0.524900 -0.099600 0.205000
C663 C 1.060100 0.674700 0.125600
C664 C 0.975100 0.400400 0.205000
C665 C 0.439900 0.174700 0.125600
C666 C 1.100300 0.415000 0.157200
C667 C 0.443100 0.536900 0.017700
C668 C 0.988700 0.453200 0.108800
C669 C 0.687200 0.130900 0.217300
C670 C 0.812100 0.430000 0.174300
C671 C 0.525300 0.644000 0.042200
C672 C 0.799200 0.562100 0.164080
C673 C 0.439900 1.174700 0.125600
C674 C 0.824500 0.614600 0.066300
C675 C 1.560100 0.825300 -0.125600
C676 C 0.928100 0.580300 0.117070
C677 C 1.134500 -0.087700 -0.136250
C678 C 1.428100 -0.080300 -0.117070
C679 C 1.324500 -0.114600 -0.066300
C680 C 1.299200 -0.062100 -0.164080
C681 C 1.025300 -0.144000 -0.042200
C682 C 0.634500 0.587700 0.136250
C683 C 1.488700 1.046800 0.891200
C684 C 1.312100 0.070000 -0.174300
C685 C 0.943100 0.963100 0.982300
C686 C 1.488700 0.046800 -0.108800
C687 C -0.056900 0.536900 0.482300
C688 C 0.943100 -0.036900 -0.017700
C689 C 0.187200 0.369100 -0.217300
C690 C -0.060100 0.325300 -0.125600
C691 C 1.600300 0.085000 -0.157200
C692 C 0.024900 0.599600 -0.205000
C693 C -0.100300 0.585000 -0.157200
C694 C 1.475100 0.099600 -0.205000
C695 C 0.556900 0.463100 -0.017700
C696 C 0.011300 0.546800 -0.108800
C697 C 1.560100 -0.174700 -0.125600
C698 C 0.187900 0.570000 -0.174300
C699 C 0.474700 0.356000 -0.042200
C700 C 0.200800 0.437900 -0.164080
C701 C 1.312800 -0.130900 -0.217300
C702 C 0.175500 0.385400 -0.066300
C703 C 0.071900 0.419700 -0.117070
C704 C 0.365500 0.412300 -0.136250
C705 C 0.600300 0.415000 0.342800
C706 C 1.600300 1.085000 0.842800
C707 C 1.475100 1.099600 -0.205000
C708 C 0.524900 0.900400 0.205000
C709 C 0.865500 0.087700 1.136250
C710 C 0.571900 0.080300 1.117070
C711 C 0.675500 0.114600 1.066300
C712 C 0.700800 0.062100 1.164080
C713 C 0.974700 0.144000 1.042200
C714 C 0.687200 0.369100 0.717300
C715 C 0.439900 0.325300 0.625600
C716 C 0.687900 -0.070000 1.174300
C717 C 0.524900 0.599600 0.705000
C718 C 0.511300 -0.046800 1.108800
C719 C 0.399700 0.585000 0.657200
C720 C 1.056900 0.036900 1.017700
C721 C 1.056900 0.463100 0.517700
C722 C 0.511300 0.546800 0.608800
C723 C 0.399700 -0.085000 1.157200
C724 C 0.687900 0.570000 0.674300
C725 C 0.974700 0.356000 0.542200
C726 C 0.524900 -0.099600 1.205000
C727 C 0.700800 0.437900 0.664080
C728 C 0.675500 0.385400 0.566300
C729 C 0.439900 0.174700 1.125600
C730 C 0.571900 0.419700 0.617070
C731 C 0.865500 0.412300 0.636250
C732 C 1.475100 1.099600 0.795000
C733 C 0.687200 0.130900 1.217300
C734 C 0.475100 0.400400 0.295000
C735 C 1.312800 0.630900 0.282700
C736 C 1.560100 0.674700 0.374400
C737 C 0.560100 0.674700 0.374400
C738 C 1.475100 0.400400 0.295000
C739 C 1.600300 1.085000 -0.157200
C740 C 1.600300 0.415000 0.342800
C741 C 1.134500 -0.087700 0.863750
C742 C 1.428100 -0.080300 0.882930
C743 C 1.324500 -0.114600 0.933700
C744 C 1.299200 -0.062100 0.835920
C745 C 1.025300 -0.144000 0.957800
C746 C 0.943100 0.536900 0.482300
C747 C 1.488700 0.453200 0.391200
C748 C 1.312100 0.070000 0.825700
C749 C 1.312100 0.430000 0.325700
C750 C 1.488700 0.046800 0.891200
C751 C 1.025300 0.644000 0.457800
C752 C 0.943100 -0.036900 0.982300
C753 C 1.299200 0.562100 0.335920
C754 C 1.324500 0.614600 0.433700
C755 C 1.600300 0.085000 0.842800
C756 C 1.428100 0.580300 0.382930
C757 C 1.134500 0.587700 0.363750
C758 C 1.475100 0.099600 0.795000
C759 C 1.560100 0.825300 0.874400
C760 C 0.399700 0.915000 0.157200
C761 C 1.560100 -0.174700 0.874400
C762 C -0.312800 0.369100 0.717300
C763 C -0.560100 0.325300 0.625600
C764 C -0.475100 0.599600 0.705000
C765 C 1.312800 -0.130900 0.782700
C766 C -0.600300 0.585000 0.657200
C767 C 0.056900 0.463100 0.517700
C768 C -0.488700 0.546800 0.608800
C769 C 0.312800 0.630900 0.282700
C770 C -0.312100 0.570000 0.674300
C771 C 0.943100 0.963100 -0.017700
C772 C -0.025300 0.356000 0.542200
C773 C 0.865500 1.087700 0.136250
C774 C 0.571900 1.080300 0.117070
C775 C 0.675500 1.114600 0.066300
C776 C 0.700800 1.062100 0.164080
C777 C 0.974700 1.144000 0.042200
C778 C -0.299200 0.437900 0.664080
C779 C -0.324500 0.385400 0.566300
C780 C 0.687900 0.930000 0.174300
C781 C -0.428100 0.419700 0.617070
C782 C 0.511300 0.953200 0.108800
C783 C -0.134500 0.412300 0.636250
C784 C 1.056900 1.036900 0.017700
N785 N -0.159900 0.385700 0.581170
N786 N 0.840100 1.114300 0.081170
N787 N 1.159900 0.614300 0.418830
N788 N 1.159900 -0.114300 0.918830
N789 N 0.840100 0.385700 0.581170
N790 N 0.340100 0.385700 -0.081170
N791 N 0.840100 0.114300 1.081170
N792 N 0.659900 0.614300 0.081170
N793 N 1.159900 -0.114300 -0.081170
N794 N 0.340100 0.385700 0.918830
N795 N 0.840100 0.114300 0.081170
N796 N 0.659900 0.614300 1.081170
N797 N 0.159900 0.885700 0.918830
N798 N 0.659900 -0.114300 0.581170
N799 N 0.840100 1.114300 1.081170
N800 N -0.159900 1.114300 1.081170
N801 N 1.159900 0.885700 -0.081170
N802 N 0.340100 0.114300 0.418830
N803 N 1.159900 0.885700 0.918830
N804 N 0.659900 0.885700 0.581170
N805 N 0.159900 0.885700 -0.081170
N806 N 0.340100 1.114300 0.418830
N807 N -0.159900 1.114300 0.081170
N808 N -0.159900 0.114300 0.081170
N809 N 0.159900 -0.114300 0.918830
N810 N 0.159900 -0.114300 -0.081170
N811 N -0.159900 0.114300 1.081170
N812 N 0.159900 0.614300 0.418830
O813 O 1.341600 1.113200 -0.119100
O814 O 1.000900 0.916300 -0.158480
O815 O 0.623800 1.137500 0.020060
O816 O 0.658400 0.886800 0.119100
O817 O 0.999100 1.083700 0.158480
O818 O 1.376200 -0.137500 0.979940
O819 O 1.341600 0.113200 0.880900
O820 O 1.000900 -0.083700 0.841520
O821 O 0.623800 0.137500 1.020060
O822 O 0.658400 -0.113200 1.119100
O823 O 0.999100 0.083700 1.158480
O824 O 1.376200 -0.137500 -0.020060
O825 O 1.341600 0.113200 -0.119100
O826 O 1.000900 -0.083700 -0.158480
O827 O 0.623800 0.137500 0.020060
O828 O 0.658400 -0.113200 0.119100
O829 O 0.999100 0.083700 0.158480
O830 O 0.376200 0.862500 0.979940
O831 O 0.341600 1.113200 0.880900
O832 O 0.000900 0.916300 0.841520
O833 O -0.376200 1.137500 1.020060
O834 O 0.999100 1.083700 1.158480
O835 O 0.658400 0.886800 1.119100
O836 O 0.623800 1.137500 1.020060
O837 O -0.341600 0.886800 1.119100
O838 O -0.000900 1.083700 1.158480
O839 O 0.376200 0.862500 -0.020060
O840 O 0.341600 1.113200 -0.119100
O841 O 0.000900 0.916300 -0.158480
O842 O -0.376200 1.137500 0.020060
O843 O -0.341600 0.886800 0.119100
O844 O -0.000900 1.083700 0.158480
O845 O 0.376200 -0.137500 0.979940
O846 O 0.341600 0.113200 0.880900
O847 O 0.000900 -0.083700 0.841520
O848 O -0.376200 0.137500 1.020060
O849 O -0.341600 -0.113200 1.119100
O850 O -0.000900 0.083700 1.158480
O851 O 0.376200 -0.137500 -0.020060
O852 O 0.341600 0.113200 -0.119100
O853 O 0.000900 -0.083700 -0.158480
O854 O -0.376200 0.137500 0.020060
O855 O -0.341600 -0.113200 0.119100
O856 O -0.000900 0.083700 0.158480
O857 O 0.123800 1.137500 0.479940
O858 O 0.158400 0.886800 0.380900
O859 O 0.499100 1.083700 0.341520
O860 O 0.876200 0.862500 0.520060
O861 O 0.841600 1.113200 0.619100
O862 O 0.500900 0.916300 0.658480
O863 O 0.123800 0.137500 0.479940
O864 O 0.158400 -0.113200 0.380900
O865 O 0.499100 0.083700 0.341520
O866 O 1.000900 0.916300 0.841520
O867 O 1.341600 1.113200 0.880900
O868 O 1.376200 0.862500 0.979940
O869 O 0.876200 -0.137500 0.520060
O870 O 0.841600 0.113200 0.619100
O871 O 0.500900 -0.083700 0.658480
O872 O 0.876200 0.637500 1.020060
O873 O 0.841600 0.386800 1.119100
O874 O 0.500900 0.583700 1.158480
O875 O 0.123800 0.362500 0.979940
O876 O 0.158400 0.613200 0.880900
O877 O 0.499100 0.416300 0.841520
O878 O 0.876200 0.637500 0.020060
O879 O 0.841600 0.386800 0.119100
O880 O 0.500900 0.583700 0.158480
O881 O 0.123800 0.362500 -0.020060
O882 O 0.158400 0.613200 -0.119100
O883 O 0.499100 0.416300 -0.158480
O884 O 0.623800 0.362500 0.520060
O885 O 0.658400 0.613200 0.619100
O886 O 0.999100 0.416300 0.658480
O887 O 1.376200 0.637500 0.479940
O888 O 1.341600 0.386800 0.380900
O889 O 1.000900 0.583700 0.341520
O890 O -0.376200 0.362500 0.520060
O891 O -0.341600 0.613200 0.619100
O892 O -0.000900 0.416300 0.658480
O893 O 0.376200 0.637500 0.479940
O894 O 0.341600 0.386800 0.380900
O895 O 0.000900 0.583700 0.341520
O896 O 1.376200 0.862500 -0.020060

#END
