./LADCIF_from_POSCAR.cif_generated_by_CrystalShift
_symmetry_cell_setting triclinic
_symmetry_space_group_name_H-M 'P 1'
loop_
_symmetry_equiv_pos_site_id
_symmetry_equiv_pos_as_xyz
1 x,y,z
_cell_length_a 7.074400
_cell_length_b 15.683700
_cell_length_c 18.425000
_cell_angle_alpha 90.000000
_cell_angle_beta 90.000000
_cell_angle_gamma 90.000000
_cell_volume 2044.304737
loop_
_atom_site_label
_atom_site_type_symbol
_atom_site_fract_x
_atom_site_fract_y
_atom_site_fract_z
H1 H 0.194100 0.941100 0.260100
H2 H 0.154400 0.875400 0.323500
H3 H 0.522000 0.754000 0.463100
H4 H 0.600900 0.846400 0.474800
H5 H 1.249500 0.255100 0.427800
H6 H 1.414600 0.292600 0.380900
H7 H 1.446400 0.273400 0.463500
H8 H 0.388900 0.833000 0.452800
H9 H 1.441800 0.544800 0.542400
H10 H 0.668600 0.242600 0.163200
H11 H 1.233500 0.581500 0.285800
H12 H -0.026000 0.133400 0.121700
H13 H 0.121800 0.064400 0.145800
H14 H 1.089200 0.507500 0.271500
H15 H -0.006900 0.199100 0.236000
H16 H 0.133000 0.128300 0.262900
H17 H 0.340000 0.819200 0.213300
H18 H 0.660000 0.319200 0.286700
H19 H 0.867000 0.628300 0.237100
H20 H 1.006900 0.699100 0.264000
H21 H -0.089200 0.007500 0.228500
H22 H -0.233500 0.081500 0.214200
H23 H 0.878200 0.564400 0.354200
H24 H 1.026000 0.633400 0.378300
H25 H 0.331400 0.742600 0.336800
H26 H 1.445200 0.449000 0.640100
H27 H 1.575800 0.400200 0.584000
H28 H 0.396100 1.012800 0.331500
H29 H 1.305900 0.058900 0.760100
H30 H 0.611100 0.333000 0.047200
H31 H 0.399100 0.346400 0.025200
H32 H 0.478000 0.254000 0.036900
H33 H 1.345600 0.124600 0.823500
H34 H -0.441800 0.044800 -0.042400
H35 H 0.250500 0.744900 0.927800
H36 H -0.445200 -0.051000 -0.140100
H37 H -0.575800 -0.099800 -0.084000
H38 H 0.085400 0.707400 0.880900
H39 H 0.603900 0.512800 0.168500
H40 H 0.650500 0.449300 0.104200
H41 H 0.053600 0.726600 0.963500
H42 H -0.352300 -0.200500 -0.071300
H43 H -0.220300 -0.150900 -0.126300
H44 H 0.445500 0.631700 1.017200
H45 H -0.683000 -0.118700 0.026400
H46 H -0.729400 -0.022400 0.040700
H47 H -0.671900 -0.081900 0.105400
H48 H 0.815200 0.059800 0.844400
H49 H 0.315200 0.440200 0.155600
H50 H -0.171900 0.581900 0.894600
H51 H -0.054500 -0.131700 -0.017200
H52 H -0.229400 0.522400 0.959300
H53 H -0.446400 -0.226600 0.036500
H54 H -0.414600 -0.207400 0.119100
H55 H -0.249500 -0.244900 0.072200
H56 H -0.183000 0.618700 0.973600
H57 H 0.845600 0.375400 0.176500
H58 H 0.805900 0.441100 0.239900
H59 H 0.279700 0.650900 1.126300
H60 H 1.054500 0.368300 0.517200
H61 H 0.147700 0.700500 1.071300
H62 H 1.150500 0.050700 0.895800
H63 H 0.684800 0.940200 0.344400
H64 H 1.103900 -0.012800 0.831500
H65 H 1.671900 0.418100 0.394600
H66 H -0.075800 0.599800 1.084000
H67 H 0.054800 0.551000 1.140100
H68 H -0.168600 0.757400 0.663200
H69 H 0.058200 0.455200 1.042400
H70 H 0.526000 0.866600 0.621700
H71 H 0.378200 0.935600 0.645800
H72 H 0.978000 0.246000 0.963100
H73 H 0.506900 0.800900 0.736000
H74 H 0.367000 0.871700 0.762900
H75 H 0.899100 0.153600 0.974800
H76 H -0.160000 0.680800 0.786700
H77 H 1.111100 0.167000 0.952800
H78 H 0.349500 0.949300 0.395800
H79 H 0.589200 0.992500 0.728500
H80 H 0.733500 0.918500 0.714200
H81 H 0.266500 0.418500 0.785800
H82 H 0.410800 0.492500 0.771500
H83 H 1.160000 0.180800 0.713300
H84 H 1.729400 0.477600 0.459300
H85 H 0.633000 0.371700 0.737100
H86 H 0.493100 0.300900 0.764000
H87 H 0.621800 0.435600 0.854200
H88 H -0.111100 0.667000 0.547200
H89 H 0.100900 0.653600 0.525200
H90 H 0.022000 0.746000 0.536900
H91 H 0.474000 0.366600 0.878300
H92 H 0.941800 0.955200 0.457600
H93 H 1.168600 0.257400 0.836800
H94 H 0.945200 1.051000 0.359900
H95 H 1.075800 1.099800 0.416000
H96 H 1.352300 0.299500 0.571300
H97 H -0.103900 0.487200 0.668500
H98 H -0.150500 0.550700 0.604200
H99 H 1.220300 0.349100 0.626300
H100 H 0.852300 1.200500 0.428700
H101 H 0.720300 1.150900 0.373700
H102 H 1.683000 0.381300 0.473600
H103 H 1.183000 1.118700 0.526400
H104 H 1.229400 1.022400 0.540700
H105 H 1.171900 1.081900 0.605400
H106 H -0.305900 0.558900 0.739900
H107 H 0.184800 0.559800 0.655600
H108 H -0.345600 0.624600 0.676500
H109 H 0.554500 1.131700 0.482800
H110 H 0.749500 1.244900 0.572200
H111 H 0.946400 1.226600 0.536500
H112 H 0.914600 1.207400 0.619100
C113 C 0.856600 1.207380 0.572000
C114 C -0.247700 0.596100 0.704200
C115 C 0.684000 1.109610 0.480430
C116 C 0.072700 0.593430 0.668170
C117 C 0.252300 0.903900 0.295800
C118 C 1.151300 1.069500 0.555000
C119 C 1.651300 0.430500 0.445000
C120 C 0.434100 0.204980 0.223720
C121 C 0.797400 1.145500 0.416900
C122 C -0.112400 0.546800 0.654600
C123 C 1.297400 0.354500 0.583100
C124 C 0.934100 0.295020 0.776280
C125 C 1.059000 0.231160 0.813100
C126 C 0.950300 1.076700 0.407770
C127 C 0.519600 0.399400 0.837290
C128 C 0.895500 1.013100 0.466720
C129 C 0.015500 0.687900 0.553200
C130 C 0.594300 0.338800 0.779090
C131 C 0.886700 0.978830 0.597150
C132 C 0.944400 1.046790 0.543080
C133 C 1.114400 0.159750 0.760220
C134 C 0.070300 0.683530 0.633160
C135 C 0.334200 0.584540 0.886290
C136 C 0.361000 0.454600 0.808450
C137 C 0.262000 0.724190 0.644480
C138 C 0.792400 1.117580 0.553190
C139 C 0.207600 0.617580 0.946810
C140 C 0.738000 0.224190 0.855520
C141 C 0.929700 0.183530 0.866840
C142 C 0.639000 0.954600 0.691550
C143 C 0.055600 0.546790 0.956920
C144 C 0.113300 0.478830 0.902850
C145 C 0.984500 0.187900 0.946800
C146 C 0.665800 1.084540 0.613710
C147 C -0.114400 0.659750 0.739780
C148 C 0.405700 0.838800 0.720910
C149 C 0.104500 0.513100 1.033280
C150 C 0.480400 0.899400 0.662710
C151 C 0.049700 0.576700 1.092230
C152 C -0.059000 0.731160 0.686900
C153 C 0.065900 0.795020 0.723720
C154 C 1.112400 0.046800 0.845400
C155 C 0.572700 0.906570 0.331830
C156 C 0.515500 0.812100 0.446800
C157 C 0.202600 0.645500 1.083100
C158 C 1.184000 0.390390 0.519570
C159 C 1.386700 0.521170 0.402850
C160 C -0.151300 0.569500 0.945000
C161 C 0.747700 0.403900 0.204200
C162 C -0.356600 -0.207380 0.072000
C163 C -0.184000 -0.109610 -0.019570
C164 C 0.927300 0.093430 0.831830
C165 C 0.427300 0.406570 0.168170
C166 C 0.316000 0.609610 1.019570
C167 C -0.651300 -0.069500 0.055000
C168 C 0.143400 0.707380 0.928000
C169 C -0.297400 -0.145500 -0.083100
C170 C 0.612400 0.453200 0.154600
C171 C -0.450300 -0.076700 -0.092230
C172 C 1.247700 0.096100 0.795800
C173 C -0.395500 -0.013100 -0.033280
C174 C 0.484500 0.312100 0.053200
C175 C 1.444400 0.453210 0.456920
C176 C -0.386700 0.021170 0.097150
C177 C 0.387600 0.953200 0.345400
C178 C 0.559000 0.268840 0.186900
C179 C -0.444400 -0.046790 0.043080
C180 C 1.356600 0.292620 0.428000
C181 C 1.450300 0.423300 0.592230
C182 C 0.565900 0.704980 0.276280
C183 C 0.441000 0.768840 0.313100
C184 C 0.429700 0.316470 0.133160
C185 C 0.980400 0.600600 0.337290
C186 C 0.238000 0.275810 0.144480
C187 C -0.292400 -0.117580 0.053190
C188 C 0.905700 0.661200 0.279090
C189 C -0.139000 0.045400 0.191550
C190 C -0.165800 -0.084540 0.113710
C191 C 0.385600 0.840250 0.260220
C192 C 0.614400 0.340250 0.239780
C193 C 1.165800 0.415460 0.386290
C194 C 1.139000 0.545400 0.308450
C195 C 0.094300 0.161200 0.220910
C196 C 0.019600 0.100600 0.162710
C197 C 1.292400 0.382420 0.446810
C198 C 0.762000 0.775810 0.355520
C199 C 0.570300 0.816470 0.366840
C200 C 1.395500 0.486900 0.533280
N201 N 0.728500 1.005190 0.634570
N202 N 0.246600 0.788000 0.695850
N203 N 0.753400 0.288000 0.804150
N204 N 0.253400 0.212000 0.195850
N205 N 0.271500 0.505190 0.865430
N206 N 1.228500 0.494810 0.365430
N207 N 0.746600 0.712000 0.304150
N208 N -0.228500 -0.005190 0.134570
O209 O 0.523200 0.656740 0.227440
O210 O 0.559700 0.886390 0.255300
O211 O 1.192700 0.480620 0.532610
O212 O 0.908300 0.794830 0.385180
O213 O 1.031000 0.379330 0.360380
O214 O 0.036200 0.410650 0.893670
O215 O 0.976800 0.343260 0.727440
O216 O 0.940300 0.113610 0.755300
O217 O 0.307300 0.519380 1.032610
O218 O 0.591700 0.205170 0.885180
O219 O 0.469000 0.620670 0.860380
O220 O 0.963800 0.910650 0.606330
O221 O 0.023200 0.843260 0.772560
O222 O 0.059700 0.613610 0.744700
O223 O 0.692700 1.019380 0.467390
O224 O 0.408300 0.705170 0.614820
O225 O 0.531000 1.120670 0.639620
O226 O -0.463800 0.089350 0.106330
O227 O 0.476800 0.156740 0.272560
O228 O 0.440300 0.386390 0.244700
O229 O -0.192700 -0.019380 -0.032610
O230 O 0.091700 0.294830 0.114820
O231 O -0.031000 -0.120670 0.139620
O232 O 1.463800 0.589350 0.393670

#END
