./ABEGIA_from_POSCAR.cif_generated_by_CrystalShift
_symmetry_cell_setting triclinic
_symmetry_space_group_name_H-M 'P 1'
loop_
_symmetry_equiv_pos_site_id
_symmetry_equiv_pos_as_xyz
1 x,y,z
_cell_length_a 11.919000
_cell_length_b 8.061000
_cell_length_c 17.437000
_cell_angle_alpha 90.000000
_cell_angle_beta 102.890000
_cell_angle_gamma 90.000000
_cell_volume 1633.112463
loop_
_atom_site_label
_atom_site_type_symbol
_atom_site_fract_x
_atom_site_fract_y
_atom_site_fract_z
H1 H 1.202100 0.197900 0.126900
H2 H 1.100700 0.219700 0.172800
H3 H 1.227600 0.625200 0.183600
H4 H 0.229900 0.627000 0.714500
H5 H 1.296600 0.453400 0.193300
H6 H 1.194100 0.481200 0.237600
H7 H 0.145000 0.780100 0.606900
H8 H 1.165600 0.459200 0.070400
H9 H 0.754400 0.478700 0.125300
H10 H 0.924200 0.330400 0.131100
H11 H 0.169900 0.218500 0.464300
H12 H 1.080400 0.749900 0.082900
H13 H 0.073500 0.336800 0.347100
H14 H 0.910100 0.898400 0.076600
H15 H 0.600600 0.583600 -0.004200
H16 H -0.013600 0.584800 0.271100
H17 H 0.502200 0.468900 -0.121600
H18 H -0.053900 0.865000 0.265400
H19 H 0.446100 0.635000 -0.234600
H20 H 0.002200 1.031100 0.378400
H21 H 0.486400 0.915200 -0.228900
H22 H 0.100600 0.916400 0.495800
H23 H 0.573500 1.163200 -0.152900
H24 H 0.669900 1.281500 -0.035700
H25 H 0.645000 0.719900 0.106900
H26 H 0.410100 0.601600 0.576600
H27 H 0.729900 0.873000 0.214500
H28 H 0.580400 0.750100 0.582900
H29 H 0.297900 -0.302100 0.373100
H30 H 0.429000 -0.295000 0.421100
H31 H 0.424200 1.169600 0.631100
H32 H 0.399300 -0.280300 0.327200
H33 H 0.254400 1.021300 0.625300
H34 H 0.272400 0.125200 0.316400
H35 H 0.665600 1.040800 0.570400
H36 H 0.203400 -0.046600 0.306700
H37 H 0.694100 1.018800 0.737600
H38 H 0.796600 1.046600 0.693300
H39 H 0.727600 0.874800 0.683600
H40 H 0.305900 -0.018800 0.262400
H41 H 0.600700 1.280300 0.672800
H42 H 0.571000 1.295000 0.578900
H43 H 0.702100 1.302100 0.626900
H44 H 0.334400 -0.040800 0.429600
H45 H 0.745600 -0.021300 0.374700
H46 H 0.575800 -0.169600 0.368900
H47 H 0.270100 0.127000 0.785500
H48 H 0.419600 0.249900 0.417100
H49 H 0.589900 0.398400 0.423400
H50 H 0.355000 0.280100 0.893100
H51 H 0.899400 0.083600 0.504200
H52 H 0.997800 -0.031100 0.621600
H53 H 1.053900 0.135000 0.734600
H54 H 0.330100 -0.281500 1.035700
H55 H 1.013600 0.415200 0.728900
H56 H 0.426500 -0.163200 1.152900
H57 H 0.926500 0.663200 0.652900
H58 H 0.830100 0.781500 0.535700
H59 H 0.513600 0.084800 1.228900
H60 H 0.855000 0.219900 0.393100
H61 H 0.553900 0.365000 1.234600
H62 H 0.770100 0.373000 0.285500
H63 H 0.497800 0.531100 1.121600
H64 H -0.202100 0.802100 0.873100
H65 H 0.399400 0.416400 1.004200
H66 H -0.071000 0.795000 0.921100
H67 H -0.100700 0.780300 0.827200
H68 H -0.227600 0.374800 0.816400
H69 H 0.089900 0.101600 0.923400
H70 H -0.296600 0.546600 0.806700
H71 H -0.080400 0.250100 0.917100
H72 H -0.194100 0.518800 0.762400
H73 H -0.165600 0.540800 0.929600
H74 H 0.075800 0.669600 0.868900
H75 H 0.245600 0.521300 0.874700
H76 H 1.071000 0.205000 0.078900
C77 C -0.135200 0.565300 0.881750
C78 C 0.077710 0.553900 0.879300
C79 C -0.221150 0.495100 0.810380
C80 C -0.020320 0.474600 0.890690
C81 C -0.014410 0.305600 0.907870
C82 C 0.087160 0.216800 0.911650
C83 C -0.126500 0.752200 0.875220
C84 C 0.184240 0.296700 0.898310
C85 C 0.395920 0.176300 1.043550
C86 C 0.422250 0.347600 1.049210
C87 C 1.126500 0.247800 0.124780
C88 C 0.255470 0.427400 0.668390
C89 C 0.206450 0.699170 0.601710
C90 C 0.480350 0.415900 1.118910
C91 C 0.744530 0.572600 0.331610
C92 C 0.793550 0.300830 0.398290
C93 C 0.514190 0.316600 1.186450
C94 C 0.836150 0.399530 0.472030
C95 C 0.815150 0.565000 0.471420
C96 C 0.847460 0.666400 0.538400
C97 C 0.490120 0.150800 1.183000
C98 C 0.904290 0.596000 0.607320
C99 C 0.430730 0.075800 1.112040
C100 C 0.930730 0.424200 0.612040
C101 C 0.990120 0.349200 0.683000
C102 C 0.404290 -0.096000 1.107320
C103 C 1.014190 0.183400 0.686450
C104 C 0.347460 -0.166400 1.038400
C105 C 0.980350 0.084100 0.618910
C106 C 0.315150 -0.065000 0.971420
C107 C 0.922250 0.152400 0.549210
C108 C 0.336150 0.100470 0.972030
C109 C 0.895920 0.323700 0.543550
C110 C 0.684240 0.203300 0.398310
C111 C 0.587160 0.283200 0.411650
C112 C 0.293550 0.199170 0.898290
C113 C 0.485590 0.194400 0.407870
C114 C 0.244530 -0.072600 0.831610
C115 C 0.479680 0.025400 0.390690
C116 C 0.577710 -0.053900 0.379300
C117 C 1.221150 0.504900 0.189620
C118 C 0.679090 0.034800 0.382920
C119 C 0.163850 0.600470 0.527970
C120 C 0.364800 -0.065300 0.381750
C121 C 1.135200 0.434700 0.118250
C122 C 0.278850 0.004900 0.310380
C123 C 0.626500 1.252200 0.624780
C124 C 0.721150 0.995100 0.689620
C125 C 0.635200 1.065300 0.618250
C126 C 0.373500 -0.252200 0.375220
C127 C 0.320910 0.965200 0.617080
C128 C 0.422290 1.053900 0.620700
C129 C 0.520320 0.974600 0.609310
C130 C 0.184850 0.435000 0.528580
C131 C 0.820910 0.534800 0.117080
C132 C 0.152540 0.333600 0.461600
C133 C 0.514410 0.805600 0.592130
C134 C 0.755470 1.072600 0.168390
C135 C 0.706450 0.800830 0.101710
C136 C 0.412840 0.716800 0.588350
C137 C 0.663850 0.899530 0.027970
C138 C 0.684850 1.065000 0.028580
C139 C 0.652540 1.166400 -0.038400
C140 C 0.315760 0.796700 0.601690
C141 C 0.595710 1.096000 -0.107320
C142 C 0.104080 0.676300 0.456450
C143 C 0.569270 0.924200 -0.112040
C144 C 0.509880 0.849200 -0.183000
C145 C 0.077750 0.847600 0.450790
C146 C 0.485810 0.683400 -0.186450
C147 C 0.019650 0.915900 0.381090
C148 C 0.519650 0.584100 -0.118910
C149 C -0.014190 0.816600 0.313550
C150 C 0.577750 0.652400 -0.049210
C151 C 0.009880 0.650800 0.317000
C152 C 0.604080 0.823700 -0.043550
C153 C 0.815760 0.703300 0.101690
C154 C 0.912840 0.783200 0.088350
C155 C 0.069270 0.575800 0.387960
C156 C 1.014410 0.694400 0.092130
C157 C 0.095710 0.404000 0.392680
C158 C 1.020320 0.525400 0.109310
C159 C 0.922290 0.446100 0.120700
C160 C 0.179090 0.465200 0.882920
N161 N 0.223260 0.585500 0.668980
N162 N 0.776740 0.414500 0.331020
N163 N 0.276740 0.085500 0.831020
N164 N 0.723260 0.914500 0.168980
O165 O 0.742380 1.147770 0.096470
O166 O 0.705490 0.656270 0.273620
O167 O 0.794510 1.156270 0.226380
O168 O 0.757620 0.647770 0.403530
O169 O 0.294510 0.343730 0.726380
O170 O 0.257620 -0.147770 0.903530
O171 O 0.205490 -0.156270 0.773620
O172 O 0.242380 0.352230 0.596470

#END
