./ABEGIY_from_POSCAR.cif_generated_by_CrystalShift
_symmetry_cell_setting triclinic
_symmetry_space_group_name_H-M 'P 1'
loop_
_symmetry_equiv_pos_site_id
_symmetry_equiv_pos_as_xyz
1 x,y,z
_cell_length_a 10.040600
_cell_length_b 13.420000
_cell_length_c 15.040000
_cell_angle_alpha 90.000000
_cell_angle_beta 90.000000
_cell_angle_gamma 90.000000
_cell_volume 2026.562574
loop_
_atom_site_label
_atom_site_type_symbol
_atom_site_fract_x
_atom_site_fract_y
_atom_site_fract_z
H1 H 0.548900 0.646000 0.209800
H2 H 0.719900 0.758700 0.224900
H3 H 0.924400 0.728400 0.160600
H4 H 0.958600 0.583000 0.082500
H5 H 0.432800 0.718700 0.063700
H6 H 0.788300 0.469900 0.065700
H7 H 0.501200 0.857800 0.134200
H8 H 0.564100 0.415700 0.089800
H9 H 0.347500 0.980800 0.175300
H10 H 0.391500 0.539600 0.176700
H11 H 0.152500 0.480800 0.175300
H12 H 0.108500 1.039600 0.176700
H13 H -0.001200 0.357800 0.134200
H14 H -0.064100 0.915700 0.089800
H15 H 0.067200 0.218700 0.063700
H16 H -0.048900 0.354000 0.709800
H17 H -0.288300 0.969900 0.065700
H18 H -0.219900 0.241300 0.724900
H19 H -0.458600 1.083000 0.082500
H20 H -0.424400 0.271600 0.660600
H21 H -0.424400 1.228400 0.160600
H22 H -0.458600 0.417000 0.582500
H23 H -0.219900 1.258700 0.224900
H24 H -0.288300 0.530100 0.565700
H25 H -0.048900 1.146000 0.209800
H26 H -0.064100 0.584300 0.589800
H27 H 0.108500 0.460400 0.676700
H28 H 0.347500 0.519200 0.675300
H29 H 0.501200 0.642200 0.634200
H30 H 0.067200 0.281300 0.563700
H31 H 0.432800 0.781300 0.563700
H32 H -0.001200 0.142200 0.634200
H33 H 0.451100 1.146000 0.290200
H34 H 0.152500 0.019200 0.675300
H35 H 0.280100 1.258700 0.275100
H36 H 0.075600 1.228400 0.339400
H37 H 0.391500 -0.039600 0.676700
H38 H 0.041400 1.083000 0.417500
H39 H 0.564100 0.084300 0.589800
H40 H 0.211700 0.969900 0.434300
H41 H 0.435900 0.915700 0.410200
H42 H 0.788300 0.030100 0.565700
H43 H 0.608500 1.039600 0.323300
H44 H 0.958600 -0.083000 0.582500
H45 H 0.847500 0.980800 0.324700
H46 H 0.924400 -0.228400 0.660600
H47 H 1.001200 0.857800 0.365800
H48 H 0.719900 -0.258700 0.724900
H49 H 0.932800 0.718700 0.436300
H50 H 0.548900 -0.146000 0.709800
H51 H 1.048900 -0.146000 0.790200
H52 H 1.219900 -0.258700 0.775100
H53 H 1.424400 -0.228400 0.839400
H54 H 1.458600 -0.083000 0.917500
H55 H 0.567200 0.218700 0.436300
H56 H 1.288300 0.030100 0.934300
H57 H 0.498800 0.357800 0.365800
H58 H 1.064100 0.084300 0.910200
H59 H 0.652500 0.480800 0.324700
H60 H 0.891500 -0.039600 0.823300
H61 H 0.652500 0.019200 0.824700
H62 H 0.891500 0.539600 0.323300
H63 H 0.498800 0.142200 0.865800
H64 H 1.064100 0.415700 0.410200
H65 H 0.567200 0.281300 0.936300
H66 H 0.451100 0.354000 0.790200
H67 H 1.288300 0.469900 0.434300
H68 H 0.280100 0.241300 0.775100
H69 H 1.458600 0.583000 0.417500
H70 H 0.075600 0.271600 0.839400
H71 H 1.424400 0.728400 0.339400
H72 H 0.041400 0.417000 0.917500
H73 H 1.219900 0.758700 0.275100
H74 H 0.211700 0.530100 0.934300
H75 H 1.048900 0.646000 0.290200
H76 H 0.435900 0.584300 0.910200
H77 H 0.608500 0.460400 0.823300
H78 H 0.847500 0.519200 0.824700
H79 H 1.001200 0.642200 0.865800
H80 H 0.932800 0.781300 0.936300
C81 C 0.911310 0.650820 0.878530
C82 C 0.870530 0.733450 0.919740
C83 C 0.818830 0.576290 0.854040
C84 C 0.733050 0.749540 0.938710
C85 C 0.689180 0.588520 0.873390
C86 C 0.585230 0.517250 0.855140
C87 C 0.733450 0.700480 0.192600
C88 C 0.458620 0.526160 0.880140
C89 C 0.233050 0.750460 0.061290
C90 C 0.351320 0.454110 0.865340
C91 C 0.226380 0.471750 0.902380
C92 C 1.130790 0.633060 0.316670
C93 C 0.124260 0.404070 0.892360
C94 C 1.233450 0.700480 0.307400
C95 C 0.144230 0.317600 0.845460
C96 C 1.355770 0.682400 0.345460
C97 C 0.266550 0.299520 0.807400
C98 C 1.375740 0.595930 0.392360
C99 C 0.369210 0.366940 0.816670
C100 C 1.273620 0.528250 0.402380
C101 C 0.855770 0.682400 0.154540
C102 C 0.370530 0.766550 0.080260
C103 C 0.766950 0.249540 0.938710
C104 C 0.629470 0.233450 0.919740
C105 C 1.148680 0.545890 0.365340
C106 C 0.588690 0.150820 0.878530
C107 C 1.041380 0.473840 0.380140
C108 C 0.681170 0.076290 0.854040
C109 C 0.914770 0.482750 0.355140
C110 C 0.810820 0.088520 0.873390
C111 C 0.914770 0.017250 0.855140
C112 C 0.810820 0.411480 0.373390
C113 C 1.041380 0.026160 0.880140
C114 C 0.681170 0.423710 0.354040
C115 C 1.148680 -0.045890 0.865340
C116 C 1.273620 -0.028250 0.902380
C117 C 0.588690 0.349180 0.378530
C118 C 1.375740 -0.095930 0.892360
C119 C 0.629470 0.266550 0.419740
C120 C 1.355770 -0.182400 0.845460
C121 C 0.766950 0.250460 0.438710
C122 C 1.233450 -0.200480 0.807400
C123 C 0.875740 0.595930 0.107640
C124 C 1.130790 -0.133060 0.816670
C125 C 0.411310 0.849180 0.121470
C126 C 0.773620 0.528250 0.097620
C127 C 0.648680 0.545890 0.134660
C128 C 0.733050 0.750460 0.438710
C129 C 0.870530 0.766550 0.419740
C130 C 0.630790 -0.133060 0.683330
C131 C 0.911310 0.849180 0.378530
C132 C 0.733450 -0.200480 0.692600
C133 C 0.818830 0.923710 0.354040
C134 C 0.855770 -0.182400 0.654540
C135 C 0.689180 0.911480 0.373390
C136 C 0.585230 0.982750 0.355140
C137 C 0.875740 -0.095930 0.607640
C138 C 0.458620 0.973840 0.380140
C139 C 0.773620 -0.028250 0.597620
C140 C 0.351320 1.045890 0.365340
C141 C 0.226380 1.028250 0.402380
C142 C 0.648680 -0.045890 0.634660
C143 C 0.124260 1.095930 0.392360
C144 C 0.541380 0.026160 0.619860
C145 C 0.144230 1.182400 0.345460
C146 C 0.414770 0.017250 0.644860
C147 C 0.266550 1.200480 0.307400
C148 C 0.310820 0.088520 0.626610
C149 C 0.369210 1.133060 0.316670
C150 C 0.181170 0.076290 0.645960
C151 C 0.318830 0.923710 0.145960
C152 C 0.541380 0.473840 0.119860
C153 C 0.233050 0.749540 0.561290
C154 C 0.370530 0.733450 0.580260
C155 C 0.088690 0.150820 0.621470
C156 C 0.411310 0.650820 0.621470
C157 C 0.129470 0.233450 0.580260
C158 C 0.318830 0.576290 0.645960
C159 C 0.266950 0.249540 0.561290
C160 C 0.189180 0.588520 0.626610
C161 C 0.085230 0.517250 0.644860
C162 C 0.189180 0.911480 0.126610
C163 C -0.041380 0.526160 0.619860
C164 C 0.414770 0.482750 0.144860
C165 C -0.148680 0.454110 0.634660
C166 C -0.273620 0.471750 0.597620
C167 C -0.130790 1.133060 0.183330
C168 C -0.375740 0.404070 0.607640
C169 C -0.233450 1.200480 0.192600
C170 C -0.355770 0.317600 0.654540
C171 C -0.355770 1.182400 0.154540
C172 C -0.233450 0.299520 0.692600
C173 C -0.375740 1.095930 0.107640
C174 C -0.130790 0.366940 0.683330
C175 C -0.273620 1.028250 0.097620
C176 C 0.310820 0.411480 0.126610
C177 C 0.085230 0.982750 0.144860
C178 C 0.266950 0.250460 0.061290
C179 C 0.129470 0.266550 0.080260
C180 C -0.148680 1.045890 0.134660
C181 C 0.088690 0.349180 0.121470
C182 C -0.041380 0.973840 0.119860
C183 C 0.181170 0.423710 0.145960
C184 C 0.630790 0.633060 0.183330
O185 O 0.353500 0.326540 0.085610
O186 O 0.353500 0.173460 0.585610
O187 O 0.317240 0.321070 0.526900
O188 O 0.182760 0.821070 0.526900
O189 O 0.146500 0.673460 0.585610
O190 O 0.682760 0.678930 0.473100
O191 O 0.646500 0.826540 0.414390
O192 O 0.853500 0.326540 0.414390
O193 O 0.817240 0.178930 0.473100
O194 O 0.817240 0.321070 0.973100
O195 O 0.853500 0.173460 0.914390
O196 O 0.646500 0.673460 0.914390
O197 O 0.682760 0.821070 0.973100
O198 O 0.182760 0.678930 0.026900
O199 O 0.317240 0.178930 0.026900
O200 O 0.146500 0.826540 0.085610

#END
