
#######################################################################
#
#                 Cambridge Crystallographic Data Centre
#                                CCDC 
#
#######################################################################
#
# If this CIF has been generated from an entry in the Cambridge 
# Structural Database, then it will include bibliographic, chemical, 
# crystal, experimental, refinement or atomic coordinate data resulting 
# from the CCDC's data processing and validation procedures.
#
#######################################################################

data_ABEMOL
_symmetry_cell_setting           monoclinic
_symmetry_space_group_name_H-M   'P 21/n'
_symmetry_Int_Tables_number      14
_space_group_name_Hall           '-P 2yn'
loop_
_symmetry_equiv_pos_site_id
_symmetry_equiv_pos_as_xyz
1 x,y,z
2 1/2-x,1/2+y,1/2-z
3 -x,-y,-z
4 1/2+x,1/2-y,1/2+z
_cell_length_a                   3.7791(7)
_cell_length_b                   12.616(2)
_cell_length_c                   17.874(3)
_cell_angle_alpha                90
_cell_angle_beta                 95.028(6)
_cell_angle_gamma                90
_cell_volume                     848.902
loop_
_atom_site_label
_atom_site_type_symbol
_atom_site_fract_x
_atom_site_fract_y
_atom_site_fract_z
O1 O 0.2739(4) -0.16514(11) 0.02758(7)
N1 N 0.5366(5) -0.42757(14) -0.31568(10)
N2 N 0.0337(4) -0.02367(12) -0.03342(8)
H1 H -0.0238 0.0076 -0.0755
C1 C 0.3828(6) -0.33234(18) -0.31800(11)
H2 H 0.3002 -0.3054 -0.3647
C2 C 0.3383(5) -0.27109(17) -0.25535(11)
H3 H 0.2329 -0.2046 -0.2604
C3 C 0.4533(5) -0.31042(15) -0.18469(11)
C4 C 0.6160(5) -0.40884(16) -0.18236(11)
H4 H 0.7017 -0.4379 -0.1365
C5 C 0.6511(6) -0.46374(17) -0.24777(12)
H5 H 0.7608 -0.5298 -0.2444
C6 C 0.4004(5) -0.25554(16) -0.11402(11)
H6 H 0.4837 -0.2899 -0.0699
C7 C 0.2475(5) -0.16279(15) -0.10652(10)
H7 H 0.1740 -0.1239 -0.1493
C8 C 0.1898(5) -0.11888(15) -0.03193(10)
O1B O -0.2739(4) 0.16514(11) -0.02758(7)
N1B N -0.5366(5) 0.42757(14) 0.31568(10)
N2B N -0.0337(4) 0.02367(12) 0.03342(8)
H1B H 0.0238 -0.0076 0.0755
C1B C -0.3828(6) 0.33234(18) 0.31800(11)
H2B H -0.3002 0.3054 0.3647
C2B C -0.3383(5) 0.27109(17) 0.25535(11)
H3B H -0.2329 0.2046 0.2604
C3B C -0.4533(5) 0.31042(15) 0.18469(11)
C4B C -0.6160(5) 0.40884(16) 0.18236(11)
H4B H -0.7017 0.4379 0.1365
C5B C -0.6511(6) 0.46374(17) 0.24777(12)
H5B H -0.7608 0.5298 0.2444
C6B C -0.4004(5) 0.25554(16) 0.11402(11)
H6B H -0.4837 0.2899 0.0699
C7B C -0.2475(5) 0.16279(15) 0.10652(10)
H7B H -0.1740 0.1239 0.1493
C8B C -0.1898(5) 0.11888(15) 0.03193(10)
O1 O 0.2739(4) -0.16514(11) 1.02758(7)
N1 N 0.5366(5) -0.42757(14) 0.68432(10)
N2 N 0.0337(4) -0.02367(12) 0.96658(8)
H1 H -0.0238 0.0076 0.9245
C1 C 0.3828(6) -0.33234(18) 0.68200(11)
H2 H 0.3002 -0.3054 0.6353
C2 C 0.3383(5) -0.27109(17) 0.74465(11)
H3 H 0.2329 -0.2046 0.7396
C3 C 0.4533(5) -0.31042(15) 0.81531(11)
C4 C 0.6160(5) -0.40884(16) 0.81764(11)
H4 H 0.7017 -0.4379 0.8635
C5 C 0.6511(6) -0.46374(17) 0.75223(12)
H5 H 0.7608 -0.5298 0.7556
C6 C 0.4004(5) -0.25554(16) 0.88598(11)
H6 H 0.4837 -0.2899 0.9301
C7 C 0.2475(5) -0.16279(15) 0.89348(10)
H7 H 0.1740 -0.1239 0.8507
C8 C 0.1898(5) -0.11888(15) 0.96807(10)
O1B O -0.2739(4) 0.16514(11) 0.97242(7)
N1B N -0.5366(5) 0.42757(14) 1.31568(10)
N2B N -0.0337(4) 0.02367(12) 1.03342(8)
H1B H 0.0238 -0.0076 1.0755
C1B C -0.3828(6) 0.33234(18) 1.31800(11)
H2B H -0.3002 0.3054 1.3647
C2B C -0.3383(5) 0.27109(17) 1.25535(11)
H3B H -0.2329 0.2046 1.2604
C3B C -0.4533(5) 0.31042(15) 1.18469(11)
C4B C -0.6160(5) 0.40884(16) 1.18236(11)
H4B H -0.7017 0.4379 1.1365
C5B C -0.6511(6) 0.46374(17) 1.24777(12)
H5B H -0.7608 0.5298 1.2444
C6B C -0.4004(5) 0.25554(16) 1.11402(11)
H6B H -0.4837 0.2899 1.0699
C7B C -0.2475(5) 0.16279(15) 1.10652(10)
H7B H -0.1740 0.1239 1.1493
C8B C -0.1898(5) 0.11888(15) 1.03193(10)
O1 O 0.2739(4) 0.83486(11) 0.02758(7)
N1 N 0.5366(5) 0.57243(14) -0.31568(10)
N2 N 0.0337(4) 0.97633(12) -0.03342(8)
H1 H -0.0238 1.0076 -0.0755
C1 C 0.3828(6) 0.66766(18) -0.31800(11)
H2 H 0.3002 0.6946 -0.3647
C2 C 0.3383(5) 0.72891(17) -0.25535(11)
H3 H 0.2329 0.7954 -0.2604
C3 C 0.4533(5) 0.68958(15) -0.18469(11)
C4 C 0.6160(5) 0.59116(16) -0.18236(11)
H4 H 0.7017 0.5621 -0.1365
C5 C 0.6511(6) 0.53626(17) -0.24777(12)
H5 H 0.7608 0.4702 -0.2444
C6 C 0.4004(5) 0.74446(16) -0.11402(11)
H6 H 0.4837 0.7101 -0.0699
C7 C 0.2475(5) 0.83721(15) -0.10652(10)
H7 H 0.1740 0.8761 -0.1493
C8 C 0.1898(5) 0.88112(15) -0.03193(10)
O1B O -0.2739(4) 1.16514(11) -0.02758(7)
N1B N -0.5366(5) 1.42757(14) 0.31568(10)
N2B N -0.0337(4) 1.02367(12) 0.03342(8)
H1B H 0.0238 0.9924 0.0755
C1B C -0.3828(6) 1.33234(18) 0.31800(11)
H2B H -0.3002 1.3054 0.3647
C2B C -0.3383(5) 1.27109(17) 0.25535(11)
H3B H -0.2329 1.2046 0.2604
C3B C -0.4533(5) 1.31042(15) 0.18469(11)
C4B C -0.6160(5) 1.40884(16) 0.18236(11)
H4B H -0.7017 1.4379 0.1365
C5B C -0.6511(6) 1.46374(17) 0.24777(12)
H5B H -0.7608 1.5298 0.2444
C6B C -0.4004(5) 1.25554(16) 0.11402(11)
H6B H -0.4837 1.2899 0.0699
C7B C -0.2475(5) 1.16279(15) 0.10652(10)
H7B H -0.1740 1.1239 0.1493
C8B C -0.1898(5) 1.11888(15) 0.03193(10)
O1 O 0.2739(4) 0.83486(11) 1.02758(7)
N1 N 0.5366(5) 0.57243(14) 0.68432(10)
N2 N 0.0337(4) 0.97633(12) 0.96658(8)
H1 H -0.0238 1.0076 0.9245
C1 C 0.3828(6) 0.66766(18) 0.68200(11)
H2 H 0.3002 0.6946 0.6353
C2 C 0.3383(5) 0.72891(17) 0.74465(11)
H3 H 0.2329 0.7954 0.7396
C3 C 0.4533(5) 0.68958(15) 0.81531(11)
C4 C 0.6160(5) 0.59116(16) 0.81764(11)
H4 H 0.7017 0.5621 0.8635
C5 C 0.6511(6) 0.53626(17) 0.75223(12)
H5 H 0.7608 0.4702 0.7556
C6 C 0.4004(5) 0.74446(16) 0.88598(11)
H6 H 0.4837 0.7101 0.9301
C7 C 0.2475(5) 0.83721(15) 0.89348(10)
H7 H 0.1740 0.8761 0.8507
C8 C 0.1898(5) 0.88112(15) 0.96807(10)
O1B O -0.2739(4) 1.16514(11) 0.97242(7)
N1B N -0.5366(5) 1.42757(14) 1.31568(10)
N2B N -0.0337(4) 1.02367(12) 1.03342(8)
H1B H 0.0238 0.9924 1.0755
C1B C -0.3828(6) 1.33234(18) 1.31800(11)
H2B H -0.3002 1.3054 1.3647
C2B C -0.3383(5) 1.27109(17) 1.25535(11)
H3B H -0.2329 1.2046 1.2604
C3B C -0.4533(5) 1.31042(15) 1.18469(11)
C4B C -0.6160(5) 1.40884(16) 1.18236(11)
H4B H -0.7017 1.4379 1.1365
C5B C -0.6511(6) 1.46374(17) 1.24777(12)
H5B H -0.7608 1.5298 1.2444
C6B C -0.4004(5) 1.25554(16) 1.11402(11)
H6B H -0.4837 1.2899 1.0699
C7B C -0.2475(5) 1.16279(15) 1.10652(10)
H7B H -0.1740 1.1239 1.1493
C8B C -0.1898(5) 1.11888(15) 1.03193(10)
O1 O 1.2739(4) -0.16514(11) 0.02758(7)
N1 N 1.5366(5) -0.42757(14) -0.31568(10)
N2 N 1.0337(4) -0.02367(12) -0.03342(8)
H1 H 0.9762 0.0076 -0.0755
C1 C 1.3828(6) -0.33234(18) -0.31800(11)
H2 H 1.3002 -0.3054 -0.3647
C2 C 1.3383(5) -0.27109(17) -0.25535(11)
H3 H 1.2329 -0.2046 -0.2604
C3 C 1.4533(5) -0.31042(15) -0.18469(11)
C4 C 1.6160(5) -0.40884(16) -0.18236(11)
H4 H 1.7017 -0.4379 -0.1365
C5 C 1.6511(6) -0.46374(17) -0.24777(12)
H5 H 1.7608 -0.5298 -0.2444
C6 C 1.4004(5) -0.25554(16) -0.11402(11)
H6 H 1.4837 -0.2899 -0.0699
C7 C 1.2475(5) -0.16279(15) -0.10652(10)
H7 H 1.1740 -0.1239 -0.1493
C8 C 1.1898(5) -0.11888(15) -0.03193(10)
O1B O 0.7261(4) 0.16514(11) -0.02758(7)
N1B N 0.4634(5) 0.42757(14) 0.31568(10)
N2B N 0.9663(4) 0.02367(12) 0.03342(8)
H1B H 1.0238 -0.0076 0.0755
C1B C 0.6172(6) 0.33234(18) 0.31800(11)
H2B H 0.6998 0.3054 0.3647
C2B C 0.6617(5) 0.27109(17) 0.25535(11)
H3B H 0.7671 0.2046 0.2604
C3B C 0.5467(5) 0.31042(15) 0.18469(11)
C4B C 0.3840(5) 0.40884(16) 0.18236(11)
H4B H 0.2983 0.4379 0.1365
C5B C 0.3489(6) 0.46374(17) 0.24777(12)
H5B H 0.2392 0.5298 0.2444
C6B C 0.5996(5) 0.25554(16) 0.11402(11)
H6B H 0.5163 0.2899 0.0699
C7B C 0.7525(5) 0.16279(15) 0.10652(10)
H7B H 0.8260 0.1239 0.1493
C8B C 0.8102(5) 0.11888(15) 0.03193(10)
O1 O 1.2739(4) -0.16514(11) 1.02758(7)
N1 N 1.5366(5) -0.42757(14) 0.68432(10)
N2 N 1.0337(4) -0.02367(12) 0.96658(8)
H1 H 0.9762 0.0076 0.9245
C1 C 1.3828(6) -0.33234(18) 0.68200(11)
H2 H 1.3002 -0.3054 0.6353
C2 C 1.3383(5) -0.27109(17) 0.74465(11)
H3 H 1.2329 -0.2046 0.7396
C3 C 1.4533(5) -0.31042(15) 0.81531(11)
C4 C 1.6160(5) -0.40884(16) 0.81764(11)
H4 H 1.7017 -0.4379 0.8635
C5 C 1.6511(6) -0.46374(17) 0.75223(12)
H5 H 1.7608 -0.5298 0.7556
C6 C 1.4004(5) -0.25554(16) 0.88598(11)
H6 H 1.4837 -0.2899 0.9301
C7 C 1.2475(5) -0.16279(15) 0.89348(10)
H7 H 1.1740 -0.1239 0.8507
C8 C 1.1898(5) -0.11888(15) 0.96807(10)
O1B O 0.7261(4) 0.16514(11) 0.97242(7)
N1B N 0.4634(5) 0.42757(14) 1.31568(10)
N2B N 0.9663(4) 0.02367(12) 1.03342(8)
H1B H 1.0238 -0.0076 1.0755
C1B C 0.6172(6) 0.33234(18) 1.31800(11)
H2B H 0.6998 0.3054 1.3647
C2B C 0.6617(5) 0.27109(17) 1.25535(11)
H3B H 0.7671 0.2046 1.2604
C3B C 0.5467(5) 0.31042(15) 1.18469(11)
C4B C 0.3840(5) 0.40884(16) 1.18236(11)
H4B H 0.2983 0.4379 1.1365
C5B C 0.3489(6) 0.46374(17) 1.24777(12)
H5B H 0.2392 0.5298 1.2444
C6B C 0.5996(5) 0.25554(16) 1.11402(11)
H6B H 0.5163 0.2899 1.0699
C7B C 0.7525(5) 0.16279(15) 1.10652(10)
H7B H 0.8260 0.1239 1.1493
C8B C 0.8102(5) 0.11888(15) 1.03193(10)
O1 O 1.2739(4) 0.83486(11) 0.02758(7)
N1 N 1.5366(5) 0.57243(14) -0.31568(10)
N2 N 1.0337(4) 0.97633(12) -0.03342(8)
H1 H 0.9762 1.0076 -0.0755
C1 C 1.3828(6) 0.66766(18) -0.31800(11)
H2 H 1.3002 0.6946 -0.3647
C2 C 1.3383(5) 0.72891(17) -0.25535(11)
H3 H 1.2329 0.7954 -0.2604
C3 C 1.4533(5) 0.68958(15) -0.18469(11)
C4 C 1.6160(5) 0.59116(16) -0.18236(11)
H4 H 1.7017 0.5621 -0.1365
C5 C 1.6511(6) 0.53626(17) -0.24777(12)
H5 H 1.7608 0.4702 -0.2444
C6 C 1.4004(5) 0.74446(16) -0.11402(11)
H6 H 1.4837 0.7101 -0.0699
C7 C 1.2475(5) 0.83721(15) -0.10652(10)
H7 H 1.1740 0.8761 -0.1493
C8 C 1.1898(5) 0.88112(15) -0.03193(10)
O1B O 0.7261(4) 1.16514(11) -0.02758(7)
N1B N 0.4634(5) 1.42757(14) 0.31568(10)
N2B N 0.9663(4) 1.02367(12) 0.03342(8)
H1B H 1.0238 0.9924 0.0755
C1B C 0.6172(6) 1.33234(18) 0.31800(11)
H2B H 0.6998 1.3054 0.3647
C2B C 0.6617(5) 1.27109(17) 0.25535(11)
H3B H 0.7671 1.2046 0.2604
C3B C 0.5467(5) 1.31042(15) 0.18469(11)
C4B C 0.3840(5) 1.40884(16) 0.18236(11)
H4B H 0.2983 1.4379 0.1365
C5B C 0.3489(6) 1.46374(17) 0.24777(12)
H5B H 0.2392 1.5298 0.2444
C6B C 0.5996(5) 1.25554(16) 0.11402(11)
H6B H 0.5163 1.2899 0.0699
C7B C 0.7525(5) 1.16279(15) 0.10652(10)
H7B H 0.8260 1.1239 0.1493
C8B C 0.8102(5) 1.11888(15) 0.03193(10)
O1 O 1.2739(4) 0.83486(11) 1.02758(7)
N1 N 1.5366(5) 0.57243(14) 0.68432(10)
N2 N 1.0337(4) 0.97633(12) 0.96658(8)
H1 H 0.9762 1.0076 0.9245
C1 C 1.3828(6) 0.66766(18) 0.68200(11)
H2 H 1.3002 0.6946 0.6353
C2 C 1.3383(5) 0.72891(17) 0.74465(11)
H3 H 1.2329 0.7954 0.7396
C3 C 1.4533(5) 0.68958(15) 0.81531(11)
C4 C 1.6160(5) 0.59116(16) 0.81764(11)
H4 H 1.7017 0.5621 0.8635
C5 C 1.6511(6) 0.53626(17) 0.75223(12)
H5 H 1.7608 0.4702 0.7556
C6 C 1.4004(5) 0.74446(16) 0.88598(11)
H6 H 1.4837 0.7101 0.9301
C7 C 1.2475(5) 0.83721(15) 0.89348(10)
H7 H 1.1740 0.8761 0.8507
C8 C 1.1898(5) 0.88112(15) 0.96807(10)
O1B O 0.7261(4) 1.16514(11) 0.97242(7)
N1B N 0.4634(5) 1.42757(14) 1.31568(10)
N2B N 0.9663(4) 1.02367(12) 1.03342(8)
H1B H 1.0238 0.9924 1.0755
C1B C 0.6172(6) 1.33234(18) 1.31800(11)
H2B H 0.6998 1.3054 1.3647
C2B C 0.6617(5) 1.27109(17) 1.25535(11)
H3B H 0.7671 1.2046 1.2604
C3B C 0.5467(5) 1.31042(15) 1.18469(11)
C4B C 0.3840(5) 1.40884(16) 1.18236(11)
H4B H 0.2983 1.4379 1.1365
C5B C 0.3489(6) 1.46374(17) 1.24777(12)
H5B H 0.2392 1.5298 1.2444
C6B C 0.5996(5) 1.25554(16) 1.11402(11)
H6B H 0.5163 1.2899 1.0699
C7B C 0.7525(5) 1.16279(15) 1.10652(10)
H7B H 0.8260 1.1239 1.1493
C8B C 0.8102(5) 1.11888(15) 1.03193(10)
O1 O 0.2261(4) 0.33486(11) 0.47242(7)
N1 N -0.0366(5) 0.07243(14) 0.81568(10)
N2 N 0.4663(4) 0.47633(12) 0.53342(8)
H1 H 0.5238 0.5076 0.5755
C1 C 0.1172(6) 0.16766(18) 0.81800(11)
H2 H 0.1998 0.1946 0.8647
C2 C 0.1617(5) 0.22891(17) 0.75535(11)
H3 H 0.2671 0.2954 0.7604
C3 C 0.0467(5) 0.18958(15) 0.68469(11)
C4 C -0.1160(5) 0.09116(16) 0.68236(11)
H4 H -0.2017 0.0621 0.6365
C5 C -0.1511(6) 0.03626(17) 0.74777(12)
H5 H -0.2608 -0.0298 0.7444
C6 C 0.0996(5) 0.24446(16) 0.61402(11)
H6 H 0.0163 0.2101 0.5699
C7 C 0.2525(5) 0.33721(15) 0.60652(10)
H7 H 0.3260 0.3761 0.6493
C8 C 0.3102(5) 0.38112(15) 0.53193(10)
O1B O 0.7739(4) 0.66514(11) 0.52758(7)
N1B N 1.0366(5) 0.92757(14) 0.18432(10)
N2B N 0.5337(4) 0.52367(12) 0.46658(8)
H1B H 0.4762 0.4924 0.4245
C1B C 0.8828(6) 0.83234(18) 0.18200(11)
H2B H 0.8002 0.8054 0.1353
C2B C 0.8383(5) 0.77109(17) 0.24465(11)
H3B H 0.7329 0.7046 0.2396
C3B C 0.9533(5) 0.81042(15) 0.31531(11)
C4B C 1.1160(5) 0.90884(16) 0.31764(11)
H4B H 1.2017 0.9379 0.3635
C5B C 1.1511(6) 0.96374(17) 0.25223(12)
H5B H 1.2608 1.0298 0.2556
C6B C 0.9004(5) 0.75554(16) 0.38598(11)
H6B H 0.9837 0.7899 0.4301
C7B C 0.7475(5) 0.66279(15) 0.39348(10)
H7B H 0.6740 0.6239 0.3507
C8B C 0.6898(5) 0.61888(15) 0.46807(10)

#END
