
#######################################################################
#
#                 Cambridge Crystallographic Data Centre
#                                CCDC 
#
#######################################################################
#
# If this CIF has been generated from an entry in the Cambridge 
# Structural Database, then it will include bibliographic, chemical, 
# crystal, experimental, refinement or atomic coordinate data resulting 
# from the CCDC's data processing and validation procedures.
#
#######################################################################

data_ABIHAX
_symmetry_cell_setting           triclinic
_symmetry_space_group_name_H-M   'P -1'
_symmetry_Int_Tables_number      2
_space_group_name_Hall           '-P 1'
loop_
_symmetry_equiv_pos_site_id
_symmetry_equiv_pos_as_xyz
1 x,y,z
2 -x,-y,-z
_cell_length_a                   8.4153(6)
_cell_length_b                   9.3760(7)
_cell_length_c                   12.2991(9)
_cell_angle_alpha                110.4494(13)
_cell_angle_beta                 98.7296(14)
_cell_angle_gamma                106.5665(14)
_cell_volume                     836.683
loop_
_atom_site_label
_atom_site_type_symbol
_atom_site_fract_x
_atom_site_fract_y
_atom_site_fract_z
C1 C 0.2440(2) 0.7355(2) 0.46191(17)
O1 O 0.29857(18) 0.71487(18) 0.37265(13)
N1 N 0.0791(2) 0.6530(2) 0.45243(15)
H1 H 0.036(3) 0.667(3) 0.511(2)
C2 C -0.0225(2) 0.5227(2) 0.33780(17)
C3 C 0.0553(2) 0.3953(2) 0.29168(17)
O2 O 0.08740(19) 0.32461(18) 0.35579(13)
N2 N 0.0773(2) 0.3556(2) 0.18112(16)
C4 C 0.0678(4) 0.4501(3) 0.1106(2)
H2 H 0.1773 0.4834 0.0910
H3 H 0.0459 0.5476 0.1574
H4 H -0.0262 0.3834 0.0356
C5 C 0.1363(4) 0.2211(3) 0.1311(2)
H5 H 0.0718 0.1556 0.0458
H6 H 0.1172 0.1523 0.1759
H7 H 0.2598 0.2651 0.1381
C6 C -0.1821(3) 0.4977(3) 0.28377(19)
H8 H -0.2361 0.4044 0.2089
C7 C -0.2884(3) 0.5981(3) 0.3259(2)
H9 H -0.2119 0.7054 0.3933
C8 C -0.4222(3) 0.5068(4) 0.3721(3)
H10 H -0.5039 0.5625 0.3889
H11 H -0.3644 0.5043 0.4464
H12 H -0.4847 0.3947 0.3108
C9 C -0.3743(4) 0.6287(4) 0.2216(3)
H13 H -0.4449 0.6934 0.2493
H14 H -0.4478 0.5238 0.1547
H15 H -0.2852 0.6884 0.1941
C10 C 0.3662(3) 0.8500(2) 0.58482(18)
C11 C 0.5410(3) 0.9001(2) 0.59024(19)
H16 H 0.5763 0.8652 0.5187
C12 C 0.6624(3) 1.0009(3) 0.7003(2)
C13 C 0.6178(3) 1.0554(3) 0.8060(2)
H17 H 0.7026 1.1247 0.8812
C14 C 0.4438(3) 1.0047(3) 0.79763(19)
C15 C 0.3158(3) 0.9031(2) 0.69008(19)
H18 H 0.1973 0.8707 0.6882
N3 N 0.8464(3) 1.0533(3) 0.7044(2)
O3 O 0.8846(2) 1.0101(2) 0.60958(19)
O4 O 0.9514(2) 1.1380(3) 0.80367(18)
N4 N 0.3919(3) 1.0602(3) 0.90986(18)
O5 O 0.5006(3) 1.1703(3) 1.00013(17)
O6 O 0.2447(3) 0.9898(3) 0.90723(18)
C1 C 0.7560(2) 0.2645(2) 0.53809(17)
O1 O 0.70143(18) 0.28513(18) 0.62735(13)
N1 N 0.9209(2) 0.3470(2) 0.54757(15)
H1 H 0.964(3) 0.333(3) 0.489(2)
C2 C 1.0225(2) 0.4773(2) 0.66220(17)
C3 C 0.9447(2) 0.6047(2) 0.70832(17)
O2 O 0.91260(19) 0.67539(18) 0.64421(13)
N2 N 0.9227(2) 0.6444(2) 0.81888(16)
C4 C 0.9322(4) 0.5499(3) 0.8894(2)
H2 H 0.8227 0.5166 0.9090
H3 H 0.9541 0.4524 0.8426
H4 H 1.0262 0.6166 0.9644
C5 C 0.8637(4) 0.7789(3) 0.8689(2)
H5 H 0.9282 0.8444 0.9542
H6 H 0.8828 0.8477 0.8241
H7 H 0.7402 0.7349 0.8619
C6 C 1.1821(3) 0.5023(3) 0.71623(19)
H8 H 1.2361 0.5956 0.7911
C7 C 1.2884(3) 0.4019(3) 0.6741(2)
H9 H 1.2119 0.2946 0.6067
C8 C 1.4222(3) 0.4932(4) 0.6279(3)
H10 H 1.5039 0.4375 0.6111
H11 H 1.3644 0.4957 0.5536
H12 H 1.4847 0.6053 0.6892
C9 C 1.3743(4) 0.3713(4) 0.7784(3)
H13 H 1.4449 0.3066 0.7507
H14 H 1.4478 0.4762 0.8453
H15 H 1.2852 0.3116 0.8059
C10 C 0.6338(3) 0.1500(2) 0.41518(18)
C11 C 0.4590(3) 0.0999(2) 0.40976(19)
H16 H 0.4237 0.1348 0.4813
C12 C 0.3376(3) -0.0009(3) 0.2997(2)
C13 C 0.3822(3) -0.0554(3) 0.1940(2)
H17 H 0.2974 -0.1247 0.1188
C14 C 0.5562(3) -0.0047(3) 0.20237(19)
C15 C 0.6842(3) 0.0969(2) 0.30992(19)
H18 H 0.8027 0.1293 0.3118
N3 N 0.1536(3) -0.0533(3) 0.2956(2)
O3 O 0.1154(2) -0.0101(2) 0.39042(19)
O4 O 0.0486(2) -0.1380(3) 0.19633(18)
N4 N 0.6081(3) -0.0602(3) 0.09014(18)
O5 O 0.4994(3) -0.1703(3) -0.00013(17)
O6 O 0.7553(3) 0.0102(3) 0.09277(18)

#END
