
#######################################################################
#
#                 Cambridge Crystallographic Data Centre
#                                CCDC 
#
#######################################################################
#
# If this CIF has been generated from an entry in the Cambridge 
# Structural Database, then it will include bibliographic, chemical, 
# crystal, experimental, refinement or atomic coordinate data resulting 
# from the CCDC's data processing and validation procedures.
#
#######################################################################

data_ABINOR
_symmetry_cell_setting           monoclinic
_symmetry_space_group_name_H-M   'P 21/c'
_symmetry_Int_Tables_number      14
_space_group_name_Hall           '-P 2ybc'
loop_
_symmetry_equiv_pos_site_id
_symmetry_equiv_pos_as_xyz
1 x,y,z
2 -x,1/2+y,1/2-z
3 -x,-y,-z
4 x,1/2-y,1/2+z
_cell_length_a                   5.925(4)
_cell_length_b                   7.820(3)
_cell_length_c                   13.354(6)
_cell_angle_alpha                90
_cell_angle_beta                 99.45(6)
_cell_angle_gamma                90
_cell_volume                     610.341
loop_
_atom_site_label
_atom_site_type_symbol
_atom_site_fract_x
_atom_site_fract_y
_atom_site_fract_z
C1 C 0.93750 0.06800 0.62850
C2 C 0.83000 0.13500 0.71740
C3 C 0.58520 0.19370 0.67790
C4 C 0.58570 0.33020 0.59570
C5 C 0.70460 0.25890 0.51280
H1 H 1.10500 0.03300 0.64600
H2 H 0.92100 -0.12000 0.55500
H3 H 0.93000 0.22800 0.74700
H4 H 0.72000 -0.08000 0.77600
H5 H 0.51400 0.09900 0.65000
H6 H 0.45600 0.15700 0.77000
H7 H 0.43000 0.36200 0.56600
H8 H 0.83000 0.49000 0.64300
H9 H 0.62000 0.16800 0.47700
H10 H 0.72000 0.35000 0.47000
O1 O 0.81910 -0.07840 0.59050
O2 O 0.84000 0.01120 0.79560
O3 O 0.47750 0.26100 0.75770
O4 O 0.68610 0.48690 0.63560
O5 O 0.93320 0.20000 0.55360
C1 C 0.06250 0.56800 0.87150
C2 C 0.17000 0.63500 0.78260
C3 C 0.41480 0.69370 0.82210
C4 C 0.41430 0.83020 0.90430
C5 C 0.29540 0.75890 0.98720
H1 H -0.10500 0.53300 0.85400
H2 H 0.07900 0.38000 0.94500
H3 H 0.07000 0.72800 0.75300
H4 H 0.28000 0.42000 0.72400
H5 H 0.48600 0.59900 0.85000
H6 H 0.54400 0.65700 0.73000
H7 H 0.57000 0.86200 0.93400
H8 H 0.17000 0.99000 0.85700
H9 H 0.38000 0.66800 1.02300
H10 H 0.28000 0.85000 1.03000
O1 O 0.18090 0.42160 0.90950
O2 O 0.16000 0.51120 0.70440
O3 O 0.52250 0.76100 0.74230
O4 O 0.31390 0.98690 0.86440
O5 O 0.06680 0.70000 0.94640
C1 C 0.06250 0.93200 0.37150
C2 C 0.17000 0.86500 0.28260
C3 C 0.41480 0.80630 0.32210
C4 C 0.41430 0.66980 0.40430
C5 C 0.29540 0.74110 0.48720
H1 H -0.10500 0.96700 0.35400
H2 H 0.07900 1.12000 0.44500
H3 H 0.07000 0.77200 0.25300
H4 H 0.28000 1.08000 0.22400
H5 H 0.48600 0.90100 0.35000
H6 H 0.54400 0.84300 0.23000
H7 H 0.57000 0.63800 0.43400
H8 H 0.17000 0.51000 0.35700
H9 H 0.38000 0.83200 0.52300
H10 H 0.28000 0.65000 0.53000
O1 O 0.18090 1.07840 0.40950
O2 O 0.16000 0.98880 0.20440
O3 O 0.52250 0.73900 0.24230
O4 O 0.31390 0.51310 0.36440
O5 O 0.06680 0.80000 0.44640
C1 C 0.93750 0.43200 0.12850
C2 C 0.83000 0.36500 0.21740
C3 C 0.58520 0.30630 0.17790
C4 C 0.58570 0.16980 0.09570
C5 C 0.70460 0.24110 0.01280
H1 H 1.10500 0.46700 0.14600
H2 H 0.92100 0.62000 0.05500
H3 H 0.93000 0.27200 0.24700
H4 H 0.72000 0.58000 0.27600
H5 H 0.51400 0.40100 0.15000
H6 H 0.45600 0.34300 0.27000
H7 H 0.43000 0.13800 0.06600
H8 H 0.83000 0.01000 0.14300
H9 H 0.62000 0.33200 -0.02300
H10 H 0.72000 0.15000 -0.03000
O1 O 0.81910 0.57840 0.09050
O2 O 0.84000 0.48880 0.29560
O3 O 0.47750 0.23900 0.25770
O4 O 0.68610 0.01310 0.13560
O5 O 0.93320 0.30000 0.05360

#END
