
#######################################################################
#
#                 Cambridge Crystallographic Data Centre
#                                CCDC 
#
#######################################################################
#
# If this CIF has been generated from an entry in the Cambridge 
# Structural Database, then it will include bibliographic, chemical, 
# crystal, experimental, refinement or atomic coordinate data resulting 
# from the CCDC's data processing and validation procedures.
#
#######################################################################

data_ABINUV
_symmetry_cell_setting           monoclinic
_symmetry_space_group_name_H-M   'C 2'
_symmetry_Int_Tables_number      5
_space_group_name_Hall           'C 2y'
loop_
_symmetry_equiv_pos_site_id
_symmetry_equiv_pos_as_xyz
1 x,y,z
2 -x,y,-z
3 1/2+x,1/2+y,z
4 1/2-x,1/2+y,-z
_cell_length_a                   18.920(4)
_cell_length_b                   8.712(4)
_cell_length_c                   15.439(4)
_cell_angle_alpha                90
_cell_angle_beta                 126.909(10)
_cell_angle_gamma                90
_cell_volume                     2034.82
loop_
_atom_site_label
_atom_site_type_symbol
_atom_site_fract_x
_atom_site_fract_y
_atom_site_fract_z
P1 P 0.24561(6) 0.71801(14) 0.21849(8)
N1 N 0.0000 0.7216(6) 0.0000
C1 C 0.0748(2) 0.7999(5) 0.0421(3)
C2 C 0.0762(3) 0.9576(5) 0.0417(3)
H1 H 0.1300 1.0104 0.0702
C3 C 0.0000 1.0383(7) 0.0000
H2 H 0.0000 1.1474 0.0000
C4 C 0.1573(2) 0.7121(5) 0.0883(3)
C5 C 0.1585(3) 0.6056(5) 0.0091(3)
C6 C 0.1110(3) 0.4585(5) -0.0055(3)
H3 H 0.1085 0.3944 -0.0595
H4 H 0.0509 0.4816 -0.0302
H5 H 0.1428 0.4036 0.0637
C7 C 0.1125(3) 0.6855(6) -0.0996(3)
H6 H 0.1159 0.6208 -0.1489
H7 H 0.1414 0.7840 -0.0897
H8 H 0.0503 0.7031 -0.1304
C8 C 0.2534(3) 0.5688(6) 0.0506(4)
H9 H 0.2521 0.5066 -0.0032
H10 H 0.2834 0.5116 0.1188
H11 H 0.2853 0.6646 0.0629
C9 C 0.2067(2) 0.8339(5) 0.2818(3)
C10 C 0.2278(2) 0.9877(5) 0.3152(3)
C11 C 0.1782(2) 1.0630(5) 0.3408(3)
H12 H 0.1906 1.1683 0.3604
C12 C 0.1120(2) 0.9951(5) 0.3395(3)
C13 C 0.0998(2) 0.8404(5) 0.3199(3)
H13 H 0.0588 0.7880 0.3256
C14 C 0.1465(2) 0.7584(4) 0.2917(3)
C15 C 0.3043(2) 1.0800(5) 0.3317(3)
C16 C 0.3610(3) 1.1389(7) 0.4476(4)
H14 H 0.4097 1.2005 0.4602
H15 H 0.3850 1.0518 0.4978
H16 H 0.3248 1.2025 0.4595
C17 C 0.2707(3) 1.2124(7) 0.2541(4)
H17 H 0.3205 1.2768 0.2727
H18 H 0.2295 1.2734 0.2587
H19 H 0.2400 1.1732 0.1801
C18 C 0.3653(3) 0.9878(6) 0.3175(4)
H20 H 0.4178 1.0490 0.3423
H21 H 0.3339 0.9621 0.2408
H22 H 0.3833 0.8932 0.3601
C19 C 0.0539(2) 1.0899(5) 0.3576(3)
C20 C 0.1103(3) 1.1694(7) 0.4664(4)
H23 H 0.0723 1.2302 0.4769
H24 H 0.1527 1.2372 0.4688
H25 H 0.1422 1.0925 0.5240
C21 C 0.0051(3) 1.2054(7) 0.2667(4)
H26 H -0.0361 1.2635 0.2727
H27 H -0.0279 1.1516 0.1970
H28 H 0.0475 1.2760 0.2713
C22 C -0.0136(3) 0.9944(6) 0.3546(4)
H29 H -0.0528 1.0617 0.3593
H30 H 0.0164 0.9230 0.4159
H31 H -0.0486 0.9364 0.2867
C23 C 0.1300(3) 0.5891(5) 0.2730(3)
H32 H 0.1020 0.5527 0.3058
H33 H 0.1863 0.5354 0.3060
H34 H 0.0909 0.5684 0.1950
C1A C -0.0748(2) 0.7999(5) -0.0421(3)
C2A C -0.0762(3) 0.9576(5) -0.0417(3)
H1A H -0.1300 1.0104 -0.0702
C4A C -0.1573(2) 0.7121(5) -0.0883(3)
P1A P -0.24561(6) 0.71801(14) -0.21849(8)
C9A C -0.2067(2) 0.8339(5) -0.2818(3)
C10A C -0.2278(2) 0.9877(5) -0.3152(3)
C11A C -0.1782(2) 1.0630(5) -0.3408(3)
H12A H -0.1906 1.1683 -0.3604
C12A C -0.1120(2) 0.9951(5) -0.3395(3)
C13A C -0.0998(2) 0.8404(5) -0.3199(3)
H13A H -0.0588 0.7880 -0.3256
C14A C -0.1465(2) 0.7584(4) -0.2917(3)
C23A C -0.1300(3) 0.5891(5) -0.2730(3)
H32A H -0.1020 0.5527 -0.3058
H33A H -0.1863 0.5354 -0.3060
H34A H -0.0909 0.5684 -0.1950
C19A C -0.0539(2) 1.0899(5) -0.3576(3)
C20A C -0.1103(3) 1.1694(7) -0.4664(4)
H23A H -0.0723 1.2302 -0.4769
H24A H -0.1527 1.2372 -0.4688
H25A H -0.1422 1.0925 -0.5240
C21A C -0.0051(3) 1.2054(7) -0.2667(4)
H26A H 0.0361 1.2635 -0.2727
H27A H 0.0279 1.1516 -0.1970
H28A H -0.0475 1.2760 -0.2713
C22A C 0.0136(3) 0.9944(6) -0.3546(4)
H29A H 0.0528 1.0617 -0.3593
H30A H -0.0164 0.9230 -0.4159
H31A H 0.0486 0.9364 -0.2867
C15A C -0.3043(2) 1.0800(5) -0.3317(3)
C16A C -0.3610(3) 1.1389(7) -0.4476(4)
H14A H -0.4097 1.2005 -0.4602
H15A H -0.3850 1.0518 -0.4978
H16A H -0.3248 1.2025 -0.4595
C17A C -0.2707(3) 1.2124(7) -0.2541(4)
H17A H -0.3205 1.2768 -0.2727
H18A H -0.2295 1.2734 -0.2587
H19A H -0.2400 1.1732 -0.1801
C18A C -0.3653(3) 0.9878(6) -0.3175(4)
H20A H -0.4178 1.0490 -0.3423
H21A H -0.3339 0.9621 -0.2408
H22A H -0.3833 0.8932 -0.3601
C5A C -0.1585(3) 0.6056(5) -0.0091(3)
C6A C -0.1110(3) 0.4585(5) 0.0055(3)
H3A H -0.1085 0.3944 0.0595
H4A H -0.0509 0.4816 0.0302
H5A H -0.1428 0.4036 -0.0637
C7A C -0.1125(3) 0.6855(6) 0.0996(3)
H6A H -0.1159 0.6208 0.1489
H7A H -0.1414 0.7840 0.0897
H8A H -0.0503 0.7031 0.1304
C8A C -0.2534(3) 0.5688(6) -0.0506(4)
H9A H -0.2521 0.5066 0.0032
H10A H -0.2834 0.5116 -0.1188
H11A H -0.2853 0.6646 -0.0629
P1 P 0.24561(6) 0.71801(14) 1.21849(8)
N1 N 0.0000 0.7216(6) 1.0000
C1 C 0.0748(2) 0.7999(5) 1.0421(3)
C2 C 0.0762(3) 0.9576(5) 1.0417(3)
H1 H 0.1300 1.0104 1.0702
C3 C 0.0000 1.0383(7) 1.0000
H2 H 0.0000 1.1474 1.0000
C4 C 0.1573(2) 0.7121(5) 1.0883(3)
C5 C 0.1585(3) 0.6056(5) 1.0091(3)
C6 C 0.1110(3) 0.4585(5) 0.9945(3)
H3 H 0.1085 0.3944 0.9405
H4 H 0.0509 0.4816 0.9698
H5 H 0.1428 0.4036 1.0637
C7 C 0.1125(3) 0.6855(6) 0.9004(3)
H6 H 0.1159 0.6208 0.8511
H7 H 0.1414 0.7840 0.9103
H8 H 0.0503 0.7031 0.8696
C8 C 0.2534(3) 0.5688(6) 1.0506(4)
H9 H 0.2521 0.5066 0.9968
H10 H 0.2834 0.5116 1.1188
H11 H 0.2853 0.6646 1.0629
C9 C 0.2067(2) 0.8339(5) 1.2818(3)
C10 C 0.2278(2) 0.9877(5) 1.3152(3)
C11 C 0.1782(2) 1.0630(5) 1.3408(3)
H12 H 0.1906 1.1683 1.3604
C12 C 0.1120(2) 0.9951(5) 1.3395(3)
C13 C 0.0998(2) 0.8404(5) 1.3199(3)
H13 H 0.0588 0.7880 1.3256
C14 C 0.1465(2) 0.7584(4) 1.2917(3)
C15 C 0.3043(2) 1.0800(5) 1.3317(3)
C16 C 0.3610(3) 1.1389(7) 1.4476(4)
H14 H 0.4097 1.2005 1.4602
H15 H 0.3850 1.0518 1.4978
H16 H 0.3248 1.2025 1.4595
C17 C 0.2707(3) 1.2124(7) 1.2541(4)
H17 H 0.3205 1.2768 1.2727
H18 H 0.2295 1.2734 1.2587
H19 H 0.2400 1.1732 1.1801
C18 C 0.3653(3) 0.9878(6) 1.3175(4)
H20 H 0.4178 1.0490 1.3423
H21 H 0.3339 0.9621 1.2408
H22 H 0.3833 0.8932 1.3601
C19 C 0.0539(2) 1.0899(5) 1.3576(3)
C20 C 0.1103(3) 1.1694(7) 1.4664(4)
H23 H 0.0723 1.2302 1.4769
H24 H 0.1527 1.2372 1.4688
H25 H 0.1422 1.0925 1.5240
C21 C 0.0051(3) 1.2054(7) 1.2667(4)
H26 H -0.0361 1.2635 1.2727
H27 H -0.0279 1.1516 1.1970
H28 H 0.0475 1.2760 1.2713
C22 C -0.0136(3) 0.9944(6) 1.3546(4)
H29 H -0.0528 1.0617 1.3593
H30 H 0.0164 0.9230 1.4159
H31 H -0.0486 0.9364 1.2867
C23 C 0.1300(3) 0.5891(5) 1.2730(3)
H32 H 0.1020 0.5527 1.3058
H33 H 0.1863 0.5354 1.3060
H34 H 0.0909 0.5684 1.1950
C1A C -0.0748(2) 0.7999(5) 0.9579(3)
C2A C -0.0762(3) 0.9576(5) 0.9583(3)
H1A H -0.1300 1.0104 0.9298
C4A C -0.1573(2) 0.7121(5) 0.9117(3)
P1A P -0.24561(6) 0.71801(14) 0.78151(8)
C9A C -0.2067(2) 0.8339(5) 0.7182(3)
C10A C -0.2278(2) 0.9877(5) 0.6848(3)
C11A C -0.1782(2) 1.0630(5) 0.6592(3)
H12A H -0.1906 1.1683 0.6396
C12A C -0.1120(2) 0.9951(5) 0.6605(3)
C13A C -0.0998(2) 0.8404(5) 0.6801(3)
H13A H -0.0588 0.7880 0.6744
C14A C -0.1465(2) 0.7584(4) 0.7083(3)
C23A C -0.1300(3) 0.5891(5) 0.7270(3)
H32A H -0.1020 0.5527 0.6942
H33A H -0.1863 0.5354 0.6940
H34A H -0.0909 0.5684 0.8050
C19A C -0.0539(2) 1.0899(5) 0.6424(3)
C20A C -0.1103(3) 1.1694(7) 0.5336(4)
H23A H -0.0723 1.2302 0.5231
H24A H -0.1527 1.2372 0.5312
H25A H -0.1422 1.0925 0.4760
C21A C -0.0051(3) 1.2054(7) 0.7333(4)
H26A H 0.0361 1.2635 0.7273
H27A H 0.0279 1.1516 0.8030
H28A H -0.0475 1.2760 0.7287
C22A C 0.0136(3) 0.9944(6) 0.6454(4)
H29A H 0.0528 1.0617 0.6407
H30A H -0.0164 0.9230 0.5841
H31A H 0.0486 0.9364 0.7133
C15A C -0.3043(2) 1.0800(5) 0.6683(3)
C16A C -0.3610(3) 1.1389(7) 0.5524(4)
H14A H -0.4097 1.2005 0.5398
H15A H -0.3850 1.0518 0.5022
H16A H -0.3248 1.2025 0.5405
C17A C -0.2707(3) 1.2124(7) 0.7459(4)
H17A H -0.3205 1.2768 0.7273
H18A H -0.2295 1.2734 0.7413
H19A H -0.2400 1.1732 0.8199
C18A C -0.3653(3) 0.9878(6) 0.6825(4)
H20A H -0.4178 1.0490 0.6577
H21A H -0.3339 0.9621 0.7592
H22A H -0.3833 0.8932 0.6399
C5A C -0.1585(3) 0.6056(5) 0.9909(3)
C6A C -0.1110(3) 0.4585(5) 1.0055(3)
H3A H -0.1085 0.3944 1.0595
H4A H -0.0509 0.4816 1.0302
H5A H -0.1428 0.4036 0.9363
C7A C -0.1125(3) 0.6855(6) 1.0996(3)
H6A H -0.1159 0.6208 1.1489
H7A H -0.1414 0.7840 1.0897
H8A H -0.0503 0.7031 1.1304
C8A C -0.2534(3) 0.5688(6) 0.9494(4)
H9A H -0.2521 0.5066 1.0032
H10A H -0.2834 0.5116 0.8812
H11A H -0.2853 0.6646 0.9371
P1 P 1.24561(6) 0.71801(14) 0.21849(8)
N1 N 1.0000 0.7216(6) 0.0000
C1 C 1.0748(2) 0.7999(5) 0.0421(3)
C2 C 1.0762(3) 0.9576(5) 0.0417(3)
H1 H 1.1300 1.0104 0.0702
C3 C 1.0000 1.0383(7) 0.0000
H2 H 1.0000 1.1474 0.0000
C4 C 1.1573(2) 0.7121(5) 0.0883(3)
C5 C 1.1585(3) 0.6056(5) 0.0091(3)
C6 C 1.1110(3) 0.4585(5) -0.0055(3)
H3 H 1.1085 0.3944 -0.0595
H4 H 1.0509 0.4816 -0.0302
H5 H 1.1428 0.4036 0.0637
C7 C 1.1125(3) 0.6855(6) -0.0996(3)
H6 H 1.1159 0.6208 -0.1489
H7 H 1.1414 0.7840 -0.0897
H8 H 1.0503 0.7031 -0.1304
C8 C 1.2534(3) 0.5688(6) 0.0506(4)
H9 H 1.2521 0.5066 -0.0032
H10 H 1.2834 0.5116 0.1188
H11 H 1.2853 0.6646 0.0629
C9 C 1.2067(2) 0.8339(5) 0.2818(3)
C10 C 1.2278(2) 0.9877(5) 0.3152(3)
C11 C 1.1782(2) 1.0630(5) 0.3408(3)
H12 H 1.1906 1.1683 0.3604
C12 C 1.1120(2) 0.9951(5) 0.3395(3)
C13 C 1.0998(2) 0.8404(5) 0.3199(3)
H13 H 1.0588 0.7880 0.3256
C14 C 1.1465(2) 0.7584(4) 0.2917(3)
C15 C 1.3043(2) 1.0800(5) 0.3317(3)
C16 C 1.3610(3) 1.1389(7) 0.4476(4)
H14 H 1.4097 1.2005 0.4602
H15 H 1.3850 1.0518 0.4978
H16 H 1.3248 1.2025 0.4595
C17 C 1.2707(3) 1.2124(7) 0.2541(4)
H17 H 1.3205 1.2768 0.2727
H18 H 1.2295 1.2734 0.2587
H19 H 1.2400 1.1732 0.1801
C18 C 1.3653(3) 0.9878(6) 0.3175(4)
H20 H 1.4178 1.0490 0.3423
H21 H 1.3339 0.9621 0.2408
H22 H 1.3833 0.8932 0.3601
C19 C 1.0539(2) 1.0899(5) 0.3576(3)
C20 C 1.1103(3) 1.1694(7) 0.4664(4)
H23 H 1.0723 1.2302 0.4769
H24 H 1.1527 1.2372 0.4688
H25 H 1.1422 1.0925 0.5240
C21 C 1.0051(3) 1.2054(7) 0.2667(4)
H26 H 0.9639 1.2635 0.2727
H27 H 0.9721 1.1516 0.1970
H28 H 1.0475 1.2760 0.2713
C22 C 0.9864(3) 0.9944(6) 0.3546(4)
H29 H 0.9472 1.0617 0.3593
H30 H 1.0164 0.9230 0.4159
H31 H 0.9514 0.9364 0.2867
C23 C 1.1300(3) 0.5891(5) 0.2730(3)
H32 H 1.1020 0.5527 0.3058
H33 H 1.1863 0.5354 0.3060
H34 H 1.0909 0.5684 0.1950
C1A C 0.9252(2) 0.7999(5) -0.0421(3)
C2A C 0.9238(3) 0.9576(5) -0.0417(3)
H1A H 0.8700 1.0104 -0.0702
C4A C 0.8427(2) 0.7121(5) -0.0883(3)
P1A P 0.75439(6) 0.71801(14) -0.21849(8)
C9A C 0.7933(2) 0.8339(5) -0.2818(3)
C10A C 0.7722(2) 0.9877(5) -0.3152(3)
C11A C 0.8218(2) 1.0630(5) -0.3408(3)
H12A H 0.8094 1.1683 -0.3604
C12A C 0.8880(2) 0.9951(5) -0.3395(3)
C13A C 0.9002(2) 0.8404(5) -0.3199(3)
H13A H 0.9412 0.7880 -0.3256
C14A C 0.8535(2) 0.7584(4) -0.2917(3)
C23A C 0.8700(3) 0.5891(5) -0.2730(3)
H32A H 0.8980 0.5527 -0.3058
H33A H 0.8137 0.5354 -0.3060
H34A H 0.9091 0.5684 -0.1950
C19A C 0.9461(2) 1.0899(5) -0.3576(3)
C20A C 0.8897(3) 1.1694(7) -0.4664(4)
H23A H 0.9277 1.2302 -0.4769
H24A H 0.8473 1.2372 -0.4688
H25A H 0.8578 1.0925 -0.5240
C21A C 0.9949(3) 1.2054(7) -0.2667(4)
H26A H 1.0361 1.2635 -0.2727
H27A H 1.0279 1.1516 -0.1970
H28A H 0.9525 1.2760 -0.2713
C22A C 1.0136(3) 0.9944(6) -0.3546(4)
H29A H 1.0528 1.0617 -0.3593
H30A H 0.9836 0.9230 -0.4159
H31A H 1.0486 0.9364 -0.2867
C15A C 0.6957(2) 1.0800(5) -0.3317(3)
C16A C 0.6390(3) 1.1389(7) -0.4476(4)
H14A H 0.5903 1.2005 -0.4602
H15A H 0.6150 1.0518 -0.4978
H16A H 0.6752 1.2025 -0.4595
C17A C 0.7293(3) 1.2124(7) -0.2541(4)
H17A H 0.6795 1.2768 -0.2727
H18A H 0.7705 1.2734 -0.2587
H19A H 0.7600 1.1732 -0.1801
C18A C 0.6347(3) 0.9878(6) -0.3175(4)
H20A H 0.5822 1.0490 -0.3423
H21A H 0.6661 0.9621 -0.2408
H22A H 0.6167 0.8932 -0.3601
C5A C 0.8415(3) 0.6056(5) -0.0091(3)
C6A C 0.8890(3) 0.4585(5) 0.0055(3)
H3A H 0.8915 0.3944 0.0595
H4A H 0.9491 0.4816 0.0302
H5A H 0.8572 0.4036 -0.0637
C7A C 0.8875(3) 0.6855(6) 0.0996(3)
H6A H 0.8841 0.6208 0.1489
H7A H 0.8586 0.7840 0.0897
H8A H 0.9497 0.7031 0.1304
C8A C 0.7466(3) 0.5688(6) -0.0506(4)
H9A H 0.7479 0.5066 0.0032
H10A H 0.7166 0.5116 -0.1188
H11A H 0.7147 0.6646 -0.0629
P1 P 1.24561(6) 0.71801(14) 1.21849(8)
N1 N 1.0000 0.7216(6) 1.0000
C1 C 1.0748(2) 0.7999(5) 1.0421(3)
C2 C 1.0762(3) 0.9576(5) 1.0417(3)
H1 H 1.1300 1.0104 1.0702
C3 C 1.0000 1.0383(7) 1.0000
H2 H 1.0000 1.1474 1.0000
C4 C 1.1573(2) 0.7121(5) 1.0883(3)
C5 C 1.1585(3) 0.6056(5) 1.0091(3)
C6 C 1.1110(3) 0.4585(5) 0.9945(3)
H3 H 1.1085 0.3944 0.9405
H4 H 1.0509 0.4816 0.9698
H5 H 1.1428 0.4036 1.0637
C7 C 1.1125(3) 0.6855(6) 0.9004(3)
H6 H 1.1159 0.6208 0.8511
H7 H 1.1414 0.7840 0.9103
H8 H 1.0503 0.7031 0.8696
C8 C 1.2534(3) 0.5688(6) 1.0506(4)
H9 H 1.2521 0.5066 0.9968
H10 H 1.2834 0.5116 1.1188
H11 H 1.2853 0.6646 1.0629
C9 C 1.2067(2) 0.8339(5) 1.2818(3)
C10 C 1.2278(2) 0.9877(5) 1.3152(3)
C11 C 1.1782(2) 1.0630(5) 1.3408(3)
H12 H 1.1906 1.1683 1.3604
C12 C 1.1120(2) 0.9951(5) 1.3395(3)
C13 C 1.0998(2) 0.8404(5) 1.3199(3)
H13 H 1.0588 0.7880 1.3256
C14 C 1.1465(2) 0.7584(4) 1.2917(3)
C15 C 1.3043(2) 1.0800(5) 1.3317(3)
C16 C 1.3610(3) 1.1389(7) 1.4476(4)
H14 H 1.4097 1.2005 1.4602
H15 H 1.3850 1.0518 1.4978
H16 H 1.3248 1.2025 1.4595
C17 C 1.2707(3) 1.2124(7) 1.2541(4)
H17 H 1.3205 1.2768 1.2727
H18 H 1.2295 1.2734 1.2587
H19 H 1.2400 1.1732 1.1801
C18 C 1.3653(3) 0.9878(6) 1.3175(4)
H20 H 1.4178 1.0490 1.3423
H21 H 1.3339 0.9621 1.2408
H22 H 1.3833 0.8932 1.3601
C19 C 1.0539(2) 1.0899(5) 1.3576(3)
C20 C 1.1103(3) 1.1694(7) 1.4664(4)
H23 H 1.0723 1.2302 1.4769
H24 H 1.1527 1.2372 1.4688
H25 H 1.1422 1.0925 1.5240
C21 C 1.0051(3) 1.2054(7) 1.2667(4)
H26 H 0.9639 1.2635 1.2727
H27 H 0.9721 1.1516 1.1970
H28 H 1.0475 1.2760 1.2713
C22 C 0.9864(3) 0.9944(6) 1.3546(4)
H29 H 0.9472 1.0617 1.3593
H30 H 1.0164 0.9230 1.4159
H31 H 0.9514 0.9364 1.2867
C23 C 1.1300(3) 0.5891(5) 1.2730(3)
H32 H 1.1020 0.5527 1.3058
H33 H 1.1863 0.5354 1.3060
H34 H 1.0909 0.5684 1.1950
C1A C 0.9252(2) 0.7999(5) 0.9579(3)
C2A C 0.9238(3) 0.9576(5) 0.9583(3)
H1A H 0.8700 1.0104 0.9298
C4A C 0.8427(2) 0.7121(5) 0.9117(3)
P1A P 0.75439(6) 0.71801(14) 0.78151(8)
C9A C 0.7933(2) 0.8339(5) 0.7182(3)
C10A C 0.7722(2) 0.9877(5) 0.6848(3)
C11A C 0.8218(2) 1.0630(5) 0.6592(3)
H12A H 0.8094 1.1683 0.6396
C12A C 0.8880(2) 0.9951(5) 0.6605(3)
C13A C 0.9002(2) 0.8404(5) 0.6801(3)
H13A H 0.9412 0.7880 0.6744
C14A C 0.8535(2) 0.7584(4) 0.7083(3)
C23A C 0.8700(3) 0.5891(5) 0.7270(3)
H32A H 0.8980 0.5527 0.6942
H33A H 0.8137 0.5354 0.6940
H34A H 0.9091 0.5684 0.8050
C19A C 0.9461(2) 1.0899(5) 0.6424(3)
C20A C 0.8897(3) 1.1694(7) 0.5336(4)
H23A H 0.9277 1.2302 0.5231
H24A H 0.8473 1.2372 0.5312
H25A H 0.8578 1.0925 0.4760
C21A C 0.9949(3) 1.2054(7) 0.7333(4)
H26A H 1.0361 1.2635 0.7273
H27A H 1.0279 1.1516 0.8030
H28A H 0.9525 1.2760 0.7287
C22A C 1.0136(3) 0.9944(6) 0.6454(4)
H29A H 1.0528 1.0617 0.6407
H30A H 0.9836 0.9230 0.5841
H31A H 1.0486 0.9364 0.7133
C15A C 0.6957(2) 1.0800(5) 0.6683(3)
C16A C 0.6390(3) 1.1389(7) 0.5524(4)
H14A H 0.5903 1.2005 0.5398
H15A H 0.6150 1.0518 0.5022
H16A H 0.6752 1.2025 0.5405
C17A C 0.7293(3) 1.2124(7) 0.7459(4)
H17A H 0.6795 1.2768 0.7273
H18A H 0.7705 1.2734 0.7413
H19A H 0.7600 1.1732 0.8199
C18A C 0.6347(3) 0.9878(6) 0.6825(4)
H20A H 0.5822 1.0490 0.6577
H21A H 0.6661 0.9621 0.7592
H22A H 0.6167 0.8932 0.6399
C5A C 0.8415(3) 0.6056(5) 0.9909(3)
C6A C 0.8890(3) 0.4585(5) 1.0055(3)
H3A H 0.8915 0.3944 1.0595
H4A H 0.9491 0.4816 1.0302
H5A H 0.8572 0.4036 0.9363
C7A C 0.8875(3) 0.6855(6) 1.0996(3)
H6A H 0.8841 0.6208 1.1489
H7A H 0.8586 0.7840 1.0897
H8A H 0.9497 0.7031 1.1304
C8A C 0.7466(3) 0.5688(6) 0.9494(4)
H9A H 0.7479 0.5066 1.0032
H10A H 0.7166 0.5116 0.8812
H11A H 0.7147 0.6646 0.9371
P1 P 0.74561(6) 0.21801(14) 0.21849(8)
N1 N 0.5000 0.2216(6) 0.0000
C1 C 0.5748(2) 0.2999(5) 0.0421(3)
C2 C 0.5762(3) 0.4576(5) 0.0417(3)
H1 H 0.6300 0.5104 0.0702
C3 C 0.5000 0.5383(7) 0.0000
H2 H 0.5000 0.6474 0.0000
C4 C 0.6573(2) 0.2121(5) 0.0883(3)
C5 C 0.6585(3) 0.1056(5) 0.0091(3)
C6 C 0.6110(3) -0.0415(5) -0.0055(3)
H3 H 0.6085 -0.1056 -0.0595
H4 H 0.5509 -0.0184 -0.0302
H5 H 0.6428 -0.0964 0.0637
C7 C 0.6125(3) 0.1855(6) -0.0996(3)
H6 H 0.6159 0.1208 -0.1489
H7 H 0.6414 0.2840 -0.0897
H8 H 0.5503 0.2031 -0.1304
C8 C 0.7534(3) 0.0688(6) 0.0506(4)
H9 H 0.7521 0.0066 -0.0032
H10 H 0.7834 0.0116 0.1188
H11 H 0.7853 0.1646 0.0629
C9 C 0.7067(2) 0.3339(5) 0.2818(3)
C10 C 0.7278(2) 0.4877(5) 0.3152(3)
C11 C 0.6782(2) 0.5630(5) 0.3408(3)
H12 H 0.6906 0.6683 0.3604
C12 C 0.6120(2) 0.4951(5) 0.3395(3)
C13 C 0.5998(2) 0.3404(5) 0.3199(3)
H13 H 0.5588 0.2880 0.3256
C14 C 0.6465(2) 0.2584(4) 0.2917(3)
C15 C 0.8043(2) 0.5800(5) 0.3317(3)
C16 C 0.8610(3) 0.6389(7) 0.4476(4)
H14 H 0.9097 0.7005 0.4602
H15 H 0.8850 0.5518 0.4978
H16 H 0.8248 0.7025 0.4595
C17 C 0.7707(3) 0.7124(7) 0.2541(4)
H17 H 0.8205 0.7768 0.2727
H18 H 0.7295 0.7734 0.2587
H19 H 0.7400 0.6732 0.1801
C18 C 0.8653(3) 0.4878(6) 0.3175(4)
H20 H 0.9178 0.5490 0.3423
H21 H 0.8339 0.4621 0.2408
H22 H 0.8833 0.3932 0.3601
C19 C 0.5539(2) 0.5899(5) 0.3576(3)
C20 C 0.6103(3) 0.6694(7) 0.4664(4)
H23 H 0.5723 0.7302 0.4769
H24 H 0.6527 0.7372 0.4688
H25 H 0.6422 0.5925 0.5240
C21 C 0.5051(3) 0.7054(7) 0.2667(4)
H26 H 0.4639 0.7635 0.2727
H27 H 0.4721 0.6516 0.1970
H28 H 0.5475 0.7760 0.2713
C22 C 0.4864(3) 0.4944(6) 0.3546(4)
H29 H 0.4472 0.5617 0.3593
H30 H 0.5164 0.4230 0.4159
H31 H 0.4514 0.4364 0.2867
C23 C 0.6300(3) 0.0891(5) 0.2730(3)
H32 H 0.6020 0.0527 0.3058
H33 H 0.6863 0.0354 0.3060
H34 H 0.5909 0.0684 0.1950
C1A C 0.4252(2) 0.2999(5) -0.0421(3)
C2A C 0.4238(3) 0.4576(5) -0.0417(3)
H1A H 0.3700 0.5104 -0.0702
C4A C 0.3427(2) 0.2121(5) -0.0883(3)
P1A P 0.25439(6) 0.21801(14) -0.21849(8)
C9A C 0.2933(2) 0.3339(5) -0.2818(3)
C10A C 0.2722(2) 0.4877(5) -0.3152(3)
C11A C 0.3218(2) 0.5630(5) -0.3408(3)
H12A H 0.3094 0.6683 -0.3604
C12A C 0.3880(2) 0.4951(5) -0.3395(3)
C13A C 0.4002(2) 0.3404(5) -0.3199(3)
H13A H 0.4412 0.2880 -0.3256
C14A C 0.3535(2) 0.2584(4) -0.2917(3)
C23A C 0.3700(3) 0.0891(5) -0.2730(3)
H32A H 0.3980 0.0527 -0.3058
H33A H 0.3137 0.0354 -0.3060
H34A H 0.4091 0.0684 -0.1950
C19A C 0.4461(2) 0.5899(5) -0.3576(3)
C20A C 0.3897(3) 0.6694(7) -0.4664(4)
H23A H 0.4277 0.7302 -0.4769
H24A H 0.3473 0.7372 -0.4688
H25A H 0.3578 0.5925 -0.5240
C21A C 0.4949(3) 0.7054(7) -0.2667(4)
H26A H 0.5361 0.7635 -0.2727
H27A H 0.5279 0.6516 -0.1970
H28A H 0.4525 0.7760 -0.2713
C22A C 0.5136(3) 0.4944(6) -0.3546(4)
H29A H 0.5528 0.5617 -0.3593
H30A H 0.4836 0.4230 -0.4159
H31A H 0.5486 0.4364 -0.2867
C15A C 0.1957(2) 0.5800(5) -0.3317(3)
C16A C 0.1390(3) 0.6389(7) -0.4476(4)
H14A H 0.0903 0.7005 -0.4602
H15A H 0.1150 0.5518 -0.4978
H16A H 0.1752 0.7025 -0.4595
C17A C 0.2293(3) 0.7124(7) -0.2541(4)
H17A H 0.1795 0.7768 -0.2727
H18A H 0.2705 0.7734 -0.2587
H19A H 0.2600 0.6732 -0.1801
C18A C 0.1347(3) 0.4878(6) -0.3175(4)
H20A H 0.0822 0.5490 -0.3423
H21A H 0.1661 0.4621 -0.2408
H22A H 0.1167 0.3932 -0.3601
C5A C 0.3415(3) 0.1056(5) -0.0091(3)
C6A C 0.3890(3) -0.0415(5) 0.0055(3)
H3A H 0.3915 -0.1056 0.0595
H4A H 0.4491 -0.0184 0.0302
H5A H 0.3572 -0.0964 -0.0637
C7A C 0.3875(3) 0.1855(6) 0.0996(3)
H6A H 0.3841 0.1208 0.1489
H7A H 0.3586 0.2840 0.0897
H8A H 0.4497 0.2031 0.1304
C8A C 0.2466(3) 0.0688(6) -0.0506(4)
H9A H 0.2479 0.0066 0.0032
H10A H 0.2166 0.0116 -0.1188
H11A H 0.2147 0.1646 -0.0629
P1 P 0.74561(6) 0.21801(14) 1.21849(8)
N1 N 0.5000 0.2216(6) 1.0000
C1 C 0.5748(2) 0.2999(5) 1.0421(3)
C2 C 0.5762(3) 0.4576(5) 1.0417(3)
H1 H 0.6300 0.5104 1.0702
C3 C 0.5000 0.5383(7) 1.0000
H2 H 0.5000 0.6474 1.0000
C4 C 0.6573(2) 0.2121(5) 1.0883(3)
C5 C 0.6585(3) 0.1056(5) 1.0091(3)
C6 C 0.6110(3) -0.0415(5) 0.9945(3)
H3 H 0.6085 -0.1056 0.9405
H4 H 0.5509 -0.0184 0.9698
H5 H 0.6428 -0.0964 1.0637
C7 C 0.6125(3) 0.1855(6) 0.9004(3)
H6 H 0.6159 0.1208 0.8511
H7 H 0.6414 0.2840 0.9103
H8 H 0.5503 0.2031 0.8696
C8 C 0.7534(3) 0.0688(6) 1.0506(4)
H9 H 0.7521 0.0066 0.9968
H10 H 0.7834 0.0116 1.1188
H11 H 0.7853 0.1646 1.0629
C9 C 0.7067(2) 0.3339(5) 1.2818(3)
C10 C 0.7278(2) 0.4877(5) 1.3152(3)
C11 C 0.6782(2) 0.5630(5) 1.3408(3)
H12 H 0.6906 0.6683 1.3604
C12 C 0.6120(2) 0.4951(5) 1.3395(3)
C13 C 0.5998(2) 0.3404(5) 1.3199(3)
H13 H 0.5588 0.2880 1.3256
C14 C 0.6465(2) 0.2584(4) 1.2917(3)
C15 C 0.8043(2) 0.5800(5) 1.3317(3)
C16 C 0.8610(3) 0.6389(7) 1.4476(4)
H14 H 0.9097 0.7005 1.4602
H15 H 0.8850 0.5518 1.4978
H16 H 0.8248 0.7025 1.4595
C17 C 0.7707(3) 0.7124(7) 1.2541(4)
H17 H 0.8205 0.7768 1.2727
H18 H 0.7295 0.7734 1.2587
H19 H 0.7400 0.6732 1.1801
C18 C 0.8653(3) 0.4878(6) 1.3175(4)
H20 H 0.9178 0.5490 1.3423
H21 H 0.8339 0.4621 1.2408
H22 H 0.8833 0.3932 1.3601
C19 C 0.5539(2) 0.5899(5) 1.3576(3)
C20 C 0.6103(3) 0.6694(7) 1.4664(4)
H23 H 0.5723 0.7302 1.4769
H24 H 0.6527 0.7372 1.4688
H25 H 0.6422 0.5925 1.5240
C21 C 0.5051(3) 0.7054(7) 1.2667(4)
H26 H 0.4639 0.7635 1.2727
H27 H 0.4721 0.6516 1.1970
H28 H 0.5475 0.7760 1.2713
C22 C 0.4864(3) 0.4944(6) 1.3546(4)
H29 H 0.4472 0.5617 1.3593
H30 H 0.5164 0.4230 1.4159
H31 H 0.4514 0.4364 1.2867
C23 C 0.6300(3) 0.0891(5) 1.2730(3)
H32 H 0.6020 0.0527 1.3058
H33 H 0.6863 0.0354 1.3060
H34 H 0.5909 0.0684 1.1950
C1A C 0.4252(2) 0.2999(5) 0.9579(3)
C2A C 0.4238(3) 0.4576(5) 0.9583(3)
H1A H 0.3700 0.5104 0.9298
C4A C 0.3427(2) 0.2121(5) 0.9117(3)
P1A P 0.25439(6) 0.21801(14) 0.78151(8)
C9A C 0.2933(2) 0.3339(5) 0.7182(3)
C10A C 0.2722(2) 0.4877(5) 0.6848(3)
C11A C 0.3218(2) 0.5630(5) 0.6592(3)
H12A H 0.3094 0.6683 0.6396
C12A C 0.3880(2) 0.4951(5) 0.6605(3)
C13A C 0.4002(2) 0.3404(5) 0.6801(3)
H13A H 0.4412 0.2880 0.6744
C14A C 0.3535(2) 0.2584(4) 0.7083(3)
C23A C 0.3700(3) 0.0891(5) 0.7270(3)
H32A H 0.3980 0.0527 0.6942
H33A H 0.3137 0.0354 0.6940
H34A H 0.4091 0.0684 0.8050
C19A C 0.4461(2) 0.5899(5) 0.6424(3)
C20A C 0.3897(3) 0.6694(7) 0.5336(4)
H23A H 0.4277 0.7302 0.5231
H24A H 0.3473 0.7372 0.5312
H25A H 0.3578 0.5925 0.4760
C21A C 0.4949(3) 0.7054(7) 0.7333(4)
H26A H 0.5361 0.7635 0.7273
H27A H 0.5279 0.6516 0.8030
H28A H 0.4525 0.7760 0.7287
C22A C 0.5136(3) 0.4944(6) 0.6454(4)
H29A H 0.5528 0.5617 0.6407
H30A H 0.4836 0.4230 0.5841
H31A H 0.5486 0.4364 0.7133
C15A C 0.1957(2) 0.5800(5) 0.6683(3)
C16A C 0.1390(3) 0.6389(7) 0.5524(4)
H14A H 0.0903 0.7005 0.5398
H15A H 0.1150 0.5518 0.5022
H16A H 0.1752 0.7025 0.5405
C17A C 0.2293(3) 0.7124(7) 0.7459(4)
H17A H 0.1795 0.7768 0.7273
H18A H 0.2705 0.7734 0.7413
H19A H 0.2600 0.6732 0.8199
C18A C 0.1347(3) 0.4878(6) 0.6825(4)
H20A H 0.0822 0.5490 0.6577
H21A H 0.1661 0.4621 0.7592
H22A H 0.1167 0.3932 0.6399
C5A C 0.3415(3) 0.1056(5) 0.9909(3)
C6A C 0.3890(3) -0.0415(5) 1.0055(3)
H3A H 0.3915 -0.1056 1.0595
H4A H 0.4491 -0.0184 1.0302
H5A H 0.3572 -0.0964 0.9363
C7A C 0.3875(3) 0.1855(6) 1.0996(3)
H6A H 0.3841 0.1208 1.1489
H7A H 0.3586 0.2840 1.0897
H8A H 0.4497 0.2031 1.1304
C8A C 0.2466(3) 0.0688(6) 0.9494(4)
H9A H 0.2479 0.0066 1.0032
H10A H 0.2166 0.0116 0.8812
H11A H 0.2147 0.1646 0.9371

#END
