
#######################################################################
#
#                 Cambridge Crystallographic Data Centre
#                                CCDC 
#
#######################################################################
#
# If this CIF has been generated from an entry in the Cambridge 
# Structural Database, then it will include bibliographic, chemical, 
# crystal, experimental, refinement or atomic coordinate data resulting 
# from the CCDC's data processing and validation procedures.
#
#######################################################################

data_ABIVUC
_symmetry_cell_setting           monoclinic
_symmetry_space_group_name_H-M   'P 21/n'
_symmetry_Int_Tables_number      14
_space_group_name_Hall           '-P 2yn'
loop_
_symmetry_equiv_pos_site_id
_symmetry_equiv_pos_as_xyz
1 x,y,z
2 1/2-x,1/2+y,1/2-z
3 -x,-y,-z
4 1/2+x,1/2-y,1/2+z
_cell_length_a                   10.129(2)
_cell_length_b                   9.265(2)
_cell_length_c                   15.696(3)
_cell_angle_alpha                90
_cell_angle_beta                 91.97(3)
_cell_angle_gamma                90
_cell_volume                     1472.12
loop_
_atom_site_label
_atom_site_type_symbol
_atom_site_fract_x
_atom_site_fract_y
_atom_site_fract_z
Fe1 Fe 0.65359(3) 0.15855(4) 0.31279(2)
N1 N 0.5006(2) 0.2801(3) 0.35858(13)
N2 N 0.6611(2) 0.0921(3) 0.43944(13)
C1 C 0.4148(3) 0.3651(3) 0.3163(2)
H1 H 0.4191(3) 0.3711(3) 0.2574(2)
C2 C 0.3193(3) 0.4450(4) 0.3567(2)
H2 H 0.2599(3) 0.5018(4) 0.3250(2)
C3 C 0.3137(3) 0.4390(4) 0.4438(2)
H3 H 0.2515(3) 0.4938(4) 0.4717(2)
C4 C 0.4009(3) 0.3510(3) 0.4905(2)
C5 C 0.4006(3) 0.3362(4) 0.5816(2)
H4 H 0.3413(3) 0.3896(4) 0.6127(2)
C6 C 0.4856(3) 0.2455(4) 0.6224(2)
H5 H 0.4841(3) 0.2380(4) 0.6814(2)
C7 C 0.5784(3) 0.1604(3) 0.5769(2)
C8 C 0.6684(3) 0.0633(4) 0.6161(2)
H6 H 0.6717(3) 0.0530(4) 0.6750(2)
C9 C 0.7514(3) -0.0162(4) 0.5671(2)
H7 H 0.8118(3) -0.0799(4) 0.5925(2)
C10 C 0.7436(3) 0.0003(3) 0.4784(2)
H8 H 0.7985(3) -0.0554(3) 0.4455(2)
C11 C 0.5806(3) 0.1723(3) 0.4878(2)
C12 C 0.4921(3) 0.2707(3) 0.4447(2)
C13 C 0.5935(3) -0.2105(3) 0.1256(2)
C14 C 0.5384(2) -0.0995(3) 0.06345(15)
C15 C 0.5079(2) -0.1448(3) -0.01910(15)
H9 H 0.5125(2) -0.2426(3) -0.03202(15)
C16 C 0.5293(2) 0.0478(3) 0.08297(14)
C17 C 0.5582(2) 0.1009(3) 0.17162(15)
O1 O 0.6170(2) 0.2202(2) 0.18258(11)
O2 O 0.5274(2) 0.0238(2) 0.23433(10)
O3 O 0.5245(2) -0.3182(2) 0.14024(14)
O4 O 0.7112(2) -0.1871(2) 0.15259(11)
O5 O 0.8032(2) 0.0275(2) 0.27526(12)
C16B C 0.4707(2) -0.0478(3) -0.08297(14)
C14B C 0.4616(2) 0.0995(3) -0.06345(15)
C13B C 0.4065(3) 0.2105(3) -0.1256(2)
O3B O 0.4755(2) 0.3182(2) -0.14024(14)
O4B O 0.2888(2) 0.1871(2) -0.15259(11)
C15B C 0.4921(2) 0.1448(3) 0.01910(15)
H9B H 0.4875(2) 0.2426(3) 0.03202(15)
C17B C 0.4418(2) -0.1009(3) -0.17162(15)
O1B O 0.3830(2) -0.2202(2) -0.18258(11)
O2B O 0.4726(2) -0.0238(2) -0.23433(10)
Fe1B Fe 0.34641(3) -0.15855(4) -0.31279(2)
N1B N 0.4994(2) -0.2801(3) -0.35858(13)
N2B N 0.3389(2) -0.0921(3) -0.43944(13)
C1B C 0.5852(3) -0.3651(3) -0.3163(2)
H1B H 0.5809(3) -0.3711(3) -0.2574(2)
C2B C 0.6807(3) -0.4450(4) -0.3567(2)
H2B H 0.7401(3) -0.5018(4) -0.3250(2)
C3B C 0.6863(3) -0.4390(4) -0.4438(2)
H3B H 0.7485(3) -0.4938(4) -0.4717(2)
C4B C 0.5991(3) -0.3510(3) -0.4905(2)
C5B C 0.5994(3) -0.3362(4) -0.5816(2)
H4B H 0.6587(3) -0.3896(4) -0.6127(2)
C6B C 0.5144(3) -0.2455(4) -0.6224(2)
H5B H 0.5159(3) -0.2380(4) -0.6814(2)
C7B C 0.4216(3) -0.1604(3) -0.5769(2)
C8B C 0.3316(3) -0.0633(4) -0.6161(2)
H6B H 0.3283(3) -0.0530(4) -0.6750(2)
C9B C 0.2486(3) 0.0162(4) -0.5671(2)
H7B H 0.1882(3) 0.0799(4) -0.5925(2)
C10B C 0.2564(3) -0.0003(3) -0.4784(2)
H8B H 0.2015(3) 0.0554(3) -0.4455(2)
C11B C 0.4194(3) -0.1723(3) -0.4878(2)
C12B C 0.5079(3) -0.2707(3) -0.4447(2)
O5B O 0.1968(2) -0.0275(2) -0.27526(12)
O4A O 0.7888(2) 0.3129(2) 0.34741(11)
Fe1A Fe 0.84641(3) -0.34145(4) 0.18721(2)
Fe1C Fe 0.15359(3) 0.34145(4) -0.18721(2)
O4C O 0.2112(2) -0.3129(2) -0.34741(11)
Fe1 Fe 0.65359(3) 1.15855(4) 0.31279(2)
N1 N 0.5006(2) 1.2801(3) 0.35858(13)
N2 N 0.6611(2) 1.0921(3) 0.43944(13)
C1 C 0.4148(3) 1.3651(3) 0.3163(2)
H1 H 0.4191(3) 1.3711(3) 0.2574(2)
C2 C 0.3193(3) 1.4450(4) 0.3567(2)
H2 H 0.2599(3) 1.5018(4) 0.3250(2)
C3 C 0.3137(3) 1.4390(4) 0.4438(2)
H3 H 0.2515(3) 1.4938(4) 0.4717(2)
C4 C 0.4009(3) 1.3510(3) 0.4905(2)
C5 C 0.4006(3) 1.3362(4) 0.5816(2)
H4 H 0.3413(3) 1.3896(4) 0.6127(2)
C6 C 0.4856(3) 1.2455(4) 0.6224(2)
H5 H 0.4841(3) 1.2380(4) 0.6814(2)
C7 C 0.5784(3) 1.1604(3) 0.5769(2)
C8 C 0.6684(3) 1.0633(4) 0.6161(2)
H6 H 0.6717(3) 1.0530(4) 0.6750(2)
C9 C 0.7514(3) 0.9838(4) 0.5671(2)
H7 H 0.8118(3) 0.9201(4) 0.5925(2)
C10 C 0.7436(3) 1.0003(3) 0.4784(2)
H8 H 0.7985(3) 0.9446(3) 0.4455(2)
C11 C 0.5806(3) 1.1723(3) 0.4878(2)
C12 C 0.4921(3) 1.2707(3) 0.4447(2)
C13 C 0.5935(3) 0.7895(3) 0.1256(2)
C14 C 0.5384(2) 0.9005(3) 0.06345(15)
C15 C 0.5079(2) 0.8552(3) -0.01910(15)
H9 H 0.5125(2) 0.7574(3) -0.03202(15)
C16 C 0.5293(2) 1.0478(3) 0.08297(14)
C17 C 0.5582(2) 1.1009(3) 0.17162(15)
O1 O 0.6170(2) 1.2202(2) 0.18258(11)
O2 O 0.5274(2) 1.0238(2) 0.23433(10)
O3 O 0.5245(2) 0.6818(2) 0.14024(14)
O4 O 0.7112(2) 0.8129(2) 0.15259(11)
O5 O 0.8032(2) 1.0275(2) 0.27526(12)
C16B C 0.4707(2) 0.9522(3) -0.08297(14)
C14B C 0.4616(2) 1.0995(3) -0.06345(15)
C13B C 0.4065(3) 1.2105(3) -0.1256(2)
O3B O 0.4755(2) 1.3182(2) -0.14024(14)
O4B O 0.2888(2) 1.1871(2) -0.15259(11)
C15B C 0.4921(2) 1.1448(3) 0.01910(15)
H9B H 0.4875(2) 1.2426(3) 0.03202(15)
C17B C 0.4418(2) 0.8991(3) -0.17162(15)
O1B O 0.3830(2) 0.7798(2) -0.18258(11)
O2B O 0.4726(2) 0.9762(2) -0.23433(10)
Fe1B Fe 0.34641(3) 0.84145(4) -0.31279(2)
N1B N 0.4994(2) 0.7199(3) -0.35858(13)
N2B N 0.3389(2) 0.9079(3) -0.43944(13)
C1B C 0.5852(3) 0.6349(3) -0.3163(2)
H1B H 0.5809(3) 0.6289(3) -0.2574(2)
C2B C 0.6807(3) 0.5550(4) -0.3567(2)
H2B H 0.7401(3) 0.4982(4) -0.3250(2)
C3B C 0.6863(3) 0.5610(4) -0.4438(2)
H3B H 0.7485(3) 0.5062(4) -0.4717(2)
C4B C 0.5991(3) 0.6490(3) -0.4905(2)
C5B C 0.5994(3) 0.6638(4) -0.5816(2)
H4B H 0.6587(3) 0.6104(4) -0.6127(2)
C6B C 0.5144(3) 0.7545(4) -0.6224(2)
H5B H 0.5159(3) 0.7620(4) -0.6814(2)
C7B C 0.4216(3) 0.8396(3) -0.5769(2)
C8B C 0.3316(3) 0.9367(4) -0.6161(2)
H6B H 0.3283(3) 0.9470(4) -0.6750(2)
C9B C 0.2486(3) 1.0162(4) -0.5671(2)
H7B H 0.1882(3) 1.0799(4) -0.5925(2)
C10B C 0.2564(3) 0.9997(3) -0.4784(2)
H8B H 0.2015(3) 1.0554(3) -0.4455(2)
C11B C 0.4194(3) 0.8277(3) -0.4878(2)
C12B C 0.5079(3) 0.7293(3) -0.4447(2)
O5B O 0.1968(2) 0.9725(2) -0.27526(12)
O4A O 0.7888(2) 1.3129(2) 0.34741(11)
Fe1A Fe 0.84641(3) 0.65855(4) 0.18721(2)
Fe1C Fe 0.15359(3) 1.34145(4) -0.18721(2)
O4C O 0.2112(2) 0.6871(2) -0.34741(11)
N1 N 0.9994(2) 0.7801(3) 0.14142(13)
N2 N 0.8389(2) 0.5921(3) 0.06056(13)
C1 C 1.0852(3) 0.8651(3) 0.1837(2)
H1 H 1.0809(3) 0.8711(3) 0.2426(2)
C2 C 1.1807(3) 0.9450(4) 0.1433(2)
H2 H 1.2401(3) 1.0018(4) 0.1750(2)
C3 C 1.1863(3) 0.9390(4) 0.0562(2)
H3 H 1.2485(3) 0.9938(4) 0.0283(2)
C4 C 1.0991(3) 0.8510(3) 0.0095(2)
C5 C 1.0994(3) 0.8362(4) -0.0816(2)
H4 H 1.1587(3) 0.8896(4) -0.1127(2)
C6 C 1.0144(3) 0.7455(4) -0.1224(2)
H5 H 1.0159(3) 0.7380(4) -0.1814(2)
C7 C 0.9216(3) 0.6604(3) -0.0769(2)
C8 C 0.8316(3) 0.5633(4) -0.1161(2)
H6 H 0.8283(3) 0.5530(4) -0.1750(2)
C9 C 0.7486(3) 0.4838(4) -0.0671(2)
H7 H 0.6882(3) 0.4201(4) -0.0925(2)
C10 C 0.7564(3) 0.5003(3) 0.0216(2)
H8 H 0.7015(3) 0.4446(3) 0.0545(2)
C11 C 0.9194(3) 0.6723(3) 0.0122(2)
C12 C 1.0079(3) 0.7707(3) 0.0553(2)
C13 C 0.9065(3) 0.2895(3) 0.3744(2)
C14 C 0.9616(2) 0.4005(3) 0.43655(15)
C15 C 0.9921(2) 0.3552(3) 0.51910(15)
H9 H 0.9875(2) 0.2574(3) 0.53202(15)
C16 C 0.9707(2) 0.5478(3) 0.41703(14)
C17 C 0.9418(2) 0.6009(3) 0.32838(15)
O1 O 0.8830(2) 0.7202(2) 0.31742(11)
O2 O 0.9726(2) 0.5238(2) 0.26567(10)
O3 O 0.9755(2) 0.1818(2) 0.35976(14)
O5 O 0.6968(2) 0.5275(2) 0.22474(12)
C16B C 1.0293(2) 0.4522(3) 0.58297(14)
C14B C 1.0384(2) 0.5995(3) 0.56345(15)
C13B C 1.0935(3) 0.7105(3) 0.6256(2)
O3B O 1.0245(2) 0.8182(2) 0.64024(14)
O4B O 1.2112(2) 0.6871(2) 0.65259(11)
C15B C 1.0079(2) 0.6448(3) 0.48090(15)
H9B H 1.0125(2) 0.7426(3) 0.46798(15)
C17B C 1.0582(2) 0.3991(3) 0.67162(15)
O1B O 1.1170(2) 0.2798(2) 0.68258(11)
O2B O 1.0274(2) 0.4762(2) 0.73433(10)
Fe1B Fe 1.15359(3) 0.34145(4) 0.81279(2)
N1B N 1.0006(2) 0.2199(3) 0.85858(13)
N2B N 1.1611(2) 0.4079(3) 0.93944(13)
C1B C 0.9148(3) 0.1349(3) 0.8163(2)
H1B H 0.9191(3) 0.1289(3) 0.7574(2)
C2B C 0.8193(3) 0.0550(4) 0.8567(2)
H2B H 0.7599(3) -0.0018(4) 0.8250(2)
C3B C 0.8137(3) 0.0610(4) 0.9438(2)
H3B H 0.7515(3) 0.0062(4) 0.9717(2)
C4B C 0.9009(3) 0.1490(3) 0.9905(2)
C5B C 0.9006(3) 0.1638(4) 1.0816(2)
H4B H 0.8413(3) 0.1104(4) 1.1127(2)
C6B C 0.9856(3) 0.2545(4) 1.1224(2)
H5B H 0.9841(3) 0.2620(4) 1.1814(2)
C7B C 1.0784(3) 0.3396(3) 1.0769(2)
C8B C 1.1684(3) 0.4367(4) 1.1161(2)
H6B H 1.1717(3) 0.4470(4) 1.1750(2)
C9B C 1.2514(3) 0.5162(4) 1.0671(2)
H7B H 1.3118(3) 0.5799(4) 1.0925(2)
C10B C 1.2436(3) 0.4997(3) 0.9784(2)
H8B H 1.2985(3) 0.5554(3) 0.9455(2)
C11B C 1.0806(3) 0.3277(3) 0.9878(2)
C12B C 0.9921(3) 0.2293(3) 0.9447(2)
O5B O 1.3032(2) 0.4725(2) 0.77526(12)
Fe1C Fe 1.34641(3) 0.84145(4) 0.68721(2)
O4C O 1.2888(2) 0.1871(2) 0.84741(11)
Fe1 Fe 0.65359(3) 0.15855(4) 1.31279(2)
N1 N 0.5006(2) 0.2801(3) 1.35858(13)
N2 N 0.6611(2) 0.0921(3) 1.43944(13)
C1 C 0.4148(3) 0.3651(3) 1.3163(2)
H1 H 0.4191(3) 0.3711(3) 1.2574(2)
C2 C 0.3193(3) 0.4450(4) 1.3567(2)
H2 H 0.2599(3) 0.5018(4) 1.3250(2)
C3 C 0.3137(3) 0.4390(4) 1.4438(2)
H3 H 0.2515(3) 0.4938(4) 1.4717(2)
C4 C 0.4009(3) 0.3510(3) 1.4905(2)
C5 C 0.4006(3) 0.3362(4) 1.5816(2)
H4 H 0.3413(3) 0.3896(4) 1.6127(2)
C6 C 0.4856(3) 0.2455(4) 1.6224(2)
H5 H 0.4841(3) 0.2380(4) 1.6814(2)
C7 C 0.5784(3) 0.1604(3) 1.5769(2)
C8 C 0.6684(3) 0.0633(4) 1.6161(2)
H6 H 0.6717(3) 0.0530(4) 1.6750(2)
C9 C 0.7514(3) -0.0162(4) 1.5671(2)
H7 H 0.8118(3) -0.0799(4) 1.5925(2)
C10 C 0.7436(3) 0.0003(3) 1.4784(2)
H8 H 0.7985(3) -0.0554(3) 1.4455(2)
C11 C 0.5806(3) 0.1723(3) 1.4878(2)
C12 C 0.4921(3) 0.2707(3) 1.4447(2)
C13 C 0.5935(3) -0.2105(3) 1.1256(2)
C14 C 0.5384(2) -0.0995(3) 1.06345(15)
C15 C 0.5079(2) -0.1448(3) 0.98090(15)
H9 H 0.5125(2) -0.2426(3) 0.96798(15)
C16 C 0.5293(2) 0.0478(3) 1.08297(14)
C17 C 0.5582(2) 0.1009(3) 1.17162(15)
O1 O 0.6170(2) 0.2202(2) 1.18258(11)
O2 O 0.5274(2) 0.0238(2) 1.23433(10)
O3 O 0.5245(2) -0.3182(2) 1.14024(14)
O4 O 0.7112(2) -0.1871(2) 1.15259(11)
O5 O 0.8032(2) 0.0275(2) 1.27526(12)
C16B C 0.4707(2) -0.0478(3) 0.91703(14)
C14B C 0.4616(2) 0.0995(3) 0.93655(15)
C13B C 0.4065(3) 0.2105(3) 0.8744(2)
O3B O 0.4755(2) 0.3182(2) 0.85976(14)
O4B O 0.2888(2) 0.1871(2) 0.84741(11)
C15B C 0.4921(2) 0.1448(3) 1.01910(15)
H9B H 0.4875(2) 0.2426(3) 1.03202(15)
C17B C 0.4418(2) -0.1009(3) 0.82838(15)
O1B O 0.3830(2) -0.2202(2) 0.81742(11)
O2B O 0.4726(2) -0.0238(2) 0.76567(10)
Fe1B Fe 0.34641(3) -0.15855(4) 0.68721(2)
N1B N 0.4994(2) -0.2801(3) 0.64142(13)
N2B N 0.3389(2) -0.0921(3) 0.56056(13)
C1B C 0.5852(3) -0.3651(3) 0.6837(2)
H1B H 0.5809(3) -0.3711(3) 0.7426(2)
C2B C 0.6807(3) -0.4450(4) 0.6433(2)
H2B H 0.7401(3) -0.5018(4) 0.6750(2)
C3B C 0.6863(3) -0.4390(4) 0.5562(2)
H3B H 0.7485(3) -0.4938(4) 0.5283(2)
C4B C 0.5991(3) -0.3510(3) 0.5095(2)
C5B C 0.5994(3) -0.3362(4) 0.4184(2)
H4B H 0.6587(3) -0.3896(4) 0.3873(2)
C6B C 0.5144(3) -0.2455(4) 0.3776(2)
H5B H 0.5159(3) -0.2380(4) 0.3186(2)
C7B C 0.4216(3) -0.1604(3) 0.4231(2)
C8B C 0.3316(3) -0.0633(4) 0.3839(2)
H6B H 0.3283(3) -0.0530(4) 0.3250(2)
C9B C 0.2486(3) 0.0162(4) 0.4329(2)
H7B H 0.1882(3) 0.0799(4) 0.4075(2)
C10B C 0.2564(3) -0.0003(3) 0.5216(2)
H8B H 0.2015(3) 0.0554(3) 0.5545(2)
C11B C 0.4194(3) -0.1723(3) 0.5122(2)
C12B C 0.5079(3) -0.2707(3) 0.5553(2)
O5B O 0.1968(2) -0.0275(2) 0.72474(12)
O4A O 0.7888(2) 0.3129(2) 1.34741(11)
Fe1A Fe 0.84641(3) -0.34145(4) 1.18721(2)
Fe1C Fe 0.15359(3) 0.34145(4) 0.81279(2)
O4C O 0.2112(2) -0.3129(2) 0.65259(11)
Fe1 Fe 0.65359(3) 1.15855(4) 1.31279(2)
N1 N 0.5006(2) 1.2801(3) 1.35858(13)
N2 N 0.6611(2) 1.0921(3) 1.43944(13)
C1 C 0.4148(3) 1.3651(3) 1.3163(2)
H1 H 0.4191(3) 1.3711(3) 1.2574(2)
C2 C 0.3193(3) 1.4450(4) 1.3567(2)
H2 H 0.2599(3) 1.5018(4) 1.3250(2)
C3 C 0.3137(3) 1.4390(4) 1.4438(2)
H3 H 0.2515(3) 1.4938(4) 1.4717(2)
C4 C 0.4009(3) 1.3510(3) 1.4905(2)
C5 C 0.4006(3) 1.3362(4) 1.5816(2)
H4 H 0.3413(3) 1.3896(4) 1.6127(2)
C6 C 0.4856(3) 1.2455(4) 1.6224(2)
H5 H 0.4841(3) 1.2380(4) 1.6814(2)
C7 C 0.5784(3) 1.1604(3) 1.5769(2)
C8 C 0.6684(3) 1.0633(4) 1.6161(2)
H6 H 0.6717(3) 1.0530(4) 1.6750(2)
C9 C 0.7514(3) 0.9838(4) 1.5671(2)
H7 H 0.8118(3) 0.9201(4) 1.5925(2)
C10 C 0.7436(3) 1.0003(3) 1.4784(2)
H8 H 0.7985(3) 0.9446(3) 1.4455(2)
C11 C 0.5806(3) 1.1723(3) 1.4878(2)
C12 C 0.4921(3) 1.2707(3) 1.4447(2)
C13 C 0.5935(3) 0.7895(3) 1.1256(2)
C14 C 0.5384(2) 0.9005(3) 1.06345(15)
C15 C 0.5079(2) 0.8552(3) 0.98090(15)
H9 H 0.5125(2) 0.7574(3) 0.96798(15)
C16 C 0.5293(2) 1.0478(3) 1.08297(14)
C17 C 0.5582(2) 1.1009(3) 1.17162(15)
O1 O 0.6170(2) 1.2202(2) 1.18258(11)
O2 O 0.5274(2) 1.0238(2) 1.23433(10)
O3 O 0.5245(2) 0.6818(2) 1.14024(14)
O4 O 0.7112(2) 0.8129(2) 1.15259(11)
O5 O 0.8032(2) 1.0275(2) 1.27526(12)
C16B C 0.4707(2) 0.9522(3) 0.91703(14)
C14B C 0.4616(2) 1.0995(3) 0.93655(15)
C13B C 0.4065(3) 1.2105(3) 0.8744(2)
O3B O 0.4755(2) 1.3182(2) 0.85976(14)
O4B O 0.2888(2) 1.1871(2) 0.84741(11)
C15B C 0.4921(2) 1.1448(3) 1.01910(15)
H9B H 0.4875(2) 1.2426(3) 1.03202(15)
C17B C 0.4418(2) 0.8991(3) 0.82838(15)
O1B O 0.3830(2) 0.7798(2) 0.81742(11)
O2B O 0.4726(2) 0.9762(2) 0.76567(10)
Fe1B Fe 0.34641(3) 0.84145(4) 0.68721(2)
N1B N 0.4994(2) 0.7199(3) 0.64142(13)
N2B N 0.3389(2) 0.9079(3) 0.56056(13)
C1B C 0.5852(3) 0.6349(3) 0.6837(2)
H1B H 0.5809(3) 0.6289(3) 0.7426(2)
C2B C 0.6807(3) 0.5550(4) 0.6433(2)
H2B H 0.7401(3) 0.4982(4) 0.6750(2)
C3B C 0.6863(3) 0.5610(4) 0.5562(2)
H3B H 0.7485(3) 0.5062(4) 0.5283(2)
C4B C 0.5991(3) 0.6490(3) 0.5095(2)
C5B C 0.5994(3) 0.6638(4) 0.4184(2)
H4B H 0.6587(3) 0.6104(4) 0.3873(2)
C6B C 0.5144(3) 0.7545(4) 0.3776(2)
H5B H 0.5159(3) 0.7620(4) 0.3186(2)
C7B C 0.4216(3) 0.8396(3) 0.4231(2)
C8B C 0.3316(3) 0.9367(4) 0.3839(2)
H6B H 0.3283(3) 0.9470(4) 0.3250(2)
C9B C 0.2486(3) 1.0162(4) 0.4329(2)
H7B H 0.1882(3) 1.0799(4) 0.4075(2)
C10B C 0.2564(3) 0.9997(3) 0.5216(2)
H8B H 0.2015(3) 1.0554(3) 0.5545(2)
C11B C 0.4194(3) 0.8277(3) 0.5122(2)
C12B C 0.5079(3) 0.7293(3) 0.5553(2)
O5B O 0.1968(2) 0.9725(2) 0.72474(12)
O4A O 0.7888(2) 1.3129(2) 1.34741(11)
Fe1A Fe 0.84641(3) 0.65855(4) 1.18721(2)
Fe1C Fe 0.15359(3) 1.34145(4) 0.81279(2)
O4C O 0.2112(2) 0.6871(2) 0.65259(11)
Fe1 Fe -0.15359(3) 0.65855(4) 0.18721(2)
N1 N -0.0006(2) 0.7801(3) 0.14142(13)
N2 N -0.1611(2) 0.5921(3) 0.06056(13)
C1 C 0.0852(3) 0.8651(3) 0.1837(2)
H1 H 0.0809(3) 0.8711(3) 0.2426(2)
C2 C 0.1807(3) 0.9450(4) 0.1433(2)
H2 H 0.2401(3) 1.0018(4) 0.1750(2)
C3 C 0.1863(3) 0.9390(4) 0.0562(2)
H3 H 0.2485(3) 0.9938(4) 0.0283(2)
C4 C 0.0991(3) 0.8510(3) 0.0095(2)
C5 C 0.0994(3) 0.8362(4) -0.0816(2)
H4 H 0.1587(3) 0.8896(4) -0.1127(2)
C6 C 0.0144(3) 0.7455(4) -0.1224(2)
H5 H 0.0159(3) 0.7380(4) -0.1814(2)
C7 C -0.0784(3) 0.6604(3) -0.0769(2)
C8 C -0.1684(3) 0.5633(4) -0.1161(2)
H6 H -0.1717(3) 0.5530(4) -0.1750(2)
C9 C -0.2514(3) 0.4838(4) -0.0671(2)
H7 H -0.3118(3) 0.4201(4) -0.0925(2)
C10 C -0.2436(3) 0.5003(3) 0.0216(2)
H8 H -0.2985(3) 0.4446(3) 0.0545(2)
C11 C -0.0806(3) 0.6723(3) 0.0122(2)
C12 C 0.0079(3) 0.7707(3) 0.0553(2)
C13 C -0.0935(3) 0.2895(3) 0.3744(2)
C14 C -0.0384(2) 0.4005(3) 0.43655(15)
C15 C -0.0079(2) 0.3552(3) 0.51910(15)
H9 H -0.0125(2) 0.2574(3) 0.53202(15)
C16 C -0.0293(2) 0.5478(3) 0.41703(14)
C17 C -0.0582(2) 0.6009(3) 0.32838(15)
O1 O -0.1170(2) 0.7202(2) 0.31742(11)
O2 O -0.0274(2) 0.5238(2) 0.26567(10)
O3 O -0.0245(2) 0.1818(2) 0.35976(14)
O4 O -0.2112(2) 0.3129(2) 0.34741(11)
O5 O -0.3032(2) 0.5275(2) 0.22474(12)
C16B C 0.0293(2) 0.4522(3) 0.58297(14)
C14B C 0.0384(2) 0.5995(3) 0.56345(15)
C13B C 0.0935(3) 0.7105(3) 0.6256(2)
O3B O 0.0245(2) 0.8182(2) 0.64024(14)
C15B C 0.0079(2) 0.6448(3) 0.48090(15)
H9B H 0.0125(2) 0.7426(3) 0.46798(15)
C17B C 0.0582(2) 0.3991(3) 0.67162(15)
O1B O 0.1170(2) 0.2798(2) 0.68258(11)
O2B O 0.0274(2) 0.4762(2) 0.73433(10)
N1B N 0.0006(2) 0.2199(3) 0.85858(13)
N2B N 0.1611(2) 0.4079(3) 0.93944(13)
C1B C -0.0852(3) 0.1349(3) 0.8163(2)
H1B H -0.0809(3) 0.1289(3) 0.7574(2)
C2B C -0.1807(3) 0.0550(4) 0.8567(2)
H2B H -0.2401(3) -0.0018(4) 0.8250(2)
C3B C -0.1863(3) 0.0610(4) 0.9438(2)
H3B H -0.2485(3) 0.0062(4) 0.9717(2)
C4B C -0.0991(3) 0.1490(3) 0.9905(2)
C5B C -0.0994(3) 0.1638(4) 1.0816(2)
H4B H -0.1587(3) 0.1104(4) 1.1127(2)
C6B C -0.0144(3) 0.2545(4) 1.1224(2)
H5B H -0.0159(3) 0.2620(4) 1.1814(2)
C7B C 0.0784(3) 0.3396(3) 1.0769(2)
C8B C 0.1684(3) 0.4367(4) 1.1161(2)
H6B H 0.1717(3) 0.4470(4) 1.1750(2)
C9B C 0.2514(3) 0.5162(4) 1.0671(2)
H7B H 0.3118(3) 0.5799(4) 1.0925(2)
C10B C 0.2436(3) 0.4997(3) 0.9784(2)
H8B H 0.2985(3) 0.5554(3) 0.9455(2)
C11B C 0.0806(3) 0.3277(3) 0.9878(2)
C12B C -0.0079(3) 0.2293(3) 0.9447(2)
O5B O 0.3032(2) 0.4725(2) 0.77526(12)
O4A O -0.2888(2) 0.8129(2) 0.15259(11)
Fe1A Fe -0.34641(3) 0.15855(4) 0.31279(2)

#END
