
#######################################################################
#
#                 Cambridge Crystallographic Data Centre
#                                CCDC 
#
#######################################################################
#
# If this CIF has been generated from an entry in the Cambridge 
# Structural Database, then it will include bibliographic, chemical, 
# crystal, experimental, refinement or atomic coordinate data resulting 
# from the CCDC's data processing and validation procedures.
#
#######################################################################

data_ABONEK
_symmetry_cell_setting           orthorhombic
_symmetry_space_group_name_H-M   'P b c n'
_symmetry_Int_Tables_number      60
_space_group_name_Hall           '-P 2n 2ab'
loop_
_symmetry_equiv_pos_site_id
_symmetry_equiv_pos_as_xyz
1 x,y,z
2 1/2+x,1/2+y,1/2-z
3 x,-y,1/2+z
4 1/2-x,1/2+y,z
5 -x,-y,-z
6 1/2-x,1/2-y,1/2+z
7 -x,y,1/2-z
8 1/2+x,1/2-y,-z
_cell_length_a                   23.039(5)
_cell_length_b                   11.340(2)
_cell_length_c                   21.010(4)
_cell_angle_alpha                90
_cell_angle_beta                 90
_cell_angle_gamma                90
_cell_volume                     5489.12
loop_
_atom_site_label
_atom_site_type_symbol
_atom_site_fract_x
_atom_site_fract_y
_atom_site_fract_z
N1 N 0.62394(14) 0.0827(3) 0.18627(14)
N2 N 0.43467(13) -0.1105(3) 0.21402(13)
N3 N 0.66819(14) 0.1052(3) 0.30434(15)
H1 H 0.6330 0.0814 0.2944
N4 N 0.51209(12) -0.0196(3) 0.16393(13)
H2 H 0.5321 -0.0348 0.1986
N5 N 0.63607(15) 0.1665(3) 0.40130(15)
N6 N 0.36143(16) -0.2065(4) 0.26780(15)
H3 H 0.3801 -0.1926 0.3036
H4 H 0.3282 -0.2449 0.2685
N7 N 0.43100(17) 0.3481(4) 0.3076(2)
N8 N 0.59292(17) 0.2247(3) 0.49273(15)
H5 H 0.5630 0.2348 0.4673
N9 N 0.42599(19) 0.3837(4) 0.41605(19)
H6 H 0.4600 0.3484 0.4167
N10 N 0.4951(2) 0.3417(4) 0.51615(19)
N11 N 0.4392(2) 0.2971(5) 0.2004(2)
H7 H 0.4241 0.2891 0.1621
H8 H 0.4752 0.2753 0.2075
C1 C 0.60032(17) 0.0789(3) 0.12785(18)
C2 C 0.45692(16) -0.0727(3) 0.15802(17)
C3 C 0.38391(18) -0.1684(4) 0.21132(18)
C4 C 0.43078(18) -0.0909(4) 0.09958(18)
H9 H 0.4478 -0.0637 0.0611
C5 C 0.35399(17) -0.1896(4) 0.15491(18)
H10 H 0.3178 -0.2297 0.1549
C6 C 0.68027(17) 0.1110(3) 0.19007(19)
C7 C 0.70593(19) 0.1221(4) 0.25580(19)
C8 C 0.53695(18) 0.0539(4) 0.11972(19)
C9 C 0.63212(19) 0.0990(4) 0.07355(19)
H11 H 0.6138 0.0951 0.0331
C10 C 0.37829(19) -0.1511(4) 0.10016(18)
H12 H 0.3589 -0.1656 0.0610
C11 C 0.68029(19) 0.1223(4) 0.36889(18)
C12 C 0.3990(2) 0.3876(4) 0.3570(3)
C13 C 0.71463(18) 0.1324(4) 0.13726(19)
H13 H 0.7544 0.1522 0.1422
C14 C 0.6428(2) 0.1789(4) 0.46430(19)
C15 C 0.6903(2) 0.1247(4) 0.0775(2)
H14 H 0.7130 0.1366 0.0402
C16 C 0.4468(3) 0.3993(5) 0.5270(2)
C17 C 0.4067(3) 0.3434(5) 0.2484(3)
C18 C 0.4077(3) 0.4262(5) 0.4726(3)
C19 C 0.7387(2) 0.1091(5) 0.4603(2)
H15 H 0.7744 0.0902 0.4804
C20 C 0.6940(2) 0.1533(5) 0.4955(2)
H16 H 0.6980 0.1660 0.5400
C21 C 0.73251(19) 0.0919(4) 0.3963(2)
H17 H 0.7632 0.0601 0.3716
C22 C 0.5288(3) 0.3166(4) 0.5660(2)
C23 C 0.4281(3) 0.4395(5) 0.5855(3)
H18 H 0.3930 0.4825 0.5904
C24 C 0.3424(3) 0.4240(5) 0.3498(3)
H19 H 0.3206 0.4529 0.3848
C25 C 0.5139(3) 0.3514(5) 0.6279(2)
H20 H 0.5381 0.3328 0.6631
C26 C 0.3182(3) 0.4167(5) 0.2884(4)
H21 H 0.2789 0.4393 0.2823
C27 C 0.4629(4) 0.4140(5) 0.6359(3)
H22 H 0.4520 0.4395 0.6773
C28 C 0.3495(3) 0.3781(5) 0.2372(3)
H23 H 0.3330 0.3750 0.1958
C29 C 0.5845(3) 0.2556(5) 0.5539(2)
O1 O 0.75684(13) 0.1474(3) 0.26313(13)
O2 O 0.51124(13) 0.0939(3) 0.07418(15)
O3 O 0.36254(18) 0.4820(4) 0.47837(19)
O4 O 0.61952(19) 0.2364(4) 0.59628(15)
N1 N 0.12394(14) 0.5827(3) 0.31373(14)
N2 N -0.06533(13) 0.3895(3) 0.28598(13)
N3 N 0.16819(14) 0.6052(3) 0.19566(15)
H1 H 0.1330 0.5814 0.2056
N4 N 0.01209(12) 0.4804(3) 0.33607(13)
H2 H 0.0321 0.4652 0.3014
N5 N 0.13607(15) 0.6665(3) 0.09870(15)
N6 N -0.13857(16) 0.2935(4) 0.23220(15)
H3 H -0.1199 0.3074 0.1964
H4 H -0.1718 0.2551 0.2315
N7 N -0.06900(17) 0.8481(4) 0.1924(2)
N8 N 0.09292(17) 0.7247(3) 0.00727(15)
H5 H 0.0630 0.7348 0.0327
N9 N -0.07401(19) 0.8837(4) 0.08395(19)
H6 H -0.0400 0.8484 0.0833
N10 N -0.0049(2) 0.8417(4) -0.01615(19)
N11 N -0.0608(2) 0.7971(5) 0.2996(2)
H7 H -0.0759 0.7891 0.3379
H8 H -0.0248 0.7753 0.2925
C1 C 0.10032(17) 0.5789(3) 0.37215(18)
C2 C -0.04308(16) 0.4273(3) 0.34198(17)
C3 C -0.11609(18) 0.3316(4) 0.28868(18)
C4 C -0.06922(18) 0.4091(4) 0.40042(18)
H9 H -0.0522 0.4363 0.4389
C5 C -0.14601(17) 0.3104(4) 0.34509(18)
H10 H -0.1822 0.2703 0.3451
C6 C 0.18027(17) 0.6110(3) 0.30993(19)
C7 C 0.20593(19) 0.6221(4) 0.24420(19)
C8 C 0.03695(18) 0.5539(4) 0.38028(19)
C9 C 0.13212(19) 0.5990(4) 0.42645(19)
H11 H 0.1138 0.5951 0.4669
C10 C -0.12171(19) 0.3489(4) 0.39984(18)
H12 H -0.1411 0.3344 0.4390
C11 C 0.18029(19) 0.6223(4) 0.13111(18)
C12 C -0.1010(2) 0.8876(4) 0.1430(3)
C13 C 0.21463(18) 0.6324(4) 0.36274(19)
H13 H 0.2544 0.6522 0.3578
C14 C 0.1428(2) 0.6789(4) 0.03570(19)
C15 C 0.1903(2) 0.6247(4) 0.4225(2)
H14 H 0.2130 0.6366 0.4598
C16 C -0.0532(3) 0.8993(5) -0.0270(2)
C17 C -0.0933(3) 0.8434(5) 0.2516(3)
C18 C -0.0923(3) 0.9262(5) 0.0274(3)
C19 C 0.2387(2) 0.6091(5) 0.0397(2)
H15 H 0.2744 0.5902 0.0196
C20 C 0.1940(2) 0.6533(5) 0.0045(2)
H16 H 0.1980 0.6660 -0.0400
C21 C 0.23251(19) 0.5919(4) 0.1037(2)
H17 H 0.2632 0.5601 0.1284
C22 C 0.0288(3) 0.8166(4) -0.0660(2)
C23 C -0.0719(3) 0.9395(5) -0.0855(3)
H18 H -0.1070 0.9825 -0.0904
C24 C -0.1576(3) 0.9240(5) 0.1502(3)
H19 H -0.1794 0.9529 0.1152
C25 C 0.0139(3) 0.8514(5) -0.1279(2)
H20 H 0.0381 0.8328 -0.1631
C26 C -0.1818(3) 0.9167(5) 0.2116(4)
H21 H -0.2211 0.9393 0.2177
C27 C -0.0371(4) 0.9140(5) -0.1359(3)
H22 H -0.0480 0.9395 -0.1773
C28 C -0.1505(3) 0.8781(5) 0.2628(3)
H23 H -0.1670 0.8750 0.3042
C29 C 0.0845(3) 0.7556(5) -0.0539(2)
O1 O 0.25684(13) 0.6474(3) 0.23687(13)
O2 O 0.01124(13) 0.5939(3) 0.42582(15)
O3 O -0.13746(18) 0.9820(4) 0.02163(19)
O4 O 0.11952(19) 0.7364(4) -0.09628(15)
N1 N 0.62394(14) 0.9173(3) 0.68627(14)
N2 N 0.43467(13) 1.1105(3) 0.71402(13)
N3 N 0.66819(14) 0.8948(3) 0.80434(15)
H1 H 0.6330 0.9186 0.7944
N4 N 0.51209(12) 1.0196(3) 0.66393(13)
H2 H 0.5321 1.0348 0.6986
N5 N 0.63607(15) 0.8335(3) 0.90130(15)
N6 N 0.36143(16) 1.2065(4) 0.76780(15)
H3 H 0.3801 1.1926 0.8036
H4 H 0.3282 1.2449 0.7685
N7 N 0.43100(17) 0.6519(4) 0.8076(2)
N8 N 0.59292(17) 0.7753(3) 0.99273(15)
H5 H 0.5630 0.7652 0.9673
N9 N 0.42599(19) 0.6163(4) 0.91605(19)
H6 H 0.4600 0.6516 0.9167
N10 N 0.4951(2) 0.6583(4) 1.01615(19)
N11 N 0.4392(2) 0.7029(5) 0.7004(2)
H7 H 0.4241 0.7109 0.6621
H8 H 0.4752 0.7247 0.7075
C1 C 0.60032(17) 0.9211(3) 0.62785(18)
C2 C 0.45692(16) 1.0727(3) 0.65802(17)
C3 C 0.38391(18) 1.1684(4) 0.71132(18)
C4 C 0.43078(18) 1.0909(4) 0.59958(18)
H9 H 0.4478 1.0637 0.5611
C5 C 0.35399(17) 1.1896(4) 0.65491(18)
H10 H 0.3178 1.2297 0.6549
C6 C 0.68027(17) 0.8890(3) 0.69007(19)
C7 C 0.70593(19) 0.8779(4) 0.75580(19)
C8 C 0.53695(18) 0.9461(4) 0.61972(19)
C9 C 0.63212(19) 0.9010(4) 0.57355(19)
H11 H 0.6138 0.9049 0.5331
C10 C 0.37829(19) 1.1511(4) 0.60016(18)
H12 H 0.3589 1.1656 0.5610
C11 C 0.68029(19) 0.8777(4) 0.86889(18)
C12 C 0.3990(2) 0.6124(4) 0.8570(3)
C13 C 0.71463(18) 0.8676(4) 0.63726(19)
H13 H 0.7544 0.8478 0.6422
C14 C 0.6428(2) 0.8211(4) 0.96430(19)
C15 C 0.6903(2) 0.8753(4) 0.5775(2)
H14 H 0.7130 0.8634 0.5402
C16 C 0.4468(3) 0.6007(5) 1.0270(2)
C17 C 0.4067(3) 0.6566(5) 0.7484(3)
C18 C 0.4077(3) 0.5738(5) 0.9726(3)
C19 C 0.7387(2) 0.8909(5) 0.9603(2)
H15 H 0.7744 0.9098 0.9804
C20 C 0.6940(2) 0.8467(5) 0.9955(2)
H16 H 0.6980 0.8340 1.0400
C21 C 0.73251(19) 0.9081(4) 0.8963(2)
H17 H 0.7632 0.9399 0.8716
C22 C 0.5288(3) 0.6834(4) 1.0660(2)
C23 C 0.4281(3) 0.5605(5) 1.0855(3)
H18 H 0.3930 0.5175 1.0904
C24 C 0.3424(3) 0.5760(5) 0.8498(3)
H19 H 0.3206 0.5471 0.8848
C25 C 0.5139(3) 0.6486(5) 1.1279(2)
H20 H 0.5381 0.6672 1.1631
C26 C 0.3182(3) 0.5833(5) 0.7884(4)
H21 H 0.2789 0.5607 0.7823
C27 C 0.4629(4) 0.5860(5) 1.1359(3)
H22 H 0.4520 0.5605 1.1773
C28 C 0.3495(3) 0.6219(5) 0.7372(3)
H23 H 0.3330 0.6250 0.6958
C29 C 0.5845(3) 0.7444(5) 1.0539(2)
O1 O 0.75684(13) 0.8526(3) 0.76313(13)
O2 O 0.51124(13) 0.9061(3) 0.57418(15)
O3 O 0.36254(18) 0.5180(4) 0.97837(19)
O4 O 0.61952(19) 0.7636(4) 1.09628(15)
N1 N 0.87606(14) 0.5827(3) 0.18627(14)
N2 N 1.06533(13) 0.3895(3) 0.21402(13)
N3 N 0.83181(14) 0.6052(3) 0.30434(15)
H1 H 0.8670 0.5814 0.2944
N4 N 0.98791(12) 0.4804(3) 0.16393(13)
H2 H 0.9679 0.4652 0.1986
N5 N 0.86393(15) 0.6665(3) 0.40130(15)
N6 N 1.13857(16) 0.2935(4) 0.26780(15)
H3 H 1.1199 0.3074 0.3036
H4 H 1.1718 0.2551 0.2685
N7 N 1.06900(17) 0.8481(4) 0.3076(2)
N8 N 0.90708(17) 0.7247(3) 0.49273(15)
H5 H 0.9370 0.7348 0.4673
N9 N 1.07401(19) 0.8837(4) 0.41605(19)
H6 H 1.0400 0.8484 0.4167
N10 N 1.0049(2) 0.8417(4) 0.51615(19)
N11 N 1.0608(2) 0.7971(5) 0.2004(2)
H7 H 1.0759 0.7891 0.1621
H8 H 1.0248 0.7753 0.2075
C1 C 0.89968(17) 0.5789(3) 0.12785(18)
C2 C 1.04308(16) 0.4273(3) 0.15802(17)
C3 C 1.11609(18) 0.3316(4) 0.21132(18)
C4 C 1.06922(18) 0.4091(4) 0.09958(18)
H9 H 1.0522 0.4363 0.0611
C5 C 1.14601(17) 0.3104(4) 0.15491(18)
H10 H 1.1822 0.2703 0.1549
C6 C 0.81973(17) 0.6110(3) 0.19007(19)
C7 C 0.79407(19) 0.6221(4) 0.25580(19)
C8 C 0.96305(18) 0.5539(4) 0.11972(19)
C9 C 0.86788(19) 0.5990(4) 0.07355(19)
H11 H 0.8862 0.5951 0.0331
C10 C 1.12171(19) 0.3489(4) 0.10016(18)
H12 H 1.1411 0.3344 0.0610
C11 C 0.81971(19) 0.6223(4) 0.36889(18)
C12 C 1.1010(2) 0.8876(4) 0.3570(3)
C13 C 0.78537(18) 0.6324(4) 0.13726(19)
H13 H 0.7456 0.6522 0.1422
C14 C 0.8572(2) 0.6789(4) 0.46430(19)
C15 C 0.8097(2) 0.6247(4) 0.0775(2)
H14 H 0.7870 0.6366 0.0402
C16 C 1.0532(3) 0.8993(5) 0.5270(2)
C17 C 1.0933(3) 0.8434(5) 0.2484(3)
C18 C 1.0923(3) 0.9262(5) 0.4726(3)
C19 C 0.7613(2) 0.6091(5) 0.4603(2)
H15 H 0.7256 0.5902 0.4804
C20 C 0.8060(2) 0.6533(5) 0.4955(2)
H16 H 0.8020 0.6660 0.5400
C21 C 0.76749(19) 0.5919(4) 0.3963(2)
H17 H 0.7368 0.5601 0.3716
C22 C 0.9712(3) 0.8166(4) 0.5660(2)
C23 C 1.0719(3) 0.9395(5) 0.5855(3)
H18 H 1.1070 0.9825 0.5904
C24 C 1.1576(3) 0.9240(5) 0.3498(3)
H19 H 1.1794 0.9529 0.3848
C25 C 0.9861(3) 0.8514(5) 0.6279(2)
H20 H 0.9619 0.8328 0.6631
C26 C 1.1818(3) 0.9167(5) 0.2884(4)
H21 H 1.2211 0.9393 0.2823
C27 C 1.0371(4) 0.9140(5) 0.6359(3)
H22 H 1.0480 0.9395 0.6773
C28 C 1.1505(3) 0.8781(5) 0.2372(3)
H23 H 1.1670 0.8750 0.1958
C29 C 0.9155(3) 0.7556(5) 0.5539(2)
O1 O 0.74316(13) 0.6474(3) 0.26313(13)
O2 O 0.98876(13) 0.5939(3) 0.07418(15)
O3 O 1.13746(18) 0.9820(4) 0.47837(19)
O4 O 0.88048(19) 0.7364(4) 0.59628(15)
N1 N 0.37606(14) 0.9173(3) 0.81373(14)
N2 N 0.56533(13) 1.1105(3) 0.78598(13)
N3 N 0.33181(14) 0.8948(3) 0.69566(15)
H1 H 0.3670 0.9186 0.7056
N4 N 0.48791(12) 1.0196(3) 0.83607(13)
H2 H 0.4679 1.0348 0.8014
N5 N 0.36393(15) 0.8335(3) 0.59870(15)
N6 N 0.63857(16) 1.2065(4) 0.73220(15)
H3 H 0.6199 1.1926 0.6964
H4 H 0.6718 1.2449 0.7315
N7 N 0.56900(17) 0.6519(4) 0.6924(2)
N8 N 0.40708(17) 0.7753(3) 0.50727(15)
H5 H 0.4370 0.7652 0.5327
N9 N 0.57401(19) 0.6163(4) 0.58395(19)
H6 H 0.5400 0.6516 0.5833
N10 N 0.5049(2) 0.6583(4) 0.48385(19)
N11 N 0.5608(2) 0.7029(5) 0.7996(2)
H7 H 0.5759 0.7109 0.8379
H8 H 0.5248 0.7247 0.7925
C1 C 0.39968(17) 0.9211(3) 0.87215(18)
C2 C 0.54308(16) 1.0727(3) 0.84198(17)
C3 C 0.61609(18) 1.1684(4) 0.78868(18)
C4 C 0.56922(18) 1.0909(4) 0.90042(18)
H9 H 0.5522 1.0637 0.9389
C5 C 0.64601(17) 1.1896(4) 0.84509(18)
H10 H 0.6822 1.2297 0.8451
C6 C 0.31973(17) 0.8890(3) 0.80993(19)
C7 C 0.29407(19) 0.8779(4) 0.74420(19)
C8 C 0.46305(18) 0.9461(4) 0.88028(19)
C9 C 0.36788(19) 0.9010(4) 0.92645(19)
H11 H 0.3862 0.9049 0.9669
C10 C 0.62171(19) 1.1511(4) 0.89984(18)
H12 H 0.6411 1.1656 0.9390
C11 C 0.31971(19) 0.8777(4) 0.63111(18)
C12 C 0.6010(2) 0.6124(4) 0.6430(3)
C13 C 0.28537(18) 0.8676(4) 0.86274(19)
H13 H 0.2456 0.8478 0.8578
C14 C 0.3572(2) 0.8211(4) 0.53570(19)
C15 C 0.3097(2) 0.8753(4) 0.9225(2)
H14 H 0.2870 0.8634 0.9598
C16 C 0.5532(3) 0.6007(5) 0.4730(2)
C17 C 0.5933(3) 0.6566(5) 0.7516(3)
C18 C 0.5923(3) 0.5738(5) 0.5274(3)
C19 C 0.2613(2) 0.8909(5) 0.5397(2)
H15 H 0.2256 0.9098 0.5196
C20 C 0.3060(2) 0.8467(5) 0.5045(2)
H16 H 0.3020 0.8340 0.4600
C21 C 0.26749(19) 0.9081(4) 0.6037(2)
H17 H 0.2368 0.9399 0.6284
C22 C 0.4712(3) 0.6834(4) 0.4340(2)
C23 C 0.5719(3) 0.5605(5) 0.4145(3)
H18 H 0.6070 0.5175 0.4096
C24 C 0.6576(3) 0.5760(5) 0.6502(3)
H19 H 0.6794 0.5471 0.6152
C25 C 0.4861(3) 0.6486(5) 0.3721(2)
H20 H 0.4619 0.6672 0.3369
C26 C 0.6818(3) 0.5833(5) 0.7116(4)
H21 H 0.7211 0.5607 0.7177
C27 C 0.5371(4) 0.5860(5) 0.3641(3)
H22 H 0.5480 0.5605 0.3227
C28 C 0.6505(3) 0.6219(5) 0.7628(3)
H23 H 0.6670 0.6250 0.8042
C29 C 0.4155(3) 0.7444(5) 0.4461(2)
O1 O 0.24316(13) 0.8526(3) 0.73687(13)
O2 O 0.48876(13) 0.9061(3) 0.92582(15)
O3 O 0.63746(18) 0.5180(4) 0.52163(19)
O4 O 0.38048(19) 0.7636(4) 0.40372(15)
N1 N 0.87606(14) 0.4173(3) 0.68627(14)
N2 N 1.06533(13) 0.6105(3) 0.71402(13)
N3 N 0.83181(14) 0.3948(3) 0.80434(15)
H1 H 0.8670 0.4186 0.7944
N4 N 0.98791(12) 0.5196(3) 0.66393(13)
H2 H 0.9679 0.5348 0.6986
N5 N 0.86393(15) 0.3335(3) 0.90130(15)
N6 N 1.13857(16) 0.7065(4) 0.76780(15)
H3 H 1.1199 0.6926 0.8036
H4 H 1.1718 0.7449 0.7685
N7 N 1.06900(17) 0.1519(4) 0.8076(2)
N8 N 0.90708(17) 0.2753(3) 0.99273(15)
H5 H 0.9370 0.2652 0.9673
N9 N 1.07401(19) 0.1163(4) 0.91605(19)
H6 H 1.0400 0.1516 0.9167
N10 N 1.0049(2) 0.1583(4) 1.01615(19)
N11 N 1.0608(2) 0.2029(5) 0.7004(2)
H7 H 1.0759 0.2109 0.6621
H8 H 1.0248 0.2247 0.7075
C1 C 0.89968(17) 0.4211(3) 0.62785(18)
C2 C 1.04308(16) 0.5727(3) 0.65802(17)
C3 C 1.11609(18) 0.6684(4) 0.71132(18)
C4 C 1.06922(18) 0.5909(4) 0.59958(18)
H9 H 1.0522 0.5637 0.5611
C5 C 1.14601(17) 0.6896(4) 0.65491(18)
H10 H 1.1822 0.7297 0.6549
C6 C 0.81973(17) 0.3890(3) 0.69007(19)
C7 C 0.79407(19) 0.3779(4) 0.75580(19)
C8 C 0.96305(18) 0.4461(4) 0.61972(19)
C9 C 0.86788(19) 0.4010(4) 0.57355(19)
H11 H 0.8862 0.4049 0.5331
C10 C 1.12171(19) 0.6511(4) 0.60016(18)
H12 H 1.1411 0.6656 0.5610
C11 C 0.81971(19) 0.3777(4) 0.86889(18)
C12 C 1.1010(2) 0.1124(4) 0.8570(3)
C13 C 0.78537(18) 0.3676(4) 0.63726(19)
H13 H 0.7456 0.3478 0.6422
C14 C 0.8572(2) 0.3211(4) 0.96430(19)
C15 C 0.8097(2) 0.3753(4) 0.5775(2)
H14 H 0.7870 0.3634 0.5402
C16 C 1.0532(3) 0.1007(5) 1.0270(2)
C17 C 1.0933(3) 0.1566(5) 0.7484(3)
C18 C 1.0923(3) 0.0738(5) 0.9726(3)
C19 C 0.7613(2) 0.3909(5) 0.9603(2)
H15 H 0.7256 0.4098 0.9804
C20 C 0.8060(2) 0.3467(5) 0.9955(2)
H16 H 0.8020 0.3340 1.0400
C21 C 0.76749(19) 0.4081(4) 0.8963(2)
H17 H 0.7368 0.4399 0.8716
C22 C 0.9712(3) 0.1834(4) 1.0660(2)
C23 C 1.0719(3) 0.0605(5) 1.0855(3)
H18 H 1.1070 0.0175 1.0904
C24 C 1.1576(3) 0.0760(5) 0.8498(3)
H19 H 1.1794 0.0471 0.8848
C25 C 0.9861(3) 0.1486(5) 1.1279(2)
H20 H 0.9619 0.1672 1.1631
C26 C 1.1818(3) 0.0833(5) 0.7884(4)
H21 H 1.2211 0.0607 0.7823
C27 C 1.0371(4) 0.0860(5) 1.1359(3)
H22 H 1.0480 0.0605 1.1773
C28 C 1.1505(3) 0.1219(5) 0.7372(3)
H23 H 1.1670 0.1250 0.6958
C29 C 0.9155(3) 0.2444(5) 1.0539(2)
O1 O 0.74316(13) 0.3526(3) 0.76313(13)
O2 O 0.98876(13) 0.4061(3) 0.57418(15)
O3 O 1.13746(18) 0.0180(4) 0.97837(19)
O4 O 0.88048(19) 0.2636(4) 1.09628(15)
N1 N 0.37606(14) 0.0827(3) 0.31373(14)
N2 N 0.56533(13) -0.1105(3) 0.28598(13)
N3 N 0.33181(14) 0.1052(3) 0.19566(15)
H1 H 0.3670 0.0814 0.2056
N4 N 0.48791(12) -0.0196(3) 0.33607(13)
H2 H 0.4679 -0.0348 0.3014
N5 N 0.36393(15) 0.1665(3) 0.09870(15)
N6 N 0.63857(16) -0.2065(4) 0.23220(15)
H3 H 0.6199 -0.1926 0.1964
H4 H 0.6718 -0.2449 0.2315
N7 N 0.56900(17) 0.3481(4) 0.1924(2)
N8 N 0.40708(17) 0.2247(3) 0.00727(15)
H5 H 0.4370 0.2348 0.0327
N9 N 0.57401(19) 0.3837(4) 0.08395(19)
H6 H 0.5400 0.3484 0.0833
N10 N 0.5049(2) 0.3417(4) -0.01615(19)
N11 N 0.5608(2) 0.2971(5) 0.2996(2)
H7 H 0.5759 0.2891 0.3379
H8 H 0.5248 0.2753 0.2925
C1 C 0.39968(17) 0.0789(3) 0.37215(18)
C2 C 0.54308(16) -0.0727(3) 0.34198(17)
C3 C 0.61609(18) -0.1684(4) 0.28868(18)
C4 C 0.56922(18) -0.0909(4) 0.40042(18)
H9 H 0.5522 -0.0637 0.4389
C5 C 0.64601(17) -0.1896(4) 0.34509(18)
H10 H 0.6822 -0.2297 0.3451
C6 C 0.31973(17) 0.1110(3) 0.30993(19)
C7 C 0.29407(19) 0.1221(4) 0.24420(19)
C8 C 0.46305(18) 0.0539(4) 0.38028(19)
C9 C 0.36788(19) 0.0990(4) 0.42645(19)
H11 H 0.3862 0.0951 0.4669
C10 C 0.62171(19) -0.1511(4) 0.39984(18)
H12 H 0.6411 -0.1656 0.4390
C11 C 0.31971(19) 0.1223(4) 0.13111(18)
C12 C 0.6010(2) 0.3876(4) 0.1430(3)
C13 C 0.28537(18) 0.1324(4) 0.36274(19)
H13 H 0.2456 0.1522 0.3578
C14 C 0.3572(2) 0.1789(4) 0.03570(19)
C15 C 0.3097(2) 0.1247(4) 0.4225(2)
H14 H 0.2870 0.1366 0.4598
C16 C 0.5532(3) 0.3993(5) -0.0270(2)
C17 C 0.5933(3) 0.3434(5) 0.2516(3)
C18 C 0.5923(3) 0.4262(5) 0.0274(3)
C19 C 0.2613(2) 0.1091(5) 0.0397(2)
H15 H 0.2256 0.0902 0.0196
C20 C 0.3060(2) 0.1533(5) 0.0045(2)
H16 H 0.3020 0.1660 -0.0400
C21 C 0.26749(19) 0.0919(4) 0.1037(2)
H17 H 0.2368 0.0601 0.1284
C22 C 0.4712(3) 0.3166(4) -0.0660(2)
C23 C 0.5719(3) 0.4395(5) -0.0855(3)
H18 H 0.6070 0.4825 -0.0904
C24 C 0.6576(3) 0.4240(5) 0.1502(3)
H19 H 0.6794 0.4529 0.1152
C25 C 0.4861(3) 0.3514(5) -0.1279(2)
H20 H 0.4619 0.3328 -0.1631
C26 C 0.6818(3) 0.4167(5) 0.2116(4)
H21 H 0.7211 0.4393 0.2177
C27 C 0.5371(4) 0.4140(5) -0.1359(3)
H22 H 0.5480 0.4395 -0.1773
C28 C 0.6505(3) 0.3781(5) 0.2628(3)
H23 H 0.6670 0.3750 0.3042
C29 C 0.4155(3) 0.2556(5) -0.0539(2)
O1 O 0.24316(13) 0.1474(3) 0.23687(13)
O2 O 0.48876(13) 0.0939(3) 0.42582(15)
O3 O 0.63746(18) 0.4820(4) 0.02163(19)
O4 O 0.38048(19) 0.2364(4) -0.09628(15)
N1 N 0.12394(14) 0.4173(3) 0.81373(14)
N2 N -0.06533(13) 0.6105(3) 0.78598(13)
N3 N 0.16819(14) 0.3948(3) 0.69566(15)
H1 H 0.1330 0.4186 0.7056
N4 N 0.01209(12) 0.5196(3) 0.83607(13)
H2 H 0.0321 0.5348 0.8014
N5 N 0.13607(15) 0.3335(3) 0.59870(15)
N6 N -0.13857(16) 0.7065(4) 0.73220(15)
H3 H -0.1199 0.6926 0.6964
H4 H -0.1718 0.7449 0.7315
N7 N -0.06900(17) 0.1519(4) 0.6924(2)
N8 N 0.09292(17) 0.2753(3) 0.50727(15)
H5 H 0.0630 0.2652 0.5327
N9 N -0.07401(19) 0.1163(4) 0.58395(19)
H6 H -0.0400 0.1516 0.5833
N10 N -0.0049(2) 0.1583(4) 0.48385(19)
N11 N -0.0608(2) 0.2029(5) 0.7996(2)
H7 H -0.0759 0.2109 0.8379
H8 H -0.0248 0.2247 0.7925
C1 C 0.10032(17) 0.4211(3) 0.87215(18)
C2 C -0.04308(16) 0.5727(3) 0.84198(17)
C3 C -0.11609(18) 0.6684(4) 0.78868(18)
C4 C -0.06922(18) 0.5909(4) 0.90042(18)
H9 H -0.0522 0.5637 0.9389
C5 C -0.14601(17) 0.6896(4) 0.84509(18)
H10 H -0.1822 0.7297 0.8451
C6 C 0.18027(17) 0.3890(3) 0.80993(19)
C7 C 0.20593(19) 0.3779(4) 0.74420(19)
C8 C 0.03695(18) 0.4461(4) 0.88028(19)
C9 C 0.13212(19) 0.4010(4) 0.92645(19)
H11 H 0.1138 0.4049 0.9669
C10 C -0.12171(19) 0.6511(4) 0.89984(18)
H12 H -0.1411 0.6656 0.9390
C11 C 0.18029(19) 0.3777(4) 0.63111(18)
C12 C -0.1010(2) 0.1124(4) 0.6430(3)
C13 C 0.21463(18) 0.3676(4) 0.86274(19)
H13 H 0.2544 0.3478 0.8578
C14 C 0.1428(2) 0.3211(4) 0.53570(19)
C15 C 0.1903(2) 0.3753(4) 0.9225(2)
H14 H 0.2130 0.3634 0.9598
C16 C -0.0532(3) 0.1007(5) 0.4730(2)
C17 C -0.0933(3) 0.1566(5) 0.7516(3)
C18 C -0.0923(3) 0.0738(5) 0.5274(3)
C19 C 0.2387(2) 0.3909(5) 0.5397(2)
H15 H 0.2744 0.4098 0.5196
C20 C 0.1940(2) 0.3467(5) 0.5045(2)
H16 H 0.1980 0.3340 0.4600
C21 C 0.23251(19) 0.4081(4) 0.6037(2)
H17 H 0.2632 0.4399 0.6284
C22 C 0.0288(3) 0.1834(4) 0.4340(2)
C23 C -0.0719(3) 0.0605(5) 0.4145(3)
H18 H -0.1070 0.0175 0.4096
C24 C -0.1576(3) 0.0760(5) 0.6502(3)
H19 H -0.1794 0.0471 0.6152
C25 C 0.0139(3) 0.1486(5) 0.3721(2)
H20 H 0.0381 0.1672 0.3369
C26 C -0.1818(3) 0.0833(5) 0.7116(4)
H21 H -0.2211 0.0607 0.7177
C27 C -0.0371(4) 0.0860(5) 0.3641(3)
H22 H -0.0480 0.0605 0.3227
C28 C -0.1505(3) 0.1219(5) 0.7628(3)
H23 H -0.1670 0.1250 0.8042
C29 C 0.0845(3) 0.2444(5) 0.4461(2)
O1 O 0.25684(13) 0.3526(3) 0.73687(13)
O2 O 0.01124(13) 0.4061(3) 0.92582(15)
O3 O -0.13746(18) 0.0180(4) 0.52163(19)
O4 O 0.11952(19) 0.2636(4) 0.40372(15)

#END
