./ABONEK_from_POSCAR.cif_generated_by_CrystalShift
_symmetry_cell_setting triclinic
_symmetry_space_group_name_H-M 'P 1'
loop_
_symmetry_equiv_pos_site_id
_symmetry_equiv_pos_as_xyz
1 x,y,z
_cell_length_a 23.039000
_cell_length_b 11.340000
_cell_length_c 21.010000
_cell_angle_alpha 90.000000
_cell_angle_beta 90.000000
_cell_angle_gamma 90.000000
_cell_volume 5489.120083
loop_
_atom_site_label
_atom_site_type_symbol
_atom_site_fract_x
_atom_site_fract_y
_atom_site_fract_z
H1 H 1.107000 0.982500 0.590400
H2 H 0.437000 0.234800 0.032700
H3 H -0.141100 0.665600 0.939000
H4 H 0.633000 0.081400 0.294400
H5 H 0.575900 0.289100 0.337900
H6 H 0.532100 -0.034800 0.198600
H7 H 0.113800 0.404900 0.966900
H8 H 0.524800 0.275300 0.292500
H9 H 0.380100 -0.192600 0.303600
H10 H 0.328200 -0.244900 0.268500
H11 H 0.671800 -0.244900 0.231500
H12 H 0.619900 -0.192600 0.196400
H13 H 0.563000 0.234800 0.467300
H14 H 0.467900 -0.034800 0.301400
H15 H 0.460000 0.348400 0.416700
H16 H -0.182200 0.729700 0.845100
H17 H 0.367000 0.081400 0.205600
H18 H 0.424100 0.289100 0.162100
H19 H 0.475200 0.275300 0.207500
H20 H 0.552200 -0.063700 0.438900
H21 H 0.213000 0.363400 0.959800
H22 H 1.167000 0.125000 0.695800
H23 H 1.048000 0.060500 1.177300
H24 H 0.447800 -0.063700 0.061100
H25 H 1.221100 0.060700 0.782300
H26 H 0.317800 -0.229700 0.154900
H27 H 0.961900 0.167200 1.163100
H28 H 1.179400 0.047100 0.884800
H29 H 1.107000 0.017500 1.090400
H30 H 0.736800 0.439900 0.871600
H31 H 0.613800 0.095100 0.033100
H32 H 0.802000 0.334000 1.040000
H33 H 0.358900 -0.165600 0.061000
H34 H 0.725600 0.409800 0.980400
H35 H 0.787000 0.363400 0.540200
H36 H 0.745600 0.347800 0.642200
H37 H 0.754400 0.152200 0.142200
H38 H 1.141100 0.665600 0.561000
H39 H 0.886200 0.404900 0.533100
H40 H 0.713000 0.136600 0.040200
H41 H 1.182200 0.729700 0.654900
H42 H 1.052200 0.563700 0.561100
H43 H 1.024800 0.224700 0.707500
H44 H 1.075900 0.210900 0.662100
H45 H 0.774400 0.090200 0.480400
H46 H 0.682200 -0.229700 0.345100
H47 H 0.698000 0.166000 0.540000
H48 H 1.040000 0.151600 0.916700
H49 H 0.763200 0.060100 0.371600
H50 H 0.937000 0.265200 0.967300
H51 H 1.171800 0.744900 0.768500
H52 H 0.393000 0.482500 0.590400
H53 H 1.119900 0.692600 0.803600
H54 H 0.320600 0.452900 0.384800
H55 H 0.386200 0.095100 0.466900
H56 H 0.538100 0.332800 0.663100
H57 H 0.967900 0.534800 0.698600
H58 H 0.278900 0.439300 0.282300
H59 H 0.641100 -0.165600 0.439000
H60 H 0.452000 0.439500 0.677300
H61 H 0.867000 0.418600 0.794400
H62 H 0.333000 0.375000 0.195800
H63 H 0.274400 0.409800 0.519600
H64 H 0.198000 0.334000 0.460000
H65 H -0.167000 0.125000 0.804200
H66 H 0.667000 0.625000 0.804200
H67 H -0.048000 0.060500 0.322700
H68 H -0.052200 0.563700 0.938900
H69 H 0.548000 0.560500 0.322700
H70 H 0.721100 0.560700 0.717700
H71 H 0.133000 0.581400 0.205600
H72 H 0.461900 0.667200 0.336900
H73 H 0.032100 0.465200 0.301400
H74 H 0.679400 0.547100 0.615200
H75 H -0.024800 0.224700 0.792500
H76 H -0.119900 0.307400 0.196400
H77 H -0.171800 0.255100 0.231500
H78 H -0.075900 0.210900 0.837900
H79 H -0.040000 0.151600 0.583300
H80 H 0.063000 0.734800 0.032700
H81 H 0.063000 0.265200 0.532700
H82 H -0.040000 0.848400 0.083300
H83 H -0.171800 0.744900 0.731500
H84 H -0.119900 0.692600 0.696400
H85 H -0.075900 0.789100 0.337900
H86 H -0.024800 0.775300 0.292500
H87 H 0.607000 0.517500 0.409600
H88 H 0.236800 0.939900 0.628400
H89 H 0.302000 0.834000 0.460000
H90 H 0.225600 0.909800 0.519600
H91 H -0.052200 0.436300 0.438900
H92 H 0.287000 0.863400 0.959800
H93 H -0.182200 0.270300 0.345100
H94 H 0.245600 0.847800 0.857800
H95 H 0.641100 1.165600 0.939000
H96 H 0.386200 0.904900 0.966900
H97 H 0.682200 1.229700 0.845100
H98 H 0.113800 0.595100 0.466900
H99 H 0.552200 1.063700 0.938900
H100 H -0.141100 0.334400 0.439000
H101 H 0.524800 0.724700 0.792500
H102 H 0.575900 0.710900 0.837900
H103 H 0.245600 0.152200 0.357800
H104 H 0.254400 0.652200 0.357800
H105 H 0.540000 0.651600 0.583300
H106 H 0.437000 0.765200 0.532700
H107 H 0.213000 0.636600 0.459800
H108 H 0.287000 0.136600 0.459800
H109 H 0.671800 1.244900 0.731500
H110 H 0.619900 1.192600 0.696400
H111 H 0.467900 1.034800 0.801400
H112 H 0.274400 0.590200 0.019600
H113 H 0.367000 0.918600 0.705600
H114 H 0.198000 0.666000 -0.040000
H115 H 0.225600 0.090200 0.019600
H116 H 0.263200 0.560100 0.128400
H117 H 0.302000 0.166000 -0.040000
H118 H 0.263200 0.439900 0.628400
H119 H -0.107000 0.982500 -0.090400
H120 H 1.167000 0.875000 0.195800
H121 H -0.179400 0.952900 0.115200
H122 H 1.048000 0.939500 0.677300
H123 H 0.038100 0.832800 -0.163100
H124 H 1.221100 0.939300 0.282300
H125 H -0.221100 0.939300 0.217700
H126 H 0.961900 0.832800 0.663100
H127 H -0.048000 0.939500 -0.177300
H128 H 1.179400 0.952900 0.384800
H129 H -0.167000 0.875000 0.304200
H130 H 0.736800 0.560100 0.371600
H131 H 0.802000 0.666000 0.540000
H132 H -0.221100 0.060700 0.717700
H133 H 0.725600 0.590200 0.480400
H134 H 0.038100 0.167200 0.336900
H135 H 0.032100 0.534800 0.801400
H136 H 0.133000 0.418600 0.705600
H137 H 0.787000 0.636600 0.040200
H138 H 0.633000 0.918600 0.794400
H139 H 0.254400 0.347800 0.857800
H140 H 0.532100 1.034800 0.698600
H141 H 0.745600 0.652200 0.142200
H142 H 1.141100 0.334400 0.061000
H143 H 0.380100 1.192600 0.803600
H144 H 0.328200 1.244900 0.768500
H145 H 0.886200 0.595100 0.033100
H146 H 0.667000 0.375000 0.304200
H147 H 0.563000 0.765200 0.967300
H148 H 1.182200 0.270300 0.154900
H149 H 0.460000 0.651600 0.916700
H150 H 0.548000 0.439500 -0.177300
H151 H 1.052200 0.436300 0.061100
H152 H 0.424100 0.710900 0.662100
H153 H 0.475200 0.724700 0.707500
H154 H 1.024800 0.775300 0.207500
H155 H 1.075900 0.789100 0.162100
H156 H 0.236800 0.060100 0.128400
H157 H 1.040000 0.848400 0.416700
H158 H 0.447800 1.063700 0.561100
H159 H 0.937000 0.734800 0.467300
H160 H 0.317800 1.229700 0.654900
H161 H 0.607000 0.482500 -0.090400
H162 H 1.171800 0.255100 0.268500
H163 H 1.119900 0.307400 0.303600
H164 H 0.540000 0.348400 0.083300
H165 H 0.613800 0.904900 0.533100
H166 H 0.679400 0.452900 0.115200
H167 H 0.358900 1.165600 0.561000
H168 H 0.967900 0.465200 0.198600
H169 H 0.867000 0.581400 0.294400
H170 H 0.461900 0.332800 -0.163100
H171 H 0.754400 0.847800 0.642200
H172 H 0.721100 0.439300 0.217700
H173 H -0.107000 0.017500 0.409600
H174 H 0.713000 0.863400 0.540200
H175 H -0.179400 0.047100 0.615200
H176 H 0.333000 0.625000 0.695800
H177 H 0.452000 0.560500 1.177300
H178 H 0.278900 0.560700 0.782300
H179 H 0.774400 0.909800 0.980400
H180 H 0.538100 0.667200 1.163100
H181 H 0.698000 0.834000 1.040000
H182 H 0.320600 0.547100 0.884800
H183 H 0.763200 0.939900 0.871600
H184 H 0.393000 0.517500 1.090400
C185 C 0.428100 0.560500 1.085500
C186 C 0.528800 0.683400 1.066000
C187 C 0.342400 0.576000 0.849800
C188 C 0.732510 0.908100 0.896300
C189 C 0.513900 0.648600 1.127900
C190 C 0.694000 0.846700 0.995500
C191 C 0.318200 0.583300 0.788400
C192 C 0.738700 0.890900 0.960300
C193 C 0.462900 0.586000 1.135900
C194 C 0.407700 0.573800 0.972600
C195 C 0.349500 0.621900 0.737200
C196 C 0.406700 0.656600 0.748400
C197 C 0.584500 0.744400 1.053900
C198 C 0.013900 0.148600 0.372100
C199 C 0.446800 0.600700 1.027000
C200 C -0.157600 0.076000 0.650200
C201 C 0.690300 0.875300 0.577500
C202 C 0.642800 0.821100 0.964300
C203 C 0.681800 0.416700 0.211600
C204 C 0.714630 0.867600 0.637260
C205 C 0.399000 0.612400 0.857000
C206 C 0.486100 0.351400 -0.127900
C207 C 0.680290 0.877700 0.868890
C208 C 0.378290 1.151100 0.600160
C209 C 0.632120 0.901000 0.573550
C210 C 0.536950 0.946100 0.619720
C211 C 0.705930 0.877900 0.755800
C212 C 0.680270 0.889000 0.690070
C213 C 0.571900 0.439500 -0.085500
C214 C 0.353990 1.189600 0.654910
C215 C 0.471200 0.316600 -0.066000
C216 C 0.430780 1.090900 0.599580
C217 C 0.383910 1.168400 0.711320
C218 C 0.267490 0.091900 0.103700
C219 C 0.456920 1.072700 0.658020
C220 C 0.600320 0.921100 0.627850
C221 C 0.899680 0.578900 0.127850
C222 C 1.043080 0.427300 0.158020
C223 C 1.116090 0.331600 0.211320
C224 C 1.069220 0.409100 0.099580
C225 C 0.537100 0.414000 -0.135900
C226 C 1.146010 0.310400 0.154910
C227 C 0.650500 0.378100 0.262800
C228 C 0.819730 0.611000 0.190070
C229 C 0.794070 0.622100 0.255800
C230 C 0.963050 0.553900 0.119720
C231 C 0.867880 0.599000 0.073550
C232 C 0.415500 0.255600 -0.053900
C233 C 1.121710 0.348900 0.100160
C234 C 0.190300 0.375300 0.922500
C235 C 0.819710 0.622300 0.368890
C236 C 1.101000 0.887600 0.357000
C237 C 0.785370 0.632400 0.137260
C238 C 0.142800 0.321100 0.535700
C239 C 0.857200 0.678900 0.464300
C240 C 0.809700 0.624700 0.077500
C241 C 0.214630 0.367600 0.862740
C242 C 1.053200 0.899300 0.527000
C243 C 1.093300 0.843400 0.248400
C244 C 1.092300 0.926200 0.472600
C245 C 0.761300 0.609100 0.460300
C246 C -0.181800 0.083300 0.711600
C247 C 0.806000 0.653300 0.495500
C248 C -0.037100 0.086000 0.364100
C249 C 0.767490 0.591900 0.396300
C250 C 0.084500 0.755600 -0.053900
C251 C 0.971200 0.816600 0.566000
C252 C 1.071900 0.939500 0.585500
C253 C -0.101000 0.112400 0.643000
C254 C 1.157600 0.924000 0.349800
C255 C -0.150500 0.878100 0.262800
C256 C 0.986100 0.851400 0.627900
C257 C -0.037100 0.914000 -0.135900
C258 C 1.181800 0.916700 0.288400
C259 C -0.181800 0.916700 0.211600
C260 C 1.037100 0.914000 0.635900
C261 C 0.013900 0.851400 -0.127900
C262 C 1.150500 0.878100 0.237200
C263 C -0.157600 0.924000 0.150200
C264 C 0.915500 0.755600 0.553900
C265 C -0.071900 0.060500 0.414500
C266 C 0.028800 0.183400 0.434000
C267 C -0.071900 0.939500 -0.085500
C268 C 0.232510 0.408100 0.603700
C269 C 0.028800 0.816600 -0.066000
C270 C 0.306000 0.153300 0.004500
C271 C 0.232510 0.591900 0.103700
C272 C 0.194000 0.653300 0.004500
C273 C 0.261300 0.109100 0.039700
C274 C 0.238700 0.609100 0.039700
C275 C 0.592300 0.426200 0.027400
C276 C 0.593300 0.343400 0.251600
C277 C -0.092300 0.926200 0.027400
C278 C -0.093300 0.843400 0.251600
C279 C 0.553200 0.399300 -0.027000
C280 C -0.053200 0.899300 -0.027000
C281 C 0.190300 0.624700 0.422500
C282 C 0.309700 0.124700 0.422500
C283 C 0.142800 0.678900 0.035700
C284 C 0.357200 0.178900 0.035700
C285 C 0.214630 0.632400 0.362740
C286 C -0.101000 0.887600 0.143000
C287 C 0.180290 0.622300 0.131110
C288 C 0.399680 0.921100 0.872150
C289 C 0.543080 1.072700 0.841980
C290 C 0.616090 1.168400 0.788680
C291 C 0.569220 1.090900 0.900420
C292 C -0.121710 0.348900 0.399840
C293 C 0.646010 1.189600 0.845090
C294 C 0.132120 0.599000 0.426450
C295 C 0.319730 0.889000 0.809930
C296 C 0.294070 0.877900 0.744200
C297 C 0.463050 0.946100 0.880280
C298 C 0.367880 0.901000 0.926450
C299 C 0.036950 0.553900 0.380280
C300 C 0.621710 1.151100 0.899840
C301 C 0.205930 0.622100 0.244200
C302 C 0.319710 0.877700 0.631110
C303 C 0.601000 0.612400 0.643000
C304 C 0.285370 0.867600 0.862740
C305 C 0.180270 0.611000 0.309930
C306 C 0.357200 0.821100 0.535700
C307 C 0.309700 0.875300 0.922500
C308 C -0.146010 0.310400 0.345090
C309 C 0.553200 0.600700 0.473000
C310 C 0.593300 0.656600 0.751600
C311 C 0.592300 0.573800 0.527400
C312 C 0.261300 0.890900 0.539700
C313 C -0.069220 0.409100 0.400420
C314 C 0.306000 0.846700 0.504500
C315 C -0.116090 0.331600 0.288680
C316 C 0.267490 0.908100 0.603700
C317 C -0.043080 0.427300 0.341980
C318 C 0.471200 0.683400 0.434000
C319 C 0.571900 0.560500 0.414500
C320 C 0.100320 0.578900 0.372150
C321 C 0.657600 0.576000 0.650200
C322 C 0.100320 0.421100 0.872150
C323 C 0.486100 0.648600 0.372100
C324 C -0.043080 0.572700 0.841980
C325 C 0.681800 0.583300 0.711600
C326 C -0.116090 0.668400 0.788680
C327 C 0.537100 0.586000 0.364100
C328 C -0.069220 0.590900 0.900420
C329 C 0.650500 0.621900 0.762800
C330 C -0.150500 0.121900 0.762800
C331 C 0.415500 0.744400 0.446100
C332 C 0.084500 0.244400 0.446100
C333 C 0.194000 0.346700 0.504500
C334 C 0.584500 0.255600 0.553900
C335 C 0.238700 0.390900 0.539700
C336 C 0.285370 0.132400 0.362740
C337 C 0.601000 0.387600 0.143000
C338 C 0.319710 0.122300 0.131110
C339 C 0.349500 0.378100 0.237200
C340 C 0.462900 0.414000 0.635900
C341 C 0.318200 0.416700 0.288400
C342 C 0.621710 -0.151100 0.399840
C343 C 0.513900 0.351400 0.627900
C344 C 0.342400 0.424000 0.349800
C345 C 0.428100 0.439500 0.585500
C346 C 0.367880 0.099000 0.426450
C347 C 0.463050 0.053900 0.380280
C348 C 0.528800 0.316600 0.566000
C349 C 0.294070 0.122100 0.244200
C350 C 0.732510 0.091900 0.396300
C351 C 0.319730 0.111000 0.309930
C352 C 0.694000 0.153300 0.495500
C353 C 0.738700 0.109100 0.460300
C354 C 0.407700 0.426200 0.472600
C355 C 0.899680 0.421100 0.627850
C356 C 1.043080 0.572700 0.658020
C357 C 1.116090 0.668400 0.711320
C358 C 1.069220 0.590900 0.599580
C359 C 0.406700 0.343400 0.248400
C360 C 1.146010 0.689600 0.654910
C361 C 0.446800 0.399300 0.527000
C362 C 0.819730 0.389000 0.690070
C363 C 0.794070 0.377900 0.755800
C364 C 0.963050 0.446100 0.619720
C365 C 0.867880 0.401000 0.573550
C366 C 0.690300 0.124700 0.077500
C367 C 1.121710 0.651100 0.600160
C368 C 0.642800 0.178900 0.464300
C369 C 0.819710 0.377700 0.868890
C370 C 1.101000 0.112400 0.857000
C371 C 0.785370 0.367600 0.637260
C372 C 0.714630 0.132400 0.137260
C373 C 0.857200 0.321100 0.964300
C374 C 0.809700 0.375300 0.577500
C375 C 0.399000 0.387600 0.357000
C376 C 1.053200 0.100700 1.027000
C377 C 1.093300 0.156600 0.748400
C378 C 1.092300 0.073800 0.972600
C379 C 0.761300 0.390900 0.960300
C380 C 0.680290 0.122300 0.368890
C381 C 0.806000 0.346700 0.995500
C382 C 0.378290 -0.151100 0.100160
C383 C 0.767490 0.408100 0.896300
C384 C 0.632120 0.099000 0.073550
C385 C 0.971200 0.183400 1.066000
C386 C 1.071900 0.060500 1.085500
C387 C 0.536950 0.053900 0.119720
C388 C 1.157600 0.076000 0.849800
C389 C 0.705930 0.122100 0.255800
C390 C 0.986100 0.148600 1.127900
C391 C 0.680270 0.111000 0.190070
C392 C 1.181800 0.083300 0.788400
C393 C 0.353990 -0.189600 0.154910
C394 C 1.037100 0.086000 1.135900
C395 C 0.430780 -0.090900 0.099580
C396 C 1.150500 0.121900 0.737200
C397 C 0.383910 -0.168400 0.211320
C398 C 0.915500 0.244400 1.053900
C399 C -0.092300 0.073800 0.527400
C400 C -0.093300 0.156600 0.751600
C401 C -0.053200 0.100700 0.473000
C402 C 0.456920 -0.072700 0.158020
C403 C 0.646010 -0.189600 0.345090
C404 C 0.600320 0.078900 0.127850
C405 C 0.569220 -0.090900 0.400420
C406 C -0.146010 0.689600 0.845090
C407 C 0.616090 -0.168400 0.288680
C408 C 0.180270 0.389000 0.809930
C409 C 0.543080 -0.072700 0.341980
C410 C 0.399680 0.078900 0.372150
C411 C 0.205930 0.377900 0.744200
C412 C 0.036950 0.446100 0.880280
C413 C 0.132120 0.401000 0.926450
C414 C -0.121710 0.651100 0.899840
C415 C 0.180290 0.377700 0.631110
C416 C 0.657600 0.424000 0.150200
N417 N 0.574010 0.383700 0.083950
N418 N 0.504900 0.341700 -0.016150
N419 N 0.560800 0.297100 0.299600
N420 N 0.407080 0.224700 0.007270
N421 N 0.569000 0.348100 0.192400
N422 N 0.638570 -0.206500 0.232200
N423 N 0.363930 0.166500 0.098700
N424 N 0.487910 -0.019600 0.336070
N425 N 0.331810 0.105200 0.195660
N426 N 0.565330 -0.110500 0.285980
N427 N 0.376060 0.082700 0.313730
N428 N 1.060800 0.202900 0.700400
N429 N 1.004900 0.158300 1.016150
N430 N 1.074010 0.116300 0.916050
N431 N 0.907080 0.275300 0.992730
N432 N 1.069000 0.151900 0.807600
N433 N 1.138570 0.706500 0.767800
N434 N 0.863930 0.333500 0.901300
N435 N 0.987910 0.519600 0.663930
N436 N 0.831810 0.394800 0.804340
N437 N 1.065330 0.610500 0.714020
N438 N 0.876060 0.417300 0.686270
N439 N 0.560800 0.702900 0.799600
N440 N 0.504900 0.658300 0.483850
N441 N 0.574010 0.616300 0.583950
N442 N 0.407080 0.775300 0.507270
N443 N 0.569000 0.651900 0.692400
N444 N 0.638570 1.206500 0.732200
N445 N 0.363930 0.833500 0.598700
N446 N 0.487910 1.019600 0.836070
N447 N 0.331810 0.894800 0.695660
N448 N 0.565330 1.110500 0.785980
N449 N 0.376060 0.917300 0.813730
N450 N 1.060800 0.797100 0.200400
N451 N 1.004900 0.841700 0.516150
N452 N 1.074010 0.883700 0.416050
N453 N 0.907080 0.724700 0.492730
N454 N 1.069000 0.848100 0.307600
N455 N 1.138570 0.293500 0.267800
N456 N 0.863930 0.666500 0.401300
N457 N 0.987910 0.480400 0.163930
N458 N 0.831810 0.605200 0.304340
N459 N 1.065330 0.389500 0.214020
N460 N 0.876060 0.582700 0.186270
N461 N 0.439200 0.702900 0.700400
N462 N 0.495100 0.658300 1.016150
N463 N 0.425990 0.616300 0.916050
N464 N 0.592920 0.775300 0.992730
N465 N 0.431000 0.651900 0.807600
N466 N 0.361430 1.206500 0.767800
N467 N 0.636070 0.833500 0.901300
N468 N 0.512090 1.019600 0.663930
N469 N 0.668190 0.894800 0.804340
N470 N 0.123940 0.417300 0.813730
N471 N -0.065330 0.610500 0.785980
N472 N 0.168190 0.394800 0.695660
N473 N 0.434670 1.110500 0.714020
N474 N 0.012090 0.519600 0.836070
N475 N 0.623940 0.917300 0.686270
N476 N 0.136070 0.333500 0.598700
N477 N -0.138570 0.706500 0.732200
N478 N -0.060800 0.797100 0.299600
N479 N -0.004900 0.841700 -0.016150
N480 N -0.069000 0.151900 0.692400
N481 N 0.092920 0.275300 0.507270
N482 N -0.074010 0.883700 0.083950
N483 N -0.074010 0.116300 0.583950
N484 N 0.092920 0.724700 0.007270
N485 N -0.004900 0.158300 0.483850
N486 N -0.060800 0.202900 0.799600
N487 N -0.069000 0.848100 0.192400
N488 N -0.138570 0.293500 0.232200
N489 N 0.136070 0.666500 0.098700
N490 N 0.012090 0.480400 0.336070
N491 N 0.168190 0.605200 0.195660
N492 N -0.065330 0.389500 0.285980
N493 N 0.123940 0.582700 0.313730
N494 N 0.439200 0.297100 0.200400
N495 N 0.495100 0.341700 0.516150
N496 N 0.425990 0.383700 0.416050
N497 N 0.592920 0.224700 0.492730
N498 N 0.431000 0.348100 0.307600
N499 N 0.361430 -0.206500 0.267800
N500 N 0.636070 0.166500 0.401300
N501 N 0.512090 -0.019600 0.163930
N502 N 0.668190 0.105200 0.304340
N503 N 0.434670 -0.110500 0.214020
N504 N 0.623940 0.082700 0.186270
O505 O 0.380480 0.236400 -0.096280
O506 O 0.637460 0.482000 0.021630
O507 O 0.488760 0.093900 0.425820
O508 O 0.243160 0.147400 0.236870
O509 O 0.880480 0.263600 1.096280
O510 O 1.137460 0.018000 0.978370
O511 O 0.988760 0.406100 0.574180
O512 O 0.743160 0.352600 0.763130
O513 O 0.380480 0.763600 0.403720
O514 O 0.637460 0.518000 0.521630
O515 O 0.488760 0.906100 0.925820
O516 O 0.243160 0.852600 0.736870
O517 O 0.880480 0.736400 0.596280
O518 O 1.137460 0.982000 0.478370
O519 O 0.988760 0.593900 0.074180
O520 O 0.743160 0.647400 0.263130
O521 O 0.619520 0.763600 1.096280
O522 O 0.362540 0.518000 0.978370
O523 O 0.511240 0.906100 0.574180
O524 O 0.756840 0.852600 0.763130
O525 O 0.119520 0.736400 -0.096280
O526 O -0.137460 0.982000 0.021630
O527 O 0.011240 0.593900 0.425820
O528 O 0.256840 0.647400 0.236870
O529 O 0.619520 0.236400 0.596280
O530 O 0.362540 0.482000 0.478370
O531 O 0.511240 0.093900 0.074180
O532 O 0.756840 0.147400 0.263130
O533 O 0.256840 0.352600 0.736870
O534 O 0.011240 0.406100 0.925820
O535 O -0.137460 0.018000 0.521630
O536 O 0.119520 0.263600 0.403720

#END
