./LABHEE_from_POSCAR.cif_generated_by_CrystalShift
_symmetry_cell_setting triclinic
_symmetry_space_group_name_H-M 'P 1'
loop_
_symmetry_equiv_pos_site_id
_symmetry_equiv_pos_as_xyz
1 x,y,z
_cell_length_a 31.530000
_cell_length_b 4.779000
_cell_length_c 12.837000
_cell_angle_alpha 90.000000
_cell_angle_beta 100.970000
_cell_angle_gamma 90.000000
_cell_volume 1898.957559
loop_
_atom_site_label
_atom_site_type_symbol
_atom_site_fract_x
_atom_site_fract_y
_atom_site_fract_z
H1 H 0.168700 0.477100 0.796900
H2 H 0.150000 0.630000 0.401000
H3 H 0.484600 -0.296000 0.730000
H4 H 0.162200 0.170500 0.333700
H5 H 0.538800 0.151500 0.629100
H6 H 0.134200 0.063400 0.157700
H7 H 0.413200 -0.446400 0.708500
H8 H 0.088100 0.352200 0.061100
H9 H 0.105200 0.619400 0.133700
H10 H 0.285500 0.392600 0.554600
H11 H 0.133300 0.635300 -0.042800
H12 H 0.211100 0.443700 0.560700
H13 H 0.205700 0.469500 0.010900
H14 H 0.224700 -0.078500 0.809300
H15 H 0.203900 0.114800 0.150800
H16 H 0.296100 -0.385200 0.849200
H17 H 0.294300 -0.030500 0.989100
H18 H 0.275300 0.421500 0.190700
H19 H 0.366700 0.135300 1.042800
H20 H 0.394800 0.119400 0.866300
H21 H 0.288900 0.943700 0.439300
H22 H 0.411900 -0.147800 0.938900
H23 H 0.214500 0.892600 0.445400
H24 H 0.365800 -0.436600 0.842300
H25 H 0.337800 -0.329500 0.666300
H26 H 0.086800 0.053600 0.291500
H27 H 0.160400 0.603700 0.679300
H28 H 0.350000 0.130000 0.599000
H29 H 0.015400 0.204000 0.270000
H30 H 0.122300 0.444400 0.721300
H31 H 0.447700 -0.328100 0.462300
H32 H 0.042600 -0.013600 0.431700
H33 H 0.052300 0.171900 0.537700
H34 H 0.831300 0.477100 0.203100
H35 H 0.109800 0.405200 0.477700
H36 H 0.839600 0.603700 0.320700
H37 H 0.877700 0.444400 0.278700
H38 H -0.038800 0.651500 0.370900
H39 H 0.632000 -0.510000 0.555000
H40 H -0.089300 0.985600 0.288700
H41 H 0.589300 0.485600 0.711300
H42 H -0.088200 1.129200 0.117900
H43 H 0.513200 0.112500 0.109300
H44 H -0.036800 0.951000 0.024700
H45 H 0.463200 0.451000 0.024700
H46 H 0.013200 0.612500 0.109300
H47 H 0.411800 0.629200 0.117900
H48 H 0.132000 -0.010000 0.555000
H49 H 0.368000 -0.510000 0.445000
H50 H 0.410700 0.485600 0.288700
H51 H 0.377700 0.944400 0.278700
H52 H 0.339600 1.103700 0.320700
H53 H 0.331300 0.977100 0.203100
H54 H 0.390200 -0.094800 0.522300
H55 H 0.850000 0.630000 0.599000
H56 H 0.461200 0.151500 0.370900
H57 H 0.837800 0.170500 0.666300
H58 H 0.609800 -0.094800 0.477700
H59 H 0.865800 0.063400 0.842300
H60 H 0.552300 -0.328100 0.537700
H61 H 0.911900 0.352200 0.938900
H62 H 0.894800 0.619400 0.866300
H63 H 0.542600 -0.513600 0.431700
H64 H 0.866700 0.635300 1.042800
H65 H 0.515400 -0.296000 0.270000
H66 H 0.794300 0.469500 0.989100
H67 H 0.588200 0.629200 0.882100
H68 H 0.796100 0.114800 0.849200
H69 H 0.586800 -0.446400 0.291500
H70 H 0.714500 0.392600 0.445400
H71 H 0.724700 0.421500 0.809300
H72 H 0.788900 0.443700 0.439300
H73 H 0.775300 -0.078500 0.190700
H74 H 0.711100 0.943700 0.560700
H75 H 0.703900 -0.385200 0.150800
H76 H 0.785500 0.892600 0.554600
H77 H 0.705700 -0.030500 0.010900
H78 H 0.633300 0.135300 -0.042800
H79 H 0.913200 0.053600 0.708500
H80 H 0.486800 0.112500 0.890700
H81 H 0.605200 0.119400 0.133700
H82 H 0.984600 0.204000 0.730000
H83 H 0.588100 -0.147800 0.061100
H84 H 0.634200 -0.436600 0.157700
H85 H 0.957400 -0.013600 0.568300
H86 H 0.947700 0.171900 0.462300
H87 H 0.662200 -0.329500 0.333700
H88 H 0.890200 0.405200 0.522300
H89 H 0.650000 0.130000 0.401000
H90 H 0.668700 0.977100 0.796900
H91 H 1.038800 0.651500 0.629100
H92 H 0.660400 1.103700 0.679300
H93 H 1.089300 0.985600 0.711300
H94 H 0.622300 0.944400 0.721300
H95 H 1.088200 1.129200 0.882100
H96 H 0.457400 -0.513600 0.568300
H97 H 1.036800 0.951000 0.975300
H98 H 0.868000 -0.010000 0.445000
H99 H 0.986800 0.612500 0.890700
H100 H 0.536800 0.451000 0.975300
C101 C 1.007400 0.692000 0.854000
C102 C 0.537300 0.390000 0.905100
C103 C 0.653500 0.949000 0.723500
C104 C 1.067700 0.996000 0.849100
C105 C 1.068400 0.911000 0.748200
C106 C 1.038200 0.714000 0.699100
C107 C 0.401600 -0.274000 0.556900
C108 C 1.007900 0.612000 0.752400
C109 C 0.640800 -0.197000 0.292500
C110 C 0.901600 0.226000 0.556900
C111 C 0.642900 -0.239000 0.176700
C112 C 0.947300 0.172000 0.539200
C113 C 0.614200 -0.048000 0.097700
C114 C 0.507400 0.192000 0.854000
C115 C 0.975600 0.392000 0.699200
C116 C 0.643100 0.033000 0.020600
C117 C 0.902600 0.238000 0.676700
C118 C 0.683600 -0.056000 0.051100
C119 C 0.798700 0.625000 0.678800
C120 C 0.690100 -0.199000 0.155700
C121 C 0.773400 0.796000 0.606500
C122 C 0.718200 -0.021000 0.242500
C123 C 0.762500 0.015000 0.242200
C124 C 0.729100 0.826000 0.609900
C125 C 0.787200 0.184000 0.315400
C126 C 0.770900 0.326000 0.390100
C127 C 0.712800 0.684000 0.684600
C128 C 0.726600 0.296000 0.393500
C129 C 0.737500 0.515000 0.757800
C130 C 0.701300 0.125000 0.321200
C131 C 0.597400 -0.262000 0.323300
C132 C 0.781800 0.479000 0.757500
C133 C 0.809900 0.301000 0.844300
C134 C 0.524400 -0.108000 0.300800
C135 C 0.816400 0.444000 0.948900
C136 C 0.567700 0.496000 0.849100
C137 C 0.552700 -0.328000 0.460800
C138 C 0.856900 0.533000 0.979400
C139 C 0.885800 0.452000 0.902300
C140 C 0.598400 -0.274000 0.443100
C141 C 0.857100 0.261000 0.823300
C142 C 0.492100 0.112000 0.247600
C143 C 0.461800 0.214000 0.300900
C144 C 0.859200 0.303000 0.707500
C145 C 0.431600 0.411000 0.251800
C146 C 0.346500 0.949000 0.276500
C147 C 0.432300 0.496000 0.150900
C148 C 0.153500 0.449000 0.723500
C149 C 0.462700 0.390000 0.094900
C150 C -0.007400 0.692000 0.146000
C151 C 0.492600 0.192000 0.146000
C152 C -0.037300 0.890000 0.094900
C153 C -0.067700 0.996000 0.150900
C154 C -0.068400 0.911000 0.251800
C155 C 0.568400 0.411000 0.748200
C156 C 0.846500 0.449000 0.276500
C157 C -0.038200 0.714000 0.300900
C158 C -0.007900 0.612000 0.247600
C159 C 0.098400 0.226000 0.443100
C160 C 0.052700 0.172000 0.460800
C161 C 0.024400 0.392000 0.300800
C162 C 0.359200 -0.197000 0.707500
C163 C 0.097400 0.238000 0.323300
C164 C 0.357100 -0.239000 0.823300
C165 C 0.201300 0.625000 0.321200
C166 C 0.385800 -0.048000 0.902300
C167 C 0.226600 0.796000 0.393500
C168 C 0.270900 0.826000 0.390100
C169 C 0.356900 0.033000 0.979400
C170 C 0.287200 0.684000 0.315400
C171 C 0.316400 -0.056000 0.948900
C172 C 0.262500 0.515000 0.242200
C173 C 0.309900 -0.199000 0.844300
C174 C 0.218200 0.479000 0.242500
C175 C 0.281800 -0.021000 0.757500
C176 C 0.237500 0.015000 0.757800
C177 C 0.190100 0.301000 0.155700
C178 C 0.212800 0.184000 0.684600
C179 C 0.229100 0.326000 0.609900
C180 C 0.183600 0.444000 0.051100
C181 C 0.273400 0.296000 0.606500
C182 C 0.143100 0.533000 0.020600
C183 C 0.298700 0.125000 0.678800
C184 C 0.402600 -0.262000 0.676700
C185 C 0.114200 0.452000 0.097700
C186 C 0.142900 0.261000 0.176700
C187 C 0.475600 -0.108000 0.699200
C188 C 0.140800 0.303000 0.292500
C189 C 0.538200 0.214000 0.699100
C190 C 0.447300 -0.328000 0.539200
C191 C 1.037300 0.890000 0.905100
C192 C 0.507900 0.112000 0.752400
N193 N 0.843800 0.587000 0.675900
N194 N 0.656200 0.087000 0.324100
N195 N 0.343800 0.087000 0.675900
N196 N 0.156200 0.587000 0.324100
O197 O 0.434200 -0.043000 0.720800
O198 O 0.833000 0.191000 0.315600
O199 O 0.625900 -0.503000 0.484200
O200 O 0.524400 -0.113000 0.408800
O201 O 0.565800 -0.043000 0.279200
O202 O 0.667000 0.691000 0.684400
O203 O 0.874100 -0.003000 0.515800
O204 O 0.975600 0.387000 0.591200
O205 O 0.934200 0.457000 0.720800
O206 O 0.374100 -0.503000 0.515800
O207 O 0.333000 0.691000 0.315600
O208 O 0.167000 0.191000 0.684400
O209 O 0.125900 -0.003000 0.484200
O210 O 0.024400 0.387000 0.408800
O211 O 0.065800 0.457000 0.279200
O212 O 0.475600 -0.113000 0.591200

#END
