./LABKOR_from_POSCAR.cif_generated_by_CrystalShift
_symmetry_cell_setting triclinic
_symmetry_space_group_name_H-M 'P 1'
loop_
_symmetry_equiv_pos_site_id
_symmetry_equiv_pos_as_xyz
1 x,y,z
_cell_length_a 10.313200
_cell_length_b 12.581300
_cell_length_c 14.217000
_cell_angle_alpha 95.914000
_cell_angle_beta 107.501000
_cell_angle_gamma 98.169000
_cell_volume 1720.580368
loop_
_atom_site_label
_atom_site_type_symbol
_atom_site_fract_x
_atom_site_fract_y
_atom_site_fract_z
H1 H -0.079000 0.375500 0.196200
H2 H 0.118300 0.367300 0.168900
H3 H 0.456000 0.502000 0.204000
H4 H 0.311700 0.356800 0.307900
H5 H 0.318000 0.481300 0.292300
H6 H 0.302400 0.874600 0.592600
H7 H 0.173900 0.980600 0.490100
H8 H 0.771300 0.171700 0.256700
H9 H -0.043300 0.906800 0.377600
H10 H 0.608800 0.163000 0.088000
H11 H -0.135300 0.723700 0.367700
H12 H -0.006500 0.615400 0.468300
H13 H 0.103900 0.196200 0.391500
H14 H 0.028500 0.066000 0.248100
H15 H 0.201800 0.380100 -0.071100
H16 H 0.187000 0.012700 0.173300
H17 H 0.131800 0.547100 -0.016600
H18 H 0.421700 0.085000 0.244700
H19 H 0.498600 0.209300 0.391000
H20 H 0.903200 0.266800 0.770600
H21 H 1.070300 0.169400 0.848200
H22 H 0.347100 0.871600 0.294100
H23 H 1.076800 0.116200 1.002200
H24 H 0.526900 0.892700 0.458400
H25 H 0.914900 0.158300 1.076500
H26 H 0.746100 0.254800 0.998100
H27 H 0.586600 0.658000 1.122600
H28 H 0.655600 0.788400 1.264400
H29 H 0.658200 0.539700 0.353400
H30 H 0.729100 0.970300 1.255800
H31 H 0.730800 1.020400 1.102100
H32 H 0.797200 0.405100 0.602700
H33 H 0.658500 0.891900 0.959500
H34 H 0.202800 0.594900 0.397300
H35 H 0.341800 0.460300 0.646600
H36 H 0.341500 0.108100 0.040500
H37 H 0.473100 0.107300 0.541600
H38 H 0.269200 -0.020400 -0.102100
H39 H 0.652900 0.128400 0.705900
H40 H 0.270900 0.029700 -0.255800
H41 H 0.868200 0.452900 1.016600
H42 H 0.344400 0.211600 -0.264400
H43 H 0.798200 0.619900 1.071100
H44 H 0.413400 0.342000 -0.122600
H45 H 0.391200 0.837000 0.912000
H46 H 0.228700 0.828300 0.743300
H47 H 0.253900 0.745200 0.001900
H48 H 0.544000 0.498000 0.796000
H49 H 0.085100 0.841700 -0.076500
H50 H 1.079000 0.624500 0.803800
H51 H -0.076800 0.883800 -0.002200
H52 H 0.997400 0.580800 0.684400
H53 H -0.070300 0.830600 0.151800
H54 H 0.881700 0.632700 0.831100
H55 H 0.096800 0.733200 0.229400
H56 H 0.688300 0.643200 0.692100
H57 H 0.682000 0.518700 0.707700
H58 H 0.501400 0.790700 0.609000
H59 H 0.697600 0.125400 0.407400
H60 H 0.578300 0.915000 0.755300
H61 H 0.826100 0.019400 0.509900
H62 H 0.813000 0.987300 0.826700
H63 H 1.043300 0.093200 0.622400
H64 H 0.971500 0.934000 0.751900
H65 H 1.135300 0.276300 0.632300
H66 H 0.896100 0.803800 0.608500
H67 H 1.006500 0.384600 0.531700
H68 H 0.002600 0.419200 0.315600
C69 C 0.838000 0.268390 0.459610
C70 C 1.045900 0.245800 0.587100
C71 C 0.831100 0.827200 0.637400
C72 C 0.991800 0.137500 0.580900
C73 C 0.876000 0.903600 0.723100
C74 C 0.862900 0.094000 0.514300
C75 C 0.781600 0.935800 0.767200
C76 C 0.785900 0.157100 0.453500
C77 C 0.642700 0.893200 0.724900
C78 C 0.735700 0.580400 0.689500
C79 C 0.597500 0.818900 0.638400
C80 C 0.690200 0.784510 0.593190
C81 C 0.877100 0.608600 0.764400
C82 C 0.094900 0.754900 0.167000
C83 C 0.995200 0.604200 0.749500
C84 C -0.004600 0.812700 0.121000
C85 C -0.008200 0.844600 0.029800
C86 C 0.004800 0.395800 0.250500
C87 C 0.122900 0.391400 0.235600
C88 C 0.087300 0.819600 -0.014200
C89 C 0.264300 0.419600 0.310500
C90 C 0.686500 0.309680 0.298500
C91 C 0.313500 0.690320 0.701500
C92 C 0.292800 0.781200 0.763800
C93 C 0.187600 0.761800 0.032500
C94 C 0.380700 0.786000 0.854900
C95 C 0.192100 0.728100 0.123200
C96 C 0.458300 0.697670 0.850700
C97 C 0.567000 0.678540 0.932800
C98 C 0.635100 0.590070 0.932700
C99 C 0.753500 0.573400 1.009200
C100 C 0.385000 0.268200 -0.117700
C101 C 0.791500 0.481500 0.979400
C102 C 0.343300 0.190600 -0.202400
C103 C 0.698500 0.433340 0.883100
C104 C 0.701700 0.335870 0.827720
C105 C 0.611900 0.291700 0.729900
C106 C 0.601200 0.181600 0.679900
C107 C 0.299900 0.082800 -0.197500
C108 C 0.504500 0.170500 0.590800
C109 C 0.299400 0.053400 -0.106200
C110 C 0.455800 0.274110 0.583100
C111 C 0.360800 0.298390 0.499100
C112 C 0.313500 0.400250 0.499200
C113 C 0.313100 0.471460 0.578900
C114 C 0.342000 0.130000 -0.021400
C115 C 0.263300 0.563960 0.544460
C116 C 0.236200 0.545600 0.441200
C117 C 0.386000 0.239350 -0.025000
C118 C 0.247900 0.660720 0.599700
C119 C 0.614000 0.760650 1.025000
C120 C 0.658000 0.870000 1.021400
C121 C 0.752100 0.339280 0.400300
C122 C 0.700600 0.946600 1.106200
C123 C 0.763800 0.454400 0.558800
C124 C 0.700100 0.917200 1.197500
C125 C 0.736700 0.436040 0.455540
C126 C 0.656700 0.809400 1.202400
C127 C 0.686900 0.528540 0.421100
C128 C 0.615000 0.731800 1.117700
C129 C 0.686500 0.599750 0.500800
C130 C 0.807900 0.271900 0.876800
C131 C 0.812400 0.238200 0.967500
C132 C 0.639200 0.701610 0.500900
C133 C 0.912700 0.180400 1.014200
C134 C 0.544200 0.725890 0.416900
C135 C 1.008200 0.155400 0.970200
C136 C 0.495500 0.829500 0.409200
C137 C 1.004600 0.187300 0.879000
C138 C 0.398800 0.818400 0.320100
C139 C 0.905100 0.245100 0.833000
C140 C 0.388100 0.708300 0.270100
C141 C 0.309800 0.215490 0.406810
C142 C 0.402500 0.181100 0.361600
C143 C 0.298300 0.664130 0.172280
C144 C 0.357300 0.106800 0.275100
C145 C 0.301500 0.566660 0.116900
C146 C 0.218400 0.064200 0.232800
C147 C 0.208500 0.518500 0.020600
C148 C 0.124000 0.096400 0.276900
C149 C 0.246500 0.426600 -0.009200
C150 C 0.168900 0.172800 0.362600
C151 C 0.364900 0.409930 0.067300
C152 C 0.162000 0.731610 0.540390
C153 C 0.031300 0.689900 0.473200
C154 C 0.433000 0.321460 0.067200
C155 C -0.045900 0.754200 0.412900
C156 C 0.541700 0.302330 0.149300
C157 C 0.008200 0.862500 0.419100
C158 C 0.619300 0.214000 0.145100
C159 C 0.137100 0.906000 0.485700
C160 C 0.707200 0.218800 0.236200
C161 C 0.214100 0.842900 0.546500
C162 C 0.968700 0.310100 0.526800
N163 N 0.736200 0.550920 0.587050
N164 N 0.477400 0.654970 0.328980
N165 N 0.604200 0.502540 0.856610
N166 N 0.395800 0.497460 0.143390
N167 N 0.414100 0.639350 0.758870
N168 N 0.522600 0.345030 0.671020
N169 N 0.263800 0.449080 0.412950
N170 N 0.585900 0.360650 0.241130

#END
