
#######################################################################
#
#                 Cambridge Crystallographic Data Centre
#                                CCDC 
#
#######################################################################
#
# If this CIF has been generated from an entry in the Cambridge 
# Structural Database, then it will include bibliographic, chemical, 
# crystal, experimental, refinement or atomic coordinate data resulting 
# from the CCDC's data processing and validation procedures.
#
#######################################################################

data_LABMEJ
_symmetry_cell_setting           monoclinic
_symmetry_space_group_name_H-M   'P 21/c'
_symmetry_Int_Tables_number      14
_space_group_name_Hall           '-P 2ybc'
loop_
_symmetry_equiv_pos_site_id
_symmetry_equiv_pos_as_xyz
1 x,y,z
2 -x,1/2+y,1/2-z
3 -x,-y,-z
4 x,1/2-y,1/2+z
_cell_length_a                   7.6171(9)
_cell_length_b                   21.660(3)
_cell_length_c                   13.2670(17)
_cell_angle_alpha                90
_cell_angle_beta                 101.311(4)
_cell_angle_gamma                90
_cell_volume                     2146.36
loop_
_atom_site_label
_atom_site_type_symbol
_atom_site_fract_x
_atom_site_fract_y
_atom_site_fract_z
N1 N 0.2833(3) 0.47197(9) 0.56985(15)
C1 C 0.3513(3) 0.38950(11) 0.28709(18)
C2 C 0.2566(3) 0.50782(11) 0.48519(18)
C3 C 0.2571(3) 0.49585(12) 0.65767(19)
C4 C 0.3398(3) 0.42086(11) 0.38259(19)
H1 H 0.3832 0.3999 0.4436
C5 C 0.2726(3) 0.47690(11) 0.39005(19)
H2 H 0.2321 0.4982 0.3291
C6 C 0.1920(3) 0.55583(11) 0.66793(18)
C7 C 0.2023(3) 0.56943(11) 0.48864(18)
C8 C 0.3261(4) 0.41971(13) 0.1931(2)
H3 H 0.2974 0.4615 0.1900
C9 C 0.0583(4) 0.65722(11) 0.3850(2)
C10 C 0.1569(3) 0.59218(11) 0.57915(19)
C11 C 0.1718(3) 0.57575(12) 0.77184(19)
C12 C 0.3835(4) 0.32773(14) 0.1097(2)
C13 C 0.3935(4) 0.32717(12) 0.2882(2)
H4 H 0.4122 0.3059 0.3503
C14 C 0.3138(4) 0.61052(12) 0.3351(2)
H5 H 0.4099 0.5832 0.3486
C15 C 0.0635(4) 0.65401(12) 0.5712(2)
H6 H 0.1522 0.6866 0.5845
H7 H -0.0102 0.6566 0.6230
C16 C 0.4084(4) 0.29591(14) 0.1999(2)
H8 H 0.4350 0.2540 0.2018
C17 C 0.2921(4) 0.45357(13) 0.7489(2)
H9 H 0.4108 0.4614 0.7890
H10 H 0.2878 0.4110 0.7257
C18 C 0.1910(3) 0.61191(11) 0.40036(19)
C19 C 0.3425(4) 0.38942(15) 0.1049(2)
H11 H 0.3262 0.4104 0.0426
N2 N 0.4068(4) 0.29601(16) 0.0165(2)
C20 C 0.1801(4) 0.63697(14) 0.8040(2)
H12 H 0.1956 0.6677 0.7576
C21 C 0.2949(4) 0.64903(13) 0.2509(2)
H13 H 0.3769 0.6474 0.2074
C22 C 0.1564(4) 0.53012(14) 0.8452(2)
C23 C -0.0531(4) 0.66332(13) 0.4655(2)
H14 H -0.1481 0.6328 0.4539
H15 H -0.1076 0.7040 0.4614
C24 C 0.1488(4) 0.54770(16) 0.9446(2)
H16 H 0.1425 0.5175 0.9935
O1 O 0.4630(4) 0.24316(14) 0.0244(2)
O2 O 0.3747(5) 0.32362(16) -0.0650(2)
C25 C 0.0388(4) 0.69477(13) 0.2990(2)
H17 H -0.0532 0.7237 0.2866
C26 C 0.1550(4) 0.46334(13) 0.8151(2)
H18 H 0.0372 0.4519 0.7774
H19 H 0.1832 0.4377 0.8761
C27 C 0.1541(5) 0.68973(14) 0.2317(2)
H20 H 0.1367 0.7140 0.1728
C28 C 0.1662(4) 0.65338(16) 0.9019(2)
H21 H 0.1675 0.6948 0.9203
C29 C 0.1504(5) 0.60885(18) 0.9726(2)
H22 H 0.1408 0.6198 1.0391
N1 N 0.7167(3) -0.02803(9) -0.06985(15)
C1 C 0.6487(3) -0.11050(11) 0.21291(18)
C2 C 0.7434(3) 0.00782(11) 0.01481(18)
C3 C 0.7429(3) -0.00415(12) -0.15767(19)
C4 C 0.6602(3) -0.07914(11) 0.11741(19)
H1 H 0.6168 -0.1001 0.0564
C5 C 0.7274(3) -0.02310(11) 0.10995(19)
H2 H 0.7679 -0.0018 0.1709
C6 C 0.8080(3) 0.05583(11) -0.16793(18)
C7 C 0.7977(3) 0.06943(11) 0.01136(18)
C8 C 0.6739(4) -0.08029(13) 0.3069(2)
H3 H 0.7026 -0.0385 0.3100
C9 C 0.9417(4) 0.15722(11) 0.1150(2)
C10 C 0.8431(3) 0.09218(11) -0.07915(19)
C11 C 0.8282(3) 0.07575(12) -0.27184(19)
C12 C 0.6165(4) -0.17227(14) 0.3903(2)
C13 C 0.6065(4) -0.17283(12) 0.2118(2)
H4 H 0.5878 -0.1941 0.1497
C14 C 0.6862(4) 0.11052(12) 0.1649(2)
H5 H 0.5901 0.0832 0.1514
C15 C 0.9365(4) 0.15401(12) -0.0712(2)
H6 H 0.8478 0.1866 -0.0845
H7 H 1.0102 0.1566 -0.1230
C16 C 0.5916(4) -0.20409(14) 0.3001(2)
H8 H 0.5650 -0.2460 0.2982
C17 C 0.7079(4) -0.04643(13) -0.2489(2)
H9 H 0.5892 -0.0386 -0.2890
H10 H 0.7122 -0.0890 -0.2257
C18 C 0.8090(3) 0.11191(11) 0.09964(19)
C19 C 0.6575(4) -0.11058(15) 0.3951(2)
H11 H 0.6738 -0.0896 0.4574
N2 N 0.5932(4) -0.20399(16) 0.4835(2)
C20 C 0.8199(4) 0.13697(14) -0.3040(2)
H12 H 0.8044 0.1677 -0.2576
C21 C 0.7051(4) 0.14903(13) 0.2491(2)
H13 H 0.6231 0.1474 0.2926
C22 C 0.8436(4) 0.03012(14) -0.3452(2)
C23 C 1.0531(4) 0.16332(13) 0.0345(2)
H14 H 1.1481 0.1328 0.0461
H15 H 1.1076 0.2040 0.0386
C24 C 0.8512(4) 0.04770(16) -0.4446(2)
H16 H 0.8575 0.0175 -0.4935
O1 O 0.5370(4) -0.25684(14) 0.4756(2)
O2 O 0.6253(5) -0.17638(16) 0.5650(2)
C25 C 0.9612(4) 0.19477(13) 0.2010(2)
H17 H 1.0532 0.2237 0.2134
C26 C 0.8450(4) -0.03666(13) -0.3151(2)
H18 H 0.9628 -0.0481 -0.2774
H19 H 0.8168 -0.0623 -0.3761
C27 C 0.8459(5) 0.18973(14) 0.2683(2)
H20 H 0.8633 0.2140 0.3272
C28 C 0.8338(4) 0.15338(16) -0.4019(2)
H21 H 0.8325 0.1948 -0.4203
C29 C 0.8496(5) 0.10885(18) -0.4726(2)
H22 H 0.8592 0.1198 -0.5391
N1 N 0.7167(3) 0.52803(9) 0.43015(15)
C1 C 0.6487(3) 0.61050(11) 0.71291(18)
C2 C 0.7434(3) 0.49218(11) 0.51481(18)
C3 C 0.7429(3) 0.50415(12) 0.34233(19)
C4 C 0.6602(3) 0.57914(11) 0.61741(19)
H1 H 0.6168 0.6001 0.5564
C5 C 0.7274(3) 0.52310(11) 0.60995(19)
H2 H 0.7679 0.5018 0.6709
C6 C 0.8080(3) 0.44417(11) 0.33207(18)
C7 C 0.7977(3) 0.43057(11) 0.51136(18)
C8 C 0.6739(4) 0.58029(13) 0.8069(2)
H3 H 0.7026 0.5385 0.8100
C9 C 0.9417(4) 0.34278(11) 0.6150(2)
C10 C 0.8431(3) 0.40782(11) 0.42085(19)
C11 C 0.8282(3) 0.42425(12) 0.22816(19)
C12 C 0.6165(4) 0.67227(14) 0.8903(2)
C13 C 0.6065(4) 0.67283(12) 0.7118(2)
H4 H 0.5878 0.6941 0.6497
C14 C 0.6862(4) 0.38948(12) 0.6649(2)
H5 H 0.5901 0.4168 0.6514
C15 C 0.9365(4) 0.34599(12) 0.4288(2)
H6 H 0.8478 0.3134 0.4155
H7 H 1.0102 0.3434 0.3770
C16 C 0.5916(4) 0.70409(14) 0.8001(2)
H8 H 0.5650 0.7460 0.7982
C17 C 0.7079(4) 0.54643(13) 0.2511(2)
H9 H 0.5892 0.5386 0.2110
H10 H 0.7122 0.5890 0.2743
C18 C 0.8090(3) 0.38809(11) 0.59964(19)
C19 C 0.6575(4) 0.61058(15) 0.8951(2)
H11 H 0.6738 0.5896 0.9574
N2 N 0.5932(4) 0.70399(16) 0.9835(2)
C20 C 0.8199(4) 0.36303(14) 0.1960(2)
H12 H 0.8044 0.3323 0.2424
C21 C 0.7051(4) 0.35097(13) 0.7491(2)
H13 H 0.6231 0.3526 0.7926
C22 C 0.8436(4) 0.46988(14) 0.1548(2)
C23 C 1.0531(4) 0.33668(13) 0.5345(2)
H14 H 1.1481 0.3672 0.5461
H15 H 1.1076 0.2960 0.5386
C24 C 0.8512(4) 0.45230(16) 0.0554(2)
H16 H 0.8575 0.4825 0.0065
O1 O 0.5370(4) 0.75684(14) 0.9756(2)
O2 O 0.6253(5) 0.67638(16) 1.0650(2)
C25 C 0.9612(4) 0.30523(13) 0.7010(2)
H17 H 1.0532 0.2763 0.7134
C26 C 0.8450(4) 0.53666(13) 0.1849(2)
H18 H 0.9628 0.5481 0.2226
H19 H 0.8168 0.5623 0.1239
C27 C 0.8459(5) 0.31027(14) 0.7683(2)
H20 H 0.8633 0.2860 0.8272
C28 C 0.8338(4) 0.34662(16) 0.0981(2)
H21 H 0.8325 0.3052 0.0797
C29 C 0.8496(5) 0.39115(18) 0.0274(2)
H22 H 0.8592 0.3802 -0.0391
N1 N 0.2833(3) 1.02803(9) 1.06985(15)
C1 C 0.3513(3) 1.11050(11) 0.78709(18)
C2 C 0.2566(3) 0.99218(11) 0.98519(18)
C3 C 0.2571(3) 1.00415(12) 1.15767(19)
C4 C 0.3398(3) 1.07914(11) 0.88259(19)
H1 H 0.3832 1.1001 0.9436
C5 C 0.2726(3) 1.02310(11) 0.89005(19)
H2 H 0.2321 1.0018 0.8291
C6 C 0.1920(3) 0.94417(11) 1.16793(18)
C7 C 0.2023(3) 0.93057(11) 0.98864(18)
C8 C 0.3261(4) 1.08029(13) 0.6931(2)
H3 H 0.2974 1.0385 0.6900
C9 C 0.0583(4) 0.84278(11) 0.8850(2)
C10 C 0.1569(3) 0.90782(11) 1.07915(19)
C11 C 0.1718(3) 0.92425(12) 1.27184(19)
C12 C 0.3835(4) 1.17227(14) 0.6097(2)
C13 C 0.3935(4) 1.17283(12) 0.7882(2)
H4 H 0.4122 1.1941 0.8503
C14 C 0.3138(4) 0.88948(12) 0.8351(2)
H5 H 0.4099 0.9168 0.8486
C15 C 0.0635(4) 0.84599(12) 1.0712(2)
H6 H 0.1522 0.8134 1.0845
H7 H -0.0102 0.8434 1.1230
C16 C 0.4084(4) 1.20409(14) 0.6999(2)
H8 H 0.4350 1.2460 0.7018
C17 C 0.2921(4) 1.04643(13) 1.2489(2)
H9 H 0.4108 1.0386 1.2890
H10 H 0.2878 1.0890 1.2257
C18 C 0.1910(3) 0.88809(11) 0.90036(19)
C19 C 0.3425(4) 1.11058(15) 0.6049(2)
H11 H 0.3262 1.0896 0.5426
N2 N 0.4068(4) 1.20399(16) 0.5165(2)
C20 C 0.1801(4) 0.86303(14) 1.3040(2)
H12 H 0.1956 0.8323 1.2576
C21 C 0.2949(4) 0.85097(13) 0.7509(2)
H13 H 0.3769 0.8526 0.7074
C22 C 0.1564(4) 0.96988(14) 1.3452(2)
C23 C -0.0531(4) 0.83668(13) 0.9655(2)
H14 H -0.1481 0.8672 0.9539
H15 H -0.1076 0.7960 0.9614
C24 C 0.1488(4) 0.95230(16) 1.4446(2)
H16 H 0.1425 0.9825 1.4935
O1 O 0.4630(4) 1.25684(14) 0.5244(2)
O2 O 0.3747(5) 1.17638(16) 0.4350(2)
C25 C 0.0388(4) 0.80523(13) 0.7990(2)
H17 H -0.0532 0.7763 0.7866
C26 C 0.1550(4) 1.03666(13) 1.3151(2)
H18 H 0.0372 1.0481 1.2774
H19 H 0.1832 1.0623 1.3761
C27 C 0.1541(5) 0.81027(14) 0.7317(2)
H20 H 0.1367 0.7860 0.6728
C28 C 0.1662(4) 0.84662(16) 1.4019(2)
H21 H 0.1675 0.8052 1.4203
C29 C 0.1504(5) 0.89115(18) 1.4726(2)
H22 H 0.1408 0.8802 1.5391

#END
