
#######################################################################
#
#                 Cambridge Crystallographic Data Centre
#                                CCDC 
#
#######################################################################
#
# If this CIF has been generated from an entry in the Cambridge 
# Structural Database, then it will include bibliographic, chemical, 
# crystal, experimental, refinement or atomic coordinate data resulting 
# from the CCDC's data processing and validation procedures.
#
#######################################################################

data_LACCAT
_symmetry_cell_setting           monoclinic
_symmetry_space_group_name_H-M   'P 21'
_symmetry_Int_Tables_number      4
_space_group_name_Hall           'P 2yb'
loop_
_symmetry_equiv_pos_site_id
_symmetry_equiv_pos_as_xyz
1 x,y,z
2 -x,1/2+y,-z
_cell_length_a                   7.185(2)
_cell_length_b                   10.850(6)
_cell_length_c                   9.600(4)
_cell_angle_alpha                90
_cell_angle_beta                 105.80(4)
_cell_angle_gamma                90
_cell_volume                     720.114
loop_
_atom_site_label
_atom_site_type_symbol
_atom_site_fract_x
_atom_site_fract_y
_atom_site_fract_z
N1 N 0.8473(2) 0.2717(2) 0.6437(2)
C1 C 0.7067(2) 0.3131(2) 0.5265(2)
C2 C 0.7867(2) 0.3956(2) 0.4499(2)
C3 C 0.9887(2) 0.4037(2) 0.5258(2)
C4 C 1.1414(2) 0.4741(2) 0.5057(2)
C5 C 1.3211(2) 0.4661(2) 0.6055(2)
C6 C 1.3512(2) 0.3868(2) 0.7230(2)
C7 C 1.2051(2) 0.3151(2) 0.7463(2)
C8 C 1.0209(2) 0.3251(2) 0.6470(2)
C9 C 0.6869(2) 0.4648(2) 0.3164(2)
C10 C 0.7267(2) 0.4214(2) 0.1773(2)
O1 O 0.6693(2) 0.4809 0.0632(2)
N2 N 0.8254(2) 0.3177(2) 0.1814(1)
C11 C 0.7215(2) 0.1719(2) -0.0247(2)
C12 C 0.8729(2) 0.2637(2) 0.0577(2)
C13 C 1.0745(2) 0.2029(2) 0.1011(2)
C14 C 1.0873(2) 0.0982(2) 0.2083(2)
C15 C 1.2311(2) 0.2984(2) 0.1588(2)
O2 O 0.5886(2) 0.1445(2) 0.0405(2)
O3 O 0.7281(2) 0.1297(2) -0.1393(1)
H1 H 0.8286(2) 0.2199(2) 0.7228(2)
H2 H 0.5365(2) 0.2918(2) 0.5124(2)
H3 H 1.1405(2) 0.5224(2) 0.4219(2)
H4 H 1.4389(2) 0.5225(2) 0.5918(2)
H5 H 1.4935(2) 0.3813(2) 0.7981(2)
H6 H 1.2306(2) 0.2530(2) 0.8374(2)
H7 H 0.5330(2) 0.4582(2) 0.3029(2)
H8 H 0.7312(2) 0.5600(2) 0.3325(2)
H9 H 0.8491(2) 0.2655(2) 0.2715(2)
H10 H 0.8744(2) 0.3395(2) -0.0150(2)
H11 H 1.0904(2) 0.1584(2) -0.0103(2)
H12 H 1.0735(2) 0.1347(2) 0.3097(2)
H13 H 1.2254(2) 0.0526(2) 0.2259(2)
H14 H 0.9724(2) 0.0330(2) 0.1657(2)
H15 H 1.2143(2) 0.3370(2) 0.2583(2)
H16 H 1.2192(2) 0.3708(2) 0.0797(2)
H17 H 1.3714(2) 0.2552(2) 0.1790(2)
H18 H 0.5205(2) 0.0800(2) -0.0219(2)
N1 N 0.1527(2) 0.7717(2) 0.3563(2)
C1 C 0.2933(2) 0.8131(2) 0.4735(2)
C2 C 0.2133(2) 0.8956(2) 0.5501(2)
C3 C 0.0113(2) 0.9037(2) 0.4742(2)
C4 C -0.1414(2) 0.9741(2) 0.4943(2)
C5 C -0.3211(2) 0.9661(2) 0.3945(2)
C6 C -0.3512(2) 0.8868(2) 0.2770(2)
C7 C -0.2051(2) 0.8151(2) 0.2537(2)
C8 C -0.0209(2) 0.8251(2) 0.3530(2)
C9 C 0.3131(2) 0.9648(2) 0.6836(2)
C10 C 0.2733(2) 0.9214(2) 0.8227(2)
O1 O 0.3307(2) 0.9809 0.9368(2)
N2 N 0.1746(2) 0.8177(2) 0.8186(1)
C11 C 0.2785(2) 0.6719(2) 1.0247(2)
C12 C 0.1271(2) 0.7637(2) 0.9423(2)
C13 C -0.0745(2) 0.7029(2) 0.8989(2)
C14 C -0.0873(2) 0.5982(2) 0.7917(2)
C15 C -0.2311(2) 0.7984(2) 0.8412(2)
O2 O 0.4114(2) 0.6445(2) 0.9595(2)
O3 O 0.2719(2) 0.6297(2) 1.1393(1)
H1 H 0.1714(2) 0.7199(2) 0.2772(2)
H2 H 0.4635(2) 0.7918(2) 0.4876(2)
H3 H -0.1405(2) 1.0224(2) 0.5781(2)
H4 H -0.4389(2) 1.0225(2) 0.4082(2)
H5 H -0.4935(2) 0.8813(2) 0.2019(2)
H6 H -0.2306(2) 0.7530(2) 0.1626(2)
H7 H 0.4670(2) 0.9582(2) 0.6971(2)
H8 H 0.2688(2) 1.0600(2) 0.6675(2)
H9 H 0.1509(2) 0.7655(2) 0.7285(2)
H10 H 0.1256(2) 0.8395(2) 1.0150(2)
H11 H -0.0904(2) 0.6584(2) 1.0103(2)
H12 H -0.0735(2) 0.6347(2) 0.6903(2)
H13 H -0.2254(2) 0.5526(2) 0.7741(2)
H14 H 0.0276(2) 0.5330(2) 0.8343(2)
H15 H -0.2143(2) 0.8370(2) 0.7417(2)
H16 H -0.2192(2) 0.8708(2) 0.9203(2)
H17 H -0.3714(2) 0.7552(2) 0.8210(2)
H18 H 0.4795(2) 0.5800(2) 1.0219(2)

#END
