./LACGOL_from_POSCAR.cif_generated_by_CrystalShift
_symmetry_cell_setting triclinic
_symmetry_space_group_name_H-M 'P 1'
loop_
_symmetry_equiv_pos_site_id
_symmetry_equiv_pos_as_xyz
1 x,y,z
_cell_length_a 9.885000
_cell_length_b 6.779000
_cell_length_c 26.339000
_cell_angle_alpha 90.000000
_cell_angle_beta 98.300000
_cell_angle_gamma 90.000000
_cell_volume 1746.500471
loop_
_atom_site_label
_atom_site_type_symbol
_atom_site_fract_x
_atom_site_fract_y
_atom_site_fract_z
H1 H 0.088600 0.471200 0.269300
H2 H -0.024200 0.326500 0.243300
H3 H 0.062700 -0.041300 0.366000
H4 H 0.105400 -0.070800 0.426900
H5 H 0.150900 0.431800 0.448600
H6 H 0.157600 0.626900 0.503900
H7 H 0.194100 0.653100 0.565100
H8 H 0.224400 0.151100 0.585700
H9 H 0.233400 -0.039900 0.641500
H10 H 0.282100 -0.067800 0.702100
H11 H 0.339500 0.429900 0.721400
H12 H 0.502200 0.380000 0.937000
H13 H 0.473400 0.172000 0.866300
H14 H 0.319200 0.622600 0.777000
H15 H 0.347900 0.830500 0.847700
H16 H 0.911400 0.971200 1.230700
H17 H 1.062000 0.989900 1.219100
H18 H 1.024200 0.826500 1.256700
H19 H 0.937300 0.458700 1.134000
H20 H 0.894600 0.429200 1.073100
H21 H 0.849100 0.931800 1.051400
H22 H 0.842400 1.126900 0.996100
H23 H 0.805900 1.153100 0.934900
H24 H 0.775600 0.651100 0.914300
H25 H 0.766600 0.460100 0.858500
H26 H 0.717900 0.432200 0.797900
H27 H 0.347900 -0.330500 0.347700
H28 H 0.319200 -0.122600 0.277000
H29 H 0.473400 0.328000 0.366300
H30 H 0.502200 0.120000 0.437000
H31 H 0.339500 0.070100 0.221400
H32 H 0.282100 0.567800 0.202100
H33 H 0.233400 0.539900 0.141500
H34 H 0.224400 0.348900 0.085700
H35 H 0.194100 -0.153100 0.065100
H36 H 0.157600 -0.126900 0.003900
H37 H 0.150900 0.068200 -0.051400
H38 H 0.105400 0.570800 -0.073100
H39 H 0.062700 0.541300 -0.134000
H40 H -0.024200 0.173500 -0.256700
H41 H -0.062000 0.010100 -0.219100
H42 H 0.088600 0.028800 -0.230700
H43 H 0.660500 0.929900 0.778600
H44 H 0.497800 0.880000 0.563000
H45 H 0.526600 0.672000 0.633700
H46 H 0.680800 1.122600 0.723000
H47 H 0.652100 1.330500 0.652300
H48 H 0.911400 0.528800 0.730700
H49 H 1.062000 0.510100 0.719100
H50 H 1.024200 0.673500 0.756700
H51 H 0.937300 1.041300 0.634000
H52 H 0.894600 1.070800 0.573100
H53 H 0.849100 0.568200 0.551400
H54 H 0.842400 0.373100 0.496100
H55 H 0.805900 0.346900 0.434900
H56 H 0.775600 0.848900 0.414300
H57 H 0.766600 1.039900 0.358500
H58 H 0.717900 1.067800 0.297900
H59 H 0.660500 0.570100 0.278600
H60 H 0.497800 0.620000 0.063000
H61 H 0.526600 0.828000 0.133700
H62 H 0.680800 0.377400 0.223000
H63 H 0.652100 0.169500 0.152300
H64 H -0.062000 0.489900 0.280900
C65 C 0.924200 0.651600 0.638200
C66 C 0.427900 -0.125900 0.399300
C67 C 0.373100 -0.198600 0.351400
C68 C 0.992400 0.600700 0.726100
C69 C 0.896600 0.795500 0.595700
C70 C 0.355900 -0.074000 0.309100
C71 C 0.393500 0.123300 0.314600
C72 C 0.831600 0.770000 0.501700
C73 C 0.820200 0.428100 0.463700
C74 C 0.808800 0.622000 0.458300
C75 C 0.448300 0.196000 0.362600
C76 C 0.465500 0.071400 0.404900
C77 C 0.745400 0.647400 0.364300
C78 C 0.735000 0.986300 0.326500
C79 C 0.714300 0.793900 0.321600
C80 C 0.368500 0.270500 0.271400
C81 C 0.285700 0.293900 0.178400
C82 C 0.631500 0.770500 0.228600
C83 C 0.534500 0.571400 0.095100
C84 C 0.551700 0.696000 0.137400
C85 C 0.265000 0.486300 0.173500
C86 C 0.572100 1.125900 0.600700
C87 C 0.626900 1.198600 0.648600
C88 C 0.644100 1.074000 0.690900
C89 C 0.606500 0.876700 0.685400
C90 C 0.551700 0.804000 0.637400
C91 C 0.534500 0.928600 0.595100
C92 C 0.631500 0.729500 0.728600
C93 C 0.254600 0.147400 0.135700
C94 C 0.007600 0.399300 0.273900
C95 C 0.714300 0.706100 0.821600
C96 C 0.735000 0.513700 0.826500
C97 C 0.745400 0.852600 0.864300
C98 C 0.075800 0.348400 0.361800
C99 C 0.089100 0.011800 0.398500
C100 C 0.808800 0.878000 0.958300
C101 C 0.820200 1.071900 0.963700
C102 C 0.831600 0.730000 1.001700
C103 C 0.103400 0.204500 0.404300
C104 C 0.168400 0.230000 0.498300
C105 C 0.896600 0.704500 1.095700
C106 C 0.910900 0.511800 1.101500
C107 C 0.924200 0.848400 1.138200
C108 C 0.179800 0.571900 0.536300
C109 C 0.191200 0.378000 0.541700
C110 C 0.992400 0.899300 1.226100
C111 C 0.606500 0.623300 0.185400
C112 C 0.644100 0.426000 0.190900
C113 C 0.626900 0.301400 0.148600
C114 C 0.572100 0.374100 0.100700
C115 C 0.254600 0.352600 0.635700
C116 C 0.007600 0.100700 -0.226100
C117 C 0.265000 0.013700 0.673500
C118 C 0.285700 0.206100 0.678400
C119 C 0.075800 0.151600 -0.138200
C120 C 0.089100 0.488200 -0.101500
C121 C 0.103400 0.295500 -0.095700
C122 C 0.368500 0.229500 0.771400
C123 C 0.465500 0.428600 0.904900
C124 C 0.168400 0.270000 -0.001700
C125 C 0.179800 -0.071900 0.036300
C126 C 0.191200 0.122000 0.041700
C127 C 0.448300 0.304000 0.862600
C128 C 0.427900 0.625900 0.899300
C129 C 0.373100 0.698600 0.851400
C130 C 0.355900 0.574000 0.809100
C131 C 0.393500 0.376700 0.814600
C132 C 0.910900 0.988200 0.601500
N133 N 0.776200 0.722300 0.412100
N134 N 0.142600 0.194100 -0.049100
N135 N 0.667500 0.696100 0.276100
N136 N 0.332500 0.303900 0.723900
N137 N 0.332500 0.196100 0.223900
N138 N 0.223800 0.222300 0.087900
N139 N 0.667500 0.803900 0.776100
N140 N 0.776200 0.777700 0.912100
N141 N 0.223800 0.277700 0.587900
N142 N 0.142600 0.305900 0.450900
N143 N 0.857400 0.805900 1.049100
N144 N 0.857400 0.694100 0.549100
O145 O 0.173800 0.054700 0.507800
O146 O 0.961800 0.765300 1.183900
O147 O 0.826200 0.554700 0.992200
O148 O 0.261000 0.529200 0.644900
O149 O 0.739000 1.029200 0.855100
O150 O 0.086500 0.523400 0.368100
O151 O 0.038200 0.265300 0.316100
O152 O 0.913500 0.476600 0.631900
O153 O 0.038200 0.234700 -0.183900
O154 O 0.261000 -0.029200 0.144900
O155 O 0.624400 0.554200 0.720900
O156 O 0.961800 0.734700 0.683900
O157 O 0.624400 0.945800 0.220900
O158 O 0.086500 -0.023400 -0.131900
O159 O 0.375600 0.445800 0.279100
O160 O 0.375600 0.054200 0.779100
O161 O 0.739000 0.470800 0.355100
O162 O 0.173800 0.445300 0.007800
O163 O 0.826200 0.945300 0.492200
O164 O 0.913500 1.023400 1.131900
Br165 Br 0.555800 0.204900 0.043900
Br166 Br 0.444200 0.795100 0.956100
Br167 Br 0.555800 1.295100 0.543900
Br168 Br 0.444200 -0.295100 0.456100

#END
