./LACLOQ_from_POSCAR.cif_generated_by_CrystalShift
_symmetry_cell_setting triclinic
_symmetry_space_group_name_H-M 'P 1'
loop_
_symmetry_equiv_pos_site_id
_symmetry_equiv_pos_as_xyz
1 x,y,z
_cell_length_a 9.897000
_cell_length_b 6.164000
_cell_length_c 12.086000
_cell_angle_alpha 90.000000
_cell_angle_beta 94.730000
_cell_angle_gamma 90.000000
_cell_volume 734.796721
loop_
_atom_site_label
_atom_site_type_symbol
_atom_site_fract_x
_atom_site_fract_y
_atom_site_fract_z
H1 H 0.278900 1.115700 0.670000
H2 H 0.893000 -0.192000 -0.105000
H3 H 0.871000 -0.378000 -0.110000
H4 H 0.356000 -0.105000 0.214000
H5 H 0.677800 -0.216400 -0.068100
H6 H 0.710400 -0.363800 0.034700
H7 H 0.773300 0.072600 0.020800
H8 H 0.831500 -0.070800 0.119000
H9 H 0.889200 -0.271500 0.474700
H10 H 0.763400 0.023800 0.410500
H11 H 0.992100 -0.251900 0.688800
H12 H 0.378700 0.278700 0.363300
H13 H 0.522500 0.560600 0.414900
H14 H 0.721100 0.615700 0.330000
H15 H 0.791700 0.369800 0.201100
H16 H 0.496300 -0.253700 0.091800
H17 H 0.045000 0.166000 0.996000
H18 H 0.107000 0.308000 1.105000
H19 H 0.129000 0.122000 1.110000
H20 H 0.110800 0.228500 0.525300
H21 H 0.236600 0.523800 0.589500
H22 H 0.007900 0.248100 0.311200
H23 H 0.644000 0.395000 0.786000
H24 H 0.322200 0.283600 1.068100
H25 H 0.289600 0.136200 0.965300
H26 H 0.226700 0.572600 0.979200
H27 H 0.168500 0.429200 0.881000
H28 H 0.621300 0.778700 0.636700
H29 H 0.477500 1.060600 0.585100
H30 H 0.955000 -0.334000 0.004000
H31 H 0.208300 0.869800 0.798900
H32 H 0.503700 0.246300 0.908200
C33 C 0.243600 0.444000 0.934400
C34 C 0.258800 0.248000 1.007400
C35 C 0.499700 0.642000 0.750000
C36 C 0.539100 0.787000 0.669800
C37 C 0.453400 0.957000 0.641400
C38 C 0.333700 0.986000 0.689900
C39 C 0.291900 0.844000 0.767000
C40 C 0.375000 0.667000 0.798100
C41 C 0.365100 0.491000 0.873600
C42 C 0.482000 0.369000 0.867800
C43 C 0.877300 0.077000 0.676000
C44 C 0.935400 -0.153000 0.645000
C45 C 0.099000 0.668000 0.211700
C46 C 0.197600 0.512000 0.516000
C47 C 0.125300 0.341000 0.478300
C48 C 0.874700 -0.159000 0.521700
C49 C 0.802400 0.012000 0.484000
C50 C 0.518000 -0.131000 0.132200
C51 C 0.634900 -0.009000 0.126400
C52 C 0.625000 0.167000 0.201900
C53 C 0.708100 0.344000 0.233000
C54 C 0.666300 0.486000 0.310100
C55 C 0.546600 0.457000 0.358600
C56 C 0.460900 0.287000 0.330200
C57 C 0.500300 0.142000 0.250000
C58 C 0.756400 -0.056000 0.065600
C59 C 0.741200 -0.252000 -0.007400
C60 C 0.064600 0.347000 0.355000
C61 C 0.122700 0.577000 0.324000
C62 C 0.901000 0.168000 0.788300
N63 N 0.124800 0.189000 1.048800
N64 N 0.438300 -0.038000 0.206400
N65 N 0.875200 -0.311000 -0.048800
N66 N 0.561700 0.462000 0.793600
O67 O 0.026800 0.563000 0.141100
O68 O 0.152600 0.850000 0.194600
O69 O 0.973200 0.063000 0.858900
O70 O 0.847400 0.350000 0.805400
S71 S 0.785450 0.212000 0.574760
S72 S 0.214550 0.712000 0.425240

#END
