./LACREM_from_POSCAR.cif_generated_by_CrystalShift
_symmetry_cell_setting triclinic
_symmetry_space_group_name_H-M 'P 1'
loop_
_symmetry_equiv_pos_site_id
_symmetry_equiv_pos_as_xyz
1 x,y,z
_cell_length_a 9.837000
_cell_length_b 9.966000
_cell_length_c 8.198000
_cell_angle_alpha 111.850000
_cell_angle_beta 99.450000
_cell_angle_gamma 89.510000
_cell_volume 734.622541
loop_
_atom_site_label
_atom_site_type_symbol
_atom_site_fract_x
_atom_site_fract_y
_atom_site_fract_z
H1 H 0.490000 0.314000 0.913000
H2 H 0.414000 0.093000 0.921000
H3 H 0.888000 0.458000 0.610000
H4 H 0.597000 0.481000 0.850000
H5 H 0.522000 -0.116000 0.759000
H6 H 1.018000 0.877000 0.988000
H7 H 1.235000 0.801000 0.776000
H8 H 1.185000 0.954000 0.875000
H9 H 0.934000 0.799000 0.250000
H10 H 0.819000 0.875000 0.363000
H11 H 0.881000 0.570000 0.237000
H12 H 0.677000 -0.100000 0.595000
H13 H 0.510000 0.686000 0.087000
H14 H 0.586000 0.907000 0.079000
H15 H 0.740000 0.118000 0.579000
H16 H 0.478000 1.116000 0.241000
H17 H 0.323000 1.100000 0.405000
H18 H 0.260000 0.882000 0.421000
H19 H 0.364000 0.400000 0.355000
H20 H 0.259000 0.363000 0.821000
H21 H 0.119000 0.430000 0.763000
H22 H 0.636000 0.600000 0.645000
H23 H 0.741000 0.637000 0.179000
H24 H 0.403000 0.519000 0.150000
H25 H 0.112000 0.542000 0.390000
H26 H -0.145000 0.203000 -0.024000
H27 H -0.018000 0.123000 0.012000
H28 H -0.235000 0.199000 0.224000
H29 H -0.185000 0.046000 0.125000
H30 H 0.066000 0.201000 0.750000
H31 H 0.181000 0.125000 0.637000
H32 H 1.145000 0.797000 1.024000
C33 C 0.517400 0.900700 0.150300
C34 C 0.457500 1.022200 0.243100
C35 C 0.360600 1.015900 0.340900
C36 C 0.324400 0.888400 0.352700
C37 C 0.384000 0.763200 0.260800
C38 C 0.320900 0.484500 0.420700
C39 C 0.308900 0.484600 0.600100
C40 C 0.646800 0.384000 0.741100
C41 C 0.182800 0.350800 0.723200
C42 C 0.822200 0.507700 0.687100
C43 C 0.880100 0.655100 0.820400
C44 C 0.110600 0.202100 0.656400
C45 C 1.085500 0.811400 0.929700
C46 C 1.156200 0.862400 0.812100
C47 C 1.064500 0.849700 0.646600
C48 C 0.987700 0.828700 0.509900
C49 C 0.889400 0.797900 0.343600
C50 C 0.817200 0.649200 0.276800
C51 C 0.012300 0.171300 0.490100
C52 C 0.691100 0.515400 0.399900
C53 C 0.679100 0.515500 0.579300
C54 C -0.064500 0.150300 0.353400
C55 C 0.616000 0.236800 0.739200
C56 C 0.675600 0.111600 0.647300
C57 C 0.639400 -0.015900 0.659100
C58 C 0.542500 -0.022200 0.756900
C59 C 0.482600 0.099300 0.849700
C60 C 0.520400 0.230200 0.842500
C61 C -0.156200 0.137600 0.187900
C62 C -0.085500 0.188600 0.070300
C63 C 0.119900 0.344900 0.179600
C64 C 0.177800 0.492300 0.312900
C65 C 0.479600 0.769800 0.157500
C66 C 0.353200 0.616000 0.258900
O67 O 0.813400 0.743500 0.913600
O68 O 0.605500 0.389800 0.569000
O69 O 0.766100 0.636000 0.427200
O70 O 1.014800 0.670800 0.821700
O71 O 0.794500 0.417300 0.778700
O72 O 0.353400 0.574900 0.742700
O73 O 0.186600 0.256500 0.086400
O74 O 0.394500 0.610200 0.431000
O75 O 0.233900 0.364000 0.572800
O76 O -0.014800 0.329200 0.178300
O77 O 0.205500 0.582700 0.221300
O78 O 0.646600 0.425100 0.257300

#END
