./LAFJOR_from_POSCAR.cif_generated_by_CrystalShift
_symmetry_cell_setting triclinic
_symmetry_space_group_name_H-M 'P 1'
loop_
_symmetry_equiv_pos_site_id
_symmetry_equiv_pos_as_xyz
1 x,y,z
_cell_length_a 5.520000
_cell_length_b 32.570000
_cell_length_c 5.560000
_cell_angle_alpha 90.000000
_cell_angle_beta 90.000000
_cell_angle_gamma 90.000000
_cell_volume 999.612384
loop_
_atom_site_label
_atom_site_type_symbol
_atom_site_fract_x
_atom_site_fract_y
_atom_site_fract_z
H1 H -0.010000 0.628000 -0.200000
H2 H 1.110000 0.190000 1.550000
H3 H 1.390000 0.255000 1.380000
H4 H 1.290000 0.273000 1.520000
H5 H 0.980000 0.242000 1.210000
H6 H 0.820000 0.259000 1.380000
H7 H 1.210000 0.300000 1.030000
H8 H 1.110000 0.316000 1.240000
H9 H 0.720000 0.290000 0.940000
H10 H 0.680000 0.311000 1.130000
H11 H 0.950000 0.348000 0.780000
H12 H 0.890000 0.368000 0.960000
H13 H 0.490000 0.360000 0.820000
H14 H 0.630000 0.341000 0.610000
H15 H 0.730000 0.423000 0.610000
H16 H 0.810000 0.393000 0.430000
H17 H 0.380000 0.382000 0.350000
H18 H 0.280000 0.416000 0.550000
H19 H 0.570000 0.440000 0.150000
H20 H 0.300000 0.643000 -0.260000
H21 H 0.120000 0.661000 -0.110000
H22 H 0.420000 0.608000 0.050000
H23 H 0.190000 0.556000 -0.290000
H24 H 0.930000 0.988000 1.170000
H25 H 0.640000 0.978000 1.200000
H26 H 0.920000 0.964000 0.770000
H27 H 0.860000 0.925000 0.920000
H28 H 0.480000 0.975000 0.680000
H29 H 0.430000 0.940000 0.850000
H30 H 0.720000 0.916000 0.450000
H31 H 0.620000 0.882000 0.650000
H32 H 0.190000 0.893000 0.570000
H33 H 0.270000 0.923000 0.390000
H34 H 0.370000 0.841000 0.390000
H35 H 0.510000 0.860000 0.180000
H36 H 0.110000 0.868000 0.040000
H37 H 0.050000 0.848000 0.220000
H38 H 0.320000 0.811000 -0.130000
H39 H 0.280000 0.790000 0.060000
H40 H -0.110000 0.816000 -0.240000
H41 H -0.210000 0.800000 -0.030000
H42 H 0.180000 0.759000 -0.380000
H43 H 0.020000 0.742000 -0.210000
H44 H -0.290000 0.773000 -0.520000
H45 H -0.390000 0.755000 -0.380000
H46 H -0.110000 0.690000 -0.550000
H47 H 0.030000 0.715000 -0.730000
H48 H -0.500000 0.688000 -0.670000
H49 H -0.370000 0.673000 -0.880000
H50 H -0.470000 0.725000 -0.820000
H51 H 0.520000 1.027000 0.890000
H52 H 0.810000 1.056000 1.290000
H53 H 0.580000 1.108000 0.950000
H54 H 0.880000 1.161000 1.110000
H55 H 0.700000 1.143000 1.260000
H56 H 1.010000 1.128000 1.200000
H57 H 0.520000 0.475000 0.320000
H58 H 0.140000 0.425000 0.080000
H59 H 0.080000 0.464000 0.230000
H60 H 0.360000 0.478000 -0.200000
H61 H 0.070000 0.488000 -0.170000
H62 H 1.500000 0.188000 1.670000
H63 H 1.370000 0.173000 1.880000
H64 H 1.470000 0.225000 1.820000
H65 H 0.480000 0.527000 0.110000
H66 H 0.970000 0.215000 1.730000
C67 C 1.224000 0.245000 1.454000
C68 C 1.182000 0.212100 1.637000
C69 C 1.402000 0.200200 1.782000
C70 C 0.318000 0.528270 0.010000
C71 C 0.330000 0.562200 -0.183000
C72 C 0.271000 0.601200 -0.044000
C73 C 0.106000 0.584400 0.150000
C74 C 0.567000 0.563200 -0.306000
C75 C 0.168000 0.637400 -0.176000
C76 C 1.033000 0.298700 1.172000
C77 C 0.805000 0.310300 1.027000
C78 C 0.844000 0.347800 0.865000
C79 C 0.618000 0.359900 0.726000
C80 C 0.658000 0.396600 0.561000
C81 C 0.425000 0.407800 0.423000
C82 C 0.453000 0.444100 0.251000
C83 C 0.215000 0.454300 0.122000
C84 C 0.243000 0.486300 -0.075000
C85 C 0.832000 1.137400 1.176000
C86 C 0.433000 1.063200 1.306000
C87 C 0.894000 1.084400 0.850000
C88 C 0.729000 1.101200 1.044000
C89 C 0.670000 1.062200 1.183000
C90 C 0.682000 1.028270 0.990000
C91 C -0.402000 0.700200 -0.782000
C92 C -0.182000 0.712100 -0.637000
C93 C -0.224000 0.745000 -0.454000
C94 C 0.009000 0.761400 -0.335000
C95 C -0.033000 0.798700 -0.172000
C96 C 0.195000 0.810300 -0.027000
C97 C 0.156000 0.847800 0.135000
C98 C 0.382000 0.859900 0.274000
C99 C 0.342000 0.896600 0.439000
C100 C 0.575000 0.907800 0.577000
C101 C 0.547000 0.944100 0.749000
C102 C 0.785000 0.954300 0.878000
C103 C 0.991000 0.261400 1.335000
C104 C 0.757000 0.986300 1.075000
O105 O 0.136900 0.544400 0.178600
O106 O 0.745000 0.545400 -0.247000
O107 O 0.568000 0.587300 -0.494000
O108 O 1.040000 1.103900 0.739000
O109 O 0.863100 1.044400 0.821400
O110 O 0.255000 1.045400 1.247000
O111 O 0.432000 1.087300 1.494000
O112 O -0.040000 0.603900 0.261000

#END
