./LAFKIP_from_POSCAR.cif_generated_by_CrystalShift
_symmetry_cell_setting triclinic
_symmetry_space_group_name_H-M 'P 1'
loop_
_symmetry_equiv_pos_site_id
_symmetry_equiv_pos_as_xyz
1 x,y,z
_cell_length_a 6.214200
_cell_length_b 7.870900
_cell_length_c 20.078000
_cell_angle_alpha 92.439000
_cell_angle_beta 95.360000
_cell_angle_gamma 112.027000
_cell_volume 903.170954
loop_
_atom_site_label
_atom_site_type_symbol
_atom_site_fract_x
_atom_site_fract_y
_atom_site_fract_z
H1 H -0.288000 0.102000 0.068800
H2 H -0.286000 0.299000 0.086870
H3 H 1.218900 0.234000 0.973700
H4 H 1.004000 0.294000 0.964500
H5 H -0.078700 0.562300 0.440490
H6 H 0.973000 0.091300 0.942800
H7 H -0.450200 0.002000 0.167500
H8 H -0.250600 0.560500 0.334950
H9 H -0.454400 0.196400 0.185350
H10 H 1.591100 0.416000 0.933600
H11 H 1.670600 0.366000 0.866100
H12 H 0.376500 0.837700 0.277090
H13 H 1.657700 0.559700 0.879800
H14 H 0.189700 0.352300 0.310650
H15 H 0.551100 0.844100 0.383260
H16 H 0.215300 0.168200 0.289060
H17 H -0.049100 0.324800 0.200740
H18 H 0.959200 0.772900 0.590990
H19 H 0.925900 0.954600 0.612450
H20 H -0.038900 0.134700 0.179380
H21 H 1.192100 0.983200 0.723680
H22 H 1.216500 0.797800 0.702790
H23 H 0.479600 0.210900 0.394010
H24 H 0.667900 0.726100 0.482520
H25 H 0.640400 0.910200 0.505220
H26 H 0.445000 0.390800 0.416480
H27 H 0.555000 0.609200 0.583520
H28 H 0.520400 0.789100 0.605990
H29 H 0.359600 0.089800 0.494780
H30 H 1.038900 0.865300 0.820620
H31 H 1.049100 0.675200 0.799260
H32 H 0.332100 0.273900 0.517480
H33 H 0.784700 0.831800 0.710940
H34 H 0.810300 0.647700 0.689350
H35 H -0.216500 0.202200 0.297210
H36 H -0.657700 0.440300 0.120200
H37 H -0.670600 0.634000 0.133900
H38 H -0.591100 0.584000 0.066400
H39 H -0.192100 0.016800 0.276320
H40 H 1.454400 0.803600 0.814650
H41 H 1.450200 0.998000 0.832500
H42 H 0.074100 0.045400 0.387550
H43 H 0.027000 0.908700 0.057200
H44 H -0.004000 0.706000 0.035500
H45 H -0.218900 0.766000 0.026300
H46 H 0.040800 0.227100 0.409010
H47 H 1.286000 0.701000 0.913130
H48 H 1.524300 0.869000 0.930500
H49 H 1.288000 0.898000 0.931200
H50 H 0.448900 0.155900 0.616740
H51 H 0.623500 0.162300 0.722910
H52 H 1.250600 0.439500 0.665050
H53 H 1.078700 0.437700 0.559510
H54 H -0.524300 0.131000 0.069500
C55 C 1.062500 0.299500 0.772710
C56 C 1.089100 0.382000 0.655470
C57 C -0.366500 0.169800 0.090550
C58 C 1.134300 0.272100 0.876960
C59 C 0.957800 0.298800 0.705720
C60 C 0.715600 0.216400 0.689760
C61 C 0.013300 0.618700 0.407620
C62 C 0.744400 0.296200 0.576760
C63 C 0.610400 0.213500 0.626390
C64 C -0.062500 0.700500 0.227290
C65 C 1.340200 0.357200 0.855060
C66 C 0.136100 0.177600 0.385220
C67 C 1.366500 0.830200 0.909450
C68 C -0.077600 0.782000 0.054390
C69 C -0.122000 0.149200 0.274690
C70 C 1.368300 0.867300 0.835720
C71 C -0.586600 0.568700 0.113560
C72 C 0.417100 0.221200 0.490590
C73 C 0.878900 0.780000 0.687670
C74 C 1.127300 0.807000 0.797780
C75 C 0.385300 0.258600 0.419050
C76 C 0.614700 0.741400 0.580950
C77 C 0.582900 0.778800 0.509410
C78 C -0.127300 0.193000 0.202220
C79 C 1.122000 0.850800 0.725310
C80 C 0.863900 0.822400 0.614780
C81 C 0.121100 0.220000 0.312330
C82 C -0.340200 0.642800 0.144940
C83 C 0.389600 0.786500 0.373610
C84 C 1.586600 0.431300 0.886440
C85 C 0.255600 0.703800 0.423240
C86 C 0.284400 0.783600 0.310240
C87 C 0.042200 0.701200 0.294280
C88 C -0.368300 0.132700 0.164280
C89 C -0.134300 0.727900 0.123040
C90 C -0.089100 0.618000 0.344530
C91 C 1.077600 0.218000 0.945610
C92 C 0.986700 0.381300 0.592380
N93 N 0.042200 0.765100 0.175640
N94 N 0.957800 0.234900 0.824360
O95 O 0.337900 0.696090 0.487500
O96 O 0.662100 0.303910 0.512500
O97 O 1.297900 0.376900 0.787410
O98 O -0.297900 0.623100 0.212590

#END
