./LAFKAE01_from_POSCAR.cif_generated_by_CrystalShift
_symmetry_cell_setting triclinic
_symmetry_space_group_name_H-M 'P 1'
loop_
_symmetry_equiv_pos_site_id
_symmetry_equiv_pos_as_xyz
1 x,y,z
_cell_length_a 9.254000
_cell_length_b 11.415400
_cell_length_c 11.847600
_cell_angle_alpha 89.198000
_cell_angle_beta 116.162000
_cell_angle_gamma 107.108000
_cell_volume 1063.820414
loop_
_atom_site_label
_atom_site_type_symbol
_atom_site_fract_x
_atom_site_fract_y
_atom_site_fract_z
H1 H 0.386600 0.457000 0.797300
H2 H 0.426000 0.395000 0.572000
H3 H 0.587600 0.514200 0.847700
H4 H 0.599300 1.025500 0.825200
H5 H 0.886900 1.068000 0.876800
H6 H 0.116600 0.156900 0.564100
H7 H 0.989800 0.909200 0.860300
H8 H 0.017500 0.124200 0.717500
H9 H 0.808100 0.703500 0.794000
H10 H 0.208000 0.150500 0.932100
H11 H 0.261700 0.928600 0.746600
H12 H 0.501300 0.215000 0.999000
H13 H -0.023700 0.805700 0.662700
H14 H -0.105700 0.593700 0.601700
H15 H 0.099300 0.499800 0.625900
H16 H 0.483000 0.607000 0.572000
H17 H 0.787700 0.330100 0.617800
H18 H 0.613400 0.543000 0.202700
H19 H 1.050800 0.391000 0.799100
H20 H 0.505800 0.425200 0.095300
H21 H 1.067100 0.377700 0.999700
H22 H 0.412400 0.485800 0.152300
H23 H 0.819500 0.303000 1.024900
H24 H 0.400700 -0.025500 0.174800
H25 H 0.303600 0.092800 0.464300
H26 H 0.450900 0.055400 0.578000
H27 H 0.493700 0.140600 0.481200
H28 H 0.113100 -0.068000 0.123200
H29 H 0.574000 0.605000 0.428000
H30 H 0.010200 0.090800 0.139700
H31 H 0.191900 0.296500 0.206000
H32 H 0.738300 0.071400 0.253400
H33 H 0.883400 0.843100 0.435900
H34 H 1.023700 0.194300 0.337300
H35 H 0.982500 0.875800 0.282500
H36 H 1.105700 0.406300 0.398300
H37 H 0.792000 0.849500 0.067900
H38 H 0.900700 0.500200 0.374100
H39 H 0.498700 0.785000 0.001000
H40 H 0.517000 0.393000 0.428000
H41 H 0.506300 0.859400 0.518800
H42 H 0.549100 0.944600 0.422000
H43 H 0.696400 0.907200 0.535700
H44 H 0.212300 0.669900 0.382200
H45 H 0.180500 0.697000 -0.024900
H46 H -0.050800 0.609000 0.200900
H47 H -0.067100 0.622300 0.000300
H48 H 0.494200 0.574800 0.904700
C49 C 0.187400 0.691130 0.057320
C50 C 0.050700 0.639310 0.192540
C51 C 0.575700 0.879070 0.473860
C52 C 0.206400 0.674970 0.300290
C53 C 0.353400 0.718280 0.286310
C54 C 0.343400 0.726090 0.164980
C55 C 0.462400 0.236030 0.611400
C56 C 0.517700 0.773200 0.179300
C57 C 0.545120 0.380720 0.274450
C58 C 0.699900 0.341120 0.301870
C59 C 0.868000 0.413730 0.350430
C60 C 0.576300 0.795750 0.088640
C61 C 0.989200 0.357780 0.364130
C62 C 0.750200 0.834190 0.128790
C63 C 0.940000 0.231130 0.327940
C64 C 0.863900 0.850580 0.256790
C65 C 0.771200 0.157690 0.278510
C66 C 0.805500 0.830400 0.348190
C67 C 0.650920 0.213580 0.266630
C68 C 0.466190 0.160930 0.222420
C69 C 0.403670 0.256550 0.230370
C70 C 0.234200 0.231690 0.200020
C71 C 0.632900 0.791720 0.308630
C72 C 0.126800 0.109470 0.160420
C73 C 0.537600 0.763970 0.388600
C74 C 0.188300 0.014630 0.150920
C75 C 0.483400 0.533660 0.828000
C76 C 0.358700 0.039310 0.181580
C77 C 0.424300 0.120930 0.526140
C78 C 0.516600 0.466340 0.172000
C79 C 0.812600 0.308870 0.942680
C80 C 0.958900 0.352800 0.927130
C81 C 0.949300 0.360690 0.807460
C82 C 0.367100 0.208280 0.691370
C83 C 0.793600 0.325030 0.699710
C84 C 0.454880 0.619280 0.725550
C85 C 0.300100 0.658880 0.698130
C86 C 0.132000 0.586270 0.649570
C87 C 0.646600 0.281720 0.713690
C88 C 0.010800 0.642220 0.635870
C89 C 0.656600 0.273910 0.835020
C90 C 0.060000 0.768870 0.672060
C91 C 0.482300 0.226800 0.820700
C92 C 0.228800 0.842310 0.721490
C93 C 0.423700 0.204250 0.911360
C94 C 0.349080 0.786420 0.733370
C95 C 0.533810 0.839070 0.777580
C96 C 0.596330 0.743450 0.769630
C97 C 0.765800 0.768310 0.799980
C98 C 0.249800 0.165810 0.871210
C99 C 0.873200 0.890530 0.839580
C100 C 0.136100 0.149420 0.743210
C101 C 0.811700 0.985370 0.849080
C102 C 0.194500 0.169600 0.651810
C103 C 0.641300 0.960690 0.818420
C104 C 0.041100 0.647200 0.072870
O105 O 0.562220 0.446860 0.384560
O106 O 0.584270 0.674250 0.471860
O107 O 0.437780 0.553140 0.615440
O108 O 0.415730 0.325750 0.528140

#END
