./LAFLEL_from_POSCAR.cif_generated_by_CrystalShift
_symmetry_cell_setting triclinic
_symmetry_space_group_name_H-M 'P 1'
loop_
_symmetry_equiv_pos_site_id
_symmetry_equiv_pos_as_xyz
1 x,y,z
_cell_length_a 7.985300
_cell_length_b 16.056000
_cell_length_c 11.368000
_cell_angle_alpha 90.000000
_cell_angle_beta 90.000000
_cell_angle_gamma 90.000000
_cell_volume 1457.513752
loop_
_atom_site_label
_atom_site_type_symbol
_atom_site_fract_x
_atom_site_fract_y
_atom_site_fract_z
H1 H 0.036800 0.424700 0.643000
H2 H 0.072800 0.370400 0.529900
H3 H 0.126900 0.445200 0.340500
H4 H 0.310900 0.451600 0.387800
H5 H 0.263700 0.672400 0.160500
H6 H 0.218500 0.531600 0.342700
H7 H 0.153900 0.857400 0.070800
H8 H 0.169200 0.273100 0.933100
H9 H 0.153100 1.057100 0.302500
H10 H 0.344700 0.236100 0.900200
H11 H 0.263400 0.897900 0.300800
H12 H 0.090400 0.856000 0.273900
H13 H 0.182100 0.183500 0.879100
H14 H 0.255400 0.653100 0.938900
H15 H 0.405500 0.780000 0.234600
H16 H 0.031900 0.654700 0.564900
H17 H 0.032800 0.526200 0.501900
H18 H 0.467200 1.026200 0.001900
H19 H 0.094500 0.280000 0.734600
H20 H 0.468100 1.154700 0.064900
H21 H 0.409600 0.356000 0.773900
H22 H 0.244600 1.153100 0.438900
H23 H 0.236600 0.397900 0.800800
H24 H 0.317900 0.683500 0.379100
H25 H 0.155300 0.736100 0.400200
H26 H 0.330800 0.773100 0.433100
H27 H 0.346900 0.557100 0.802500
H28 H 0.281500 1.031600 -0.157300
H29 H 0.189100 0.951600 -0.112200
H30 H 0.373100 0.945200 -0.159500
H31 H 0.346100 0.357400 0.570800
H32 H -0.224900 1.067800 0.056100
H33 H -0.049700 1.092000 0.004300
H34 H -0.089500 1.109100 0.137100
H35 H 0.236300 0.172400 0.660500
H36 H 0.448200 1.249400 0.391200
H37 H 0.549700 0.592000 0.504300
H38 H 0.563300 1.247000 0.202700
H39 H 0.589500 0.609100 0.637100
H40 H 0.427200 0.870400 0.029900
H41 H 0.463200 0.924700 0.143000
H42 H 0.963200 0.575300 0.143000
H43 H -0.063300 0.747000 0.702700
H44 H 0.927200 0.629600 0.029900
H45 H 1.063300 0.253000 0.202700
H46 H 0.736300 0.327600 0.660500
H47 H 0.948200 0.250600 0.391200
H48 H 0.846100 0.142600 0.570800
H49 H 0.410500 0.390900 0.137100
H50 H 0.846900 -0.057100 0.802500
H51 H 0.450300 0.408000 0.004300
H52 H 0.736600 0.102100 0.800800
H53 H 0.909600 0.144000 0.773900
H54 H 0.275100 0.432200 0.056100
H55 H 0.873100 0.554800 -0.159500
H56 H 0.594500 0.220000 0.734600
H57 H 0.689100 0.548400 -0.112200
H58 H 0.781500 0.468400 -0.157300
H59 H 0.532800 -0.026200 0.501900
H60 H 0.830800 0.726900 0.433100
H61 H 0.531900 -0.154700 0.564900
H62 H 0.655300 0.763900 0.400200
H63 H 0.755400 -0.153100 0.938900
H64 H 0.817900 0.816500 0.379100
H65 H 0.682100 0.316500 0.879100
H66 H 0.844700 0.263900 0.900200
H67 H 0.669200 0.226900 0.933100
H68 H 0.744600 0.346900 0.438900
H69 H 0.718500 -0.031600 0.342700
H70 H 0.810900 0.048400 0.387800
H71 H 0.626900 0.054800 0.340500
H72 H 0.968100 0.345300 0.064900
H73 H 1.224900 -0.067800 0.556100
H74 H 1.049700 -0.092000 0.504300
H75 H 1.089500 -0.109100 0.637100
H76 H 0.967200 0.473800 0.001900
H77 H 0.551800 -0.249400 0.891200
H78 H 0.724900 0.567800 0.556100
H79 H 0.436700 -0.247000 0.702700
H80 H 0.905500 0.720000 0.234600
H81 H 0.572800 0.129600 0.529900
H82 H 0.536800 0.075300 0.643000
H83 H 0.590400 0.644000 0.273900
H84 H 0.051800 0.749400 0.891200
H85 H 0.763400 0.602100 0.300800
H86 H 0.653100 0.442900 0.302500
H87 H 0.763700 0.827600 0.160500
H88 H 0.653900 0.642600 0.070800
C89 C 0.709400 0.603850 0.124800
C90 C 0.734700 0.404300 0.281700
C91 C 0.088100 0.710690 0.835900
C92 C 0.705800 0.639780 0.247900
C93 C 0.607300 0.571590 0.572600
C94 C 0.114400 0.415520 0.578600
C95 C 0.800700 0.404390 0.168200
C96 C 0.786800 0.724840 0.255300
C97 C 0.614400 0.084480 0.578600
C98 C 0.458700 0.512730 0.104000
C99 C 0.861500 0.504700 0.006000
C100 C 0.588100 -0.210690 0.835900
C101 C 0.923300 0.346340 0.140500
C102 C 1.107300 -0.071590 0.572600
C103 C 0.790400 0.346720 0.363600
C104 C 0.704800 0.020500 0.382900
C105 C 0.771200 0.761430 0.378300
C106 C 0.728800 0.261430 0.878300
C107 C 0.709600 -0.153280 0.863600
C108 C 0.576700 -0.153660 0.640500
C109 C 0.795200 0.520500 -0.117100
C110 C 0.638500 0.004700 0.506000
C111 C 1.041300 0.012730 0.604000
C112 C 0.713200 0.224840 0.755300
C113 C 0.392700 0.428410 0.072600
C114 C 0.699300 -0.095610 0.668200
C115 C 0.794200 0.139780 0.747900
C116 C 0.765300 -0.095700 0.781700
C117 C 0.911900 0.289310 0.335900
C118 C 0.790600 0.103850 0.624800
C119 C 0.979300 0.290520 0.222700
C120 C 0.020700 0.709480 0.722700
C121 C 0.885600 0.584480 0.078600
C122 C 0.520700 -0.209480 0.722700
C123 C 0.209400 0.896150 0.124800
C124 C 0.204800 0.479500 0.382900
C125 C 0.385600 0.915520 0.078600
C126 C 0.234700 1.095700 0.281700
C127 C 0.479300 1.209480 0.222700
C128 C 0.411900 1.210690 0.335900
C129 C 0.290600 0.396150 0.624800
C130 C -0.107300 1.071590 0.072600
C131 C 0.265300 0.595700 0.781700
C132 C 0.295200 0.979500 -0.117100
C133 C 0.294200 0.360220 0.747900
C134 C 0.271200 0.738570 0.378300
C135 C 0.290400 1.153280 0.363600
C136 C 0.199300 0.595610 0.668200
C137 C 0.213200 0.275160 0.755300
C138 C 0.423300 1.153660 0.140500
C139 C 0.541300 0.487270 0.604000
C140 C 0.138500 0.495300 0.506000
C141 C 0.361500 0.995300 0.006000
C142 C 0.076700 0.653660 0.640500
C143 C -0.041300 0.987270 0.104000
C144 C 0.209600 0.653280 0.863600
C145 C 0.286800 0.775160 0.255300
C146 C 0.228800 0.238570 0.878300
C147 C 0.300700 1.095610 0.168200
C148 C 0.205800 0.860220 0.247900
N149 N 0.263100 0.542840 0.577220
N150 N 0.763100 -0.042840 0.577220
N151 N 0.736900 0.457160 0.077220
N152 N 0.126500 0.979110 0.117200
N153 N 0.626500 0.520890 0.117200
N154 N 0.873500 0.020890 0.617200
N155 N 0.373500 0.479110 0.617200
N156 N 0.236900 1.042840 0.077220
O157 O 0.632900 0.427000 0.622200
O158 O 0.704500 0.777150 0.171130
O159 O 0.367100 0.573000 0.122200
O160 O 0.795500 0.277150 0.671130
O161 O 1.132900 0.073000 0.622200
O162 O 0.204500 0.722850 0.171130
O163 O -0.132900 0.927000 0.122200
O164 O 0.295500 0.222850 0.671130

#END
