./LAFNEM_from_POSCAR.cif_generated_by_CrystalShift
_symmetry_cell_setting triclinic
_symmetry_space_group_name_H-M 'P 1'
loop_
_symmetry_equiv_pos_site_id
_symmetry_equiv_pos_as_xyz
1 x,y,z
_cell_length_a 7.033000
_cell_length_b 14.768000
_cell_length_c 10.377000
_cell_angle_alpha 90.000000
_cell_angle_beta 96.026000
_cell_angle_gamma 90.000000
_cell_volume 1071.834441
loop_
_atom_site_label
_atom_site_type_symbol
_atom_site_fract_x
_atom_site_fract_y
_atom_site_fract_z
H1 H 0.183300 0.799500 0.911200
H2 H 0.350800 0.523200 0.254600
H3 H 0.399900 0.790000 0.966800
H4 H 0.125300 0.524000 0.246700
H5 H 0.257500 0.305000 0.658800
H6 H 0.266500 0.308400 0.881100
H7 H 0.258600 0.924100 0.150300
H8 H 0.267500 0.445300 0.989300
H9 H 0.258600 0.575900 0.650300
H10 H 0.267500 1.054700 0.489300
H11 H 0.350600 0.373100 0.248700
H12 H 0.266500 1.191600 0.381100
H13 H 0.125000 0.374100 0.234100
H14 H 0.257500 1.195000 0.158800
H15 H 0.816700 0.299500 0.588800
H16 H 0.600100 0.290000 0.533200
H17 H 0.125300 0.976000 -0.253300
H18 H 0.350800 0.976800 -0.245400
H19 H 0.681800 0.215100 0.367200
H20 H 0.350600 1.126900 -0.251300
H21 H 0.125000 1.125900 -0.265900
H22 H 0.899000 0.229000 0.419300
H23 H 0.875000 -0.125900 1.265900
H24 H 0.101000 0.771000 0.580700
H25 H 0.318200 0.784900 0.632800
H26 H 0.649400 -0.126900 1.251300
H27 H 0.399900 0.710000 0.466800
H28 H 0.183300 0.700500 0.411200
H29 H 0.649200 0.023200 1.245400
H30 H 0.874700 0.024000 1.253300
H31 H 0.318200 0.715100 1.132800
H32 H 0.101000 0.729000 1.080700
H33 H 0.742500 -0.195000 0.841200
H34 H 0.733500 -0.191600 0.618900
H35 H 0.741400 0.424100 0.349700
H36 H 0.732500 -0.054700 0.510700
H37 H 0.741400 0.075900 0.849700
H38 H 0.732500 0.554700 0.010700
H39 H 0.816700 0.200500 0.088800
H40 H 0.733500 0.691600 0.118900
H41 H 0.600100 0.210000 0.033200
H42 H 0.742500 0.695000 0.341200
H43 H 0.681800 0.284900 -0.132800
H44 H 0.899000 0.271000 -0.080700
H45 H 0.874700 0.476000 0.753300
H46 H 0.649200 0.476800 0.745400
H47 H 0.875000 0.625900 0.765900
H48 H 0.649400 0.626900 0.751300
C49 C 0.761200 0.604350 0.714200
C50 C 0.736700 0.387200 0.102600
C51 C 0.776200 0.292300 -0.058400
C52 C 0.759000 0.501170 0.708000
C53 C 0.751500 0.562950 0.510600
C54 C 0.718200 0.243000 0.055700
C55 C 0.741400 0.639700 0.298200
C56 C 0.736100 0.637650 0.165300
C57 C 0.281800 0.757000 0.944300
C58 C 0.241000 0.498830 0.292000
C59 C 0.223800 0.707700 1.058400
C60 C 0.263300 0.612800 0.897400
C61 C 0.745100 -0.059770 0.868400
C62 C 0.741000 0.022070 0.803200
C63 C 0.734600 0.555720 0.100500
C64 C 0.736100 0.024660 0.669000
C65 C 0.734600 -0.055720 0.600500
C66 C 0.736100 0.475340 0.169000
C67 C 0.736100 -0.137650 0.665300
C68 C 0.741000 0.477930 0.303200
C69 C 0.741400 -0.139700 0.798200
C70 C 0.745100 0.559770 0.368400
C71 C 0.751500 -0.062950 1.010600
C72 C 0.759000 -0.001170 1.208000
C73 C 0.248500 0.437050 0.489400
C74 C 0.254900 1.059770 0.131600
C75 C 0.761200 -0.104350 1.214200
C76 C 0.281800 0.743000 0.444300
C77 C 0.223800 0.792300 0.558400
C78 C 0.736700 0.112800 0.602600
C79 C 0.776200 0.207700 0.441600
C80 C 0.263300 0.887200 0.397400
C81 C 0.238800 1.104350 -0.214200
C82 C 0.718200 0.257000 0.555700
C83 C 0.241000 1.001170 -0.208000
C84 C 0.248500 1.062950 -0.010600
C85 C 0.258600 0.360300 0.701800
C86 C 0.259000 0.977930 0.196800
C87 C 0.258600 1.139700 0.201800
C88 C 0.263900 1.137650 0.334700
C89 C 0.254900 0.440230 0.631600
C90 C 0.259000 0.522070 0.696800
C91 C 0.265400 1.055720 0.399500
C92 C 0.263900 0.524660 0.831000
C93 C 0.265400 0.444280 0.899500
C94 C 0.263900 0.975340 0.331000
C95 C 0.263900 0.362350 0.834700
C96 C 0.238800 0.395650 0.285800
N97 N 0.759900 0.633570 0.579200
N98 N 0.692000 0.313630 0.151900
N99 N 0.692000 0.186370 0.651900
N100 N 0.759900 -0.133570 1.079200
N101 N 0.308000 0.813630 0.348100
N102 N 0.240100 0.366430 0.420800
N103 N 0.308000 0.686370 0.848100
N104 N 0.240100 1.133570 -0.079200
O105 O 0.252100 0.518020 0.429320
O106 O 0.787700 0.113500 0.483900
O107 O 0.747900 0.018020 1.070680
O108 O 0.787700 0.386500 -0.016100
O109 O 0.747900 0.481980 0.570680
O110 O 0.212300 0.886500 0.516100
O111 O 0.252100 0.981980 -0.070680
O112 O 0.212300 0.613500 1.016100

#END
