
#######################################################################
#
#                 Cambridge Crystallographic Data Centre
#                                CCDC 
#
#######################################################################
#
# If this CIF has been generated from an entry in the Cambridge 
# Structural Database, then it will include bibliographic, chemical, 
# crystal, experimental, refinement or atomic coordinate data resulting 
# from the CCDC's data processing and validation procedures.
#
#######################################################################

data_LAFRAM
_symmetry_cell_setting           triclinic
_symmetry_space_group_name_H-M   'P -1'
_symmetry_Int_Tables_number      2
_space_group_name_Hall           '-P 1'
loop_
_symmetry_equiv_pos_site_id
_symmetry_equiv_pos_as_xyz
1 x,y,z
2 -x,-y,-z
_cell_length_a                   7.3662(14)
_cell_length_b                   8.8837(17)
_cell_length_c                   11.242(2)
_cell_angle_alpha                68.640(4)
_cell_angle_beta                 81.328(4)
_cell_angle_gamma                85.050(4)
_cell_volume                     676.908
loop_
_atom_site_label
_atom_site_type_symbol
_atom_site_fract_x
_atom_site_fract_y
_atom_site_fract_z
C1 C 0.3245(4) 0.3008(3) 0.1897(2)
O1 O 0.2232(3) 0.6625(2) 0.26051(19)
O2 O 0.6946(3) 0.4096(3) 0.23357(18)
O3 O 0.6789(2) 0.3261(2) 0.44887(17)
O4 O 0.3073(3) 0.2884(2) 0.64481(17)
O5 O 0.2378(3) 0.0377(2) 0.66560(17)
N1 N 0.3174(3) 0.4209(3) 0.2453(2)
C2 C 0.3119(4) 0.1380(3) 0.2739(2)
C3 C 0.3087(4) 0.0182(3) 0.2242(3)
H1 H 0.2973 -0.0886 0.2800
C4 C 0.3219(4) 0.0528(4) 0.0934(3)
H2 H 0.3180 -0.0295 0.0612
C5 C 0.3411(4) 0.2118(3) 0.0104(3)
H3 H 0.3521 0.2358 -0.0781
C6 C 0.3441(4) 0.3348(3) 0.0573(2)
H4 H 0.3594 0.4408 0.0005
C7 C 0.3981(4) 0.3772(3) 0.3651(2)
H5 H 0.3588 0.4592 0.4038
C8 C 0.3282(3) 0.2152(3) 0.4581(2)
C9 C 0.2933(4) 0.1049(3) 0.4118(2)
H6 H 0.2559 0.0037 0.4688
C10 C 0.2180(4) 0.5677(3) 0.2068(3)
C11 C 0.1000(4) 0.6030(4) 0.1012(3)
H7 H 0.0406 0.7077 0.0854
H8 H 0.0088 0.5224 0.1265
H9 H 0.1753 0.6015 0.0240
C12 C 0.6066(4) 0.3741(3) 0.3379(3)
C13 C 0.8770(4) 0.3298(4) 0.4355(3)
H10 H 0.9165 0.2936 0.5194
H11 H 0.9154 0.4383 0.3878
H12 H 0.9307 0.2599 0.3907
C14 C 0.2929(4) 0.1885(3) 0.5978(2)
C15 C 0.1883(5) -0.0002(4) 0.8022(3)
H13 H 0.1506 -0.1101 0.8417
H14 H 0.0889 0.0710 0.8167
H15 H 0.2923 0.0133 0.8390
C1 C 0.6755(4) 0.6992(3) 0.8103(2)
O1 O 0.7768(3) 0.3375(2) 0.73949(19)
O2 O 0.3054(3) 0.5904(3) 0.76643(18)
O3 O 0.3211(2) 0.6739(2) 0.55113(17)
O4 O 0.6927(3) 0.7116(2) 0.35519(17)
O5 O 0.7622(3) 0.9623(2) 0.33440(17)
N1 N 0.6826(3) 0.5791(3) 0.7547(2)
C2 C 0.6881(4) 0.8620(3) 0.7261(2)
C3 C 0.6913(4) 0.9818(3) 0.7758(3)
H1 H 0.7027 1.0886 0.7200
C4 C 0.6781(4) 0.9472(4) 0.9066(3)
H2 H 0.6820 1.0295 0.9388
C5 C 0.6589(4) 0.7882(3) 0.9896(3)
H3 H 0.6479 0.7642 1.0781
C6 C 0.6559(4) 0.6652(3) 0.9427(2)
H4 H 0.6406 0.5592 0.9995
C7 C 0.6019(4) 0.6228(3) 0.6349(2)
H5 H 0.6412 0.5408 0.5962
C8 C 0.6718(3) 0.7848(3) 0.5419(2)
C9 C 0.7067(4) 0.8951(3) 0.5882(2)
H6 H 0.7441 0.9963 0.5312
C10 C 0.7820(4) 0.4323(3) 0.7932(3)
C11 C 0.9000(4) 0.3970(4) 0.8988(3)
H7 H 0.9594 0.2923 0.9146
H8 H 0.9912 0.4776 0.8735
H9 H 0.8247 0.3985 0.9760
C12 C 0.3934(4) 0.6259(3) 0.6621(3)
C13 C 0.1230(4) 0.6702(4) 0.5645(3)
H10 H 0.0835 0.7064 0.4806
H11 H 0.0846 0.5617 0.6122
H12 H 0.0693 0.7401 0.6093
C14 C 0.7071(4) 0.8115(3) 0.4022(2)
C15 C 0.8117(5) 1.0002(4) 0.1978(3)
H13 H 0.8494 1.1101 0.1583
H14 H 0.9111 0.9290 0.1833
H15 H 0.7077 0.9867 0.1610

#END
