./LAFREP_from_POSCAR.cif_generated_by_CrystalShift
_symmetry_cell_setting triclinic
_symmetry_space_group_name_H-M 'P 1'
loop_
_symmetry_equiv_pos_site_id
_symmetry_equiv_pos_as_xyz
1 x,y,z
_cell_length_a 8.014000
_cell_length_b 11.887000
_cell_length_c 13.535000
_cell_angle_alpha 72.020000
_cell_angle_beta 88.310000
_cell_angle_gamma 70.600000
_cell_volume 1152.936912
loop_
_atom_site_label
_atom_site_type_symbol
_atom_site_fract_x
_atom_site_fract_y
_atom_site_fract_z
H1 H 0.972000 0.783000 0.078600
H2 H 0.805600 0.783600 0.127500
H3 H 0.028000 0.217000 0.921400
H4 H 0.194400 0.216400 0.872500
H5 H 0.571800 0.645500 0.208800
H6 H 0.471100 0.851500 0.120500
H7 H 0.567800 0.851500 0.218100
H8 H 0.105600 0.648100 0.329100
H9 H 0.059600 0.458300 0.411200
H10 H 0.301700 0.272700 0.478800
H11 H 0.698300 0.727300 0.521200
H12 H 0.411000 0.723600 0.539000
H13 H 0.363400 0.533200 0.625500
H14 H 0.894400 0.351900 0.670900
H15 H 0.432200 0.148500 0.781900
H16 H 0.528900 0.148500 0.879500
H17 H 1.069400 -0.104400 0.295300
H18 H 0.933000 -0.057300 0.135900
H19 H 1.037300 0.023300 0.145400
H20 H 0.616200 0.066900 0.455700
H21 H 0.639900 -0.004500 0.638400
H22 H 0.886500 -0.173000 0.729400
H23 H 1.109900 -0.275800 0.640100
H24 H 1.087900 -0.203500 0.457300
H25 H 0.669900 0.426400 0.870800
H26 H 0.943300 0.458000 0.885500
H27 H 0.946500 0.650900 0.899900
H28 H -0.087900 1.203500 0.542700
H29 H -0.109900 1.275800 0.359900
H30 H 0.113500 1.173000 0.270600
H31 H 0.360100 1.004500 0.361600
H32 H 0.383800 0.933100 0.544300
H33 H -0.037300 0.976700 0.854600
H34 H 0.067000 1.057300 0.864100
H35 H -0.069400 1.104400 0.704700
H36 H 0.589000 0.276400 0.461000
H37 H 0.636600 0.466800 0.374500
H38 H 0.053500 0.349100 0.100100
H39 H 0.056700 0.542000 0.114500
H40 H 0.330100 0.573600 0.129200
H41 H 0.428200 0.354500 0.791200
H42 H 0.940400 0.541700 0.588800
C43 C 0.518000 0.465100 0.382600
C44 C 0.400900 0.697600 0.289200
C45 C 0.489700 0.352500 0.433400
C46 C 0.483800 0.400500 0.121700
C47 C 0.327600 0.496000 0.122700
C48 C 0.166200 0.476800 0.114000
C49 C 0.163200 0.363800 0.104800
C50 C 0.323800 0.274200 0.102800
C51 C 0.671800 0.393900 0.137300
C52 C 0.356100 0.140300 0.101900
C53 C 0.834100 -0.006500 0.323400
C54 C 0.854000 -0.060600 0.438700
C55 C 0.996400 -0.161900 0.494100
C56 C 1.009900 -0.205200 0.602300
C57 C 0.877200 -0.144800 0.654500
C58 C 0.731800 -0.044800 0.600900
C59 C 0.718100 -0.002300 0.493300
C60 C 0.321300 0.350400 0.443900
C61 C 0.178300 0.460100 0.404400
C62 C 0.205200 0.571800 0.355300
C63 C 0.281900 1.002300 0.506700
C64 C 0.268200 1.044800 0.399100
C65 C 0.122800 1.144800 0.345500
C66 C -0.009900 1.205200 0.397700
C67 C 0.003600 1.161900 0.505900
C68 C 0.146000 1.060600 0.561300
C69 C 0.165900 1.006500 0.676600
C70 C 0.643900 0.859700 0.898100
C71 C 0.328200 0.606100 0.862700
C72 C 0.676200 0.725800 0.897200
C73 C 0.836800 0.636200 0.895200
C74 C 0.599100 0.302400 0.710800
C75 C 0.625300 0.425800 0.656200
C76 C 0.482000 0.534900 0.617400
C77 C 0.510300 0.647500 0.566600
C78 C 0.678700 0.649600 0.556100
C79 C 0.821700 0.539900 0.595600
C80 C 0.794800 0.428200 0.644700
C81 C 0.833800 0.523200 0.886000
C82 C 0.672400 0.504000 0.877300
C83 C 0.516200 0.599500 0.878300
C84 C 0.374700 0.574200 0.343800
N85 N 0.471900 0.304900 0.775900
N86 N 0.436700 0.195100 0.834900
N87 N 0.054600 0.999900 0.839400
N88 N 0.967900 -0.054800 0.271000
N89 N 0.032100 1.054800 0.729000
N90 N 0.563300 0.804900 0.165100
N91 N 0.528100 0.695100 0.224100
N92 N 0.945400 0.000100 0.160600
N93 N 0.476800 0.294400 0.109700
N94 N 0.523200 0.705600 0.890300
O95 O 0.231000 0.105200 0.097000
O96 O 0.521900 0.074900 0.107400
O97 O 0.707100 0.482400 0.150300
O98 O 0.789900 0.287800 0.138000
O99 O 0.754500 0.177800 -0.012000
O100 O 0.245500 0.822200 1.012000
O101 O 0.310400 0.795800 0.305400
O102 O 0.689600 0.204200 0.694600
O103 O 0.703000 0.082500 0.275800
O104 O 0.297000 0.917500 0.724200
O105 O 0.769000 0.894800 0.903000
O106 O 0.478100 0.925100 0.892600
O107 O 0.071000 0.224900 0.875700
O108 O 0.292900 0.517600 0.849700
O109 O 0.210100 0.712200 0.862000
O110 O 0.929000 0.775100 0.124300
V111 V 0.292600 0.842400 0.893400
V112 V 0.707400 0.157600 0.106600

#END
