./LAFSAO_from_POSCAR.cif_generated_by_CrystalShift
_symmetry_cell_setting triclinic
_symmetry_space_group_name_H-M 'P 1'
loop_
_symmetry_equiv_pos_site_id
_symmetry_equiv_pos_as_xyz
1 x,y,z
_cell_length_a 8.831700
_cell_length_b 9.090600
_cell_length_c 21.117800
_cell_angle_alpha 88.169000
_cell_angle_beta 82.969000
_cell_angle_gamma 61.005000
_cell_volume 1471.063477
loop_
_atom_site_label
_atom_site_type_symbol
_atom_site_fract_x
_atom_site_fract_y
_atom_site_fract_z
H1 H 0.962200 0.042100 0.672200
H2 H 1.263000 -0.445700 0.610800
H3 H 1.090600 -0.399300 0.529000
H4 H 0.860600 -0.136000 -0.046400
H5 H 0.777900 0.063300 -0.036800
H6 H 0.663800 -0.026100 -0.013800
H7 H 0.857400 -0.129400 0.516500
H8 H 0.362400 0.028100 0.721600
H9 H 0.989800 -0.054500 0.220200
H10 H 1.069600 -0.091700 0.146600
H11 H 0.962300 -0.181200 0.178200
H12 H 0.342000 0.015800 0.648000
H13 H 0.236800 0.193200 0.686100
H14 H 0.484600 0.051200 0.170900
H15 H 0.570300 0.162100 0.462700
H16 H 0.218600 0.077800 0.220100
H17 H 0.481900 0.355300 0.485600
H18 H -0.044400 0.318200 0.205000
H19 H 0.369500 0.286800 0.455400
H20 H -0.041900 0.536500 0.143900
H21 H 0.978200 0.260700 0.585900
H22 H 0.221500 0.507500 0.091400
H23 H 0.995600 0.473900 0.639200
H24 H 0.516500 0.568300 0.326300
H25 H 0.421500 0.519200 0.175200
H26 H 0.502000 0.347400 0.277500
H27 H 0.456900 0.757800 0.185400
H28 H 0.247400 0.325300 0.295800
H29 H 0.643300 0.804200 0.109000
H30 H 0.004400 0.526100 0.360800
H31 H 0.801300 0.611300 0.023900
H32 H 0.021800 0.739300 0.414100
H33 H 0.765300 0.373900 0.012700
H34 H 0.483500 0.431700 0.673700
H35 H 0.037800 0.957900 0.327800
H36 H 0.498000 0.652600 0.722500
H37 H -0.198800 1.227600 0.316900
H38 H -0.263000 1.445700 0.389200
H39 H -0.090600 1.399300 0.471000
H40 H 0.139400 1.136000 1.046400
H41 H 0.222100 0.936700 1.036800
H42 H 0.336200 1.026100 1.013800
H43 H 0.142600 1.129400 0.483500
H44 H 0.637600 0.971900 0.278400
H45 H 0.010200 1.054500 0.779800
H46 H -0.069600 1.091700 0.853400
H47 H 0.037700 1.181200 0.821800
H48 H 0.658000 0.984200 0.352000
H49 H 0.763200 0.806800 0.313900
H50 H 0.515400 0.948800 0.829100
H51 H 0.429700 0.837900 0.537300
H52 H 0.781400 0.922200 0.779900
H53 H 0.518100 0.644700 0.514400
H54 H 1.044400 0.681800 0.795000
H55 H 0.630500 0.713200 0.544600
H56 H 1.041900 0.463500 0.856100
H57 H 0.752600 0.674700 0.704200
H58 H 0.778500 0.492500 0.908600
H59 H 0.234700 0.626100 0.987300
H60 H 0.198700 0.388700 0.976100
H61 H 0.578500 0.480800 0.824800
H62 H 0.356700 0.195800 0.891000
H63 H 0.543100 0.242200 0.814600
H64 H 1.198800 -0.227600 0.683100
C65 C 0.481290 0.319940 0.849570
C66 C 0.276360 0.407000 0.945830
C67 C 0.502640 0.461170 0.855430
C68 C 0.296910 0.548080 0.952500
C69 C 0.410400 0.572520 0.907140
C70 C 0.595460 0.572470 0.695170
C71 C 0.779240 0.579050 0.882300
C72 C 0.747110 0.585190 0.684500
C73 C 0.477980 0.825010 0.402130
C74 C 0.589950 0.785650 0.451720
C75 C 0.537410 0.741420 0.517890
C76 C 0.935440 0.563030 0.851630
C77 C 0.936840 0.691810 0.814480
C78 C 0.780450 0.835290 0.805890
C79 C 0.503410 0.879690 0.338170
C80 C 0.653750 0.913610 0.318940
C81 C 0.622370 0.851830 0.835310
C82 C 0.623430 0.724530 0.873840
C83 C 0.028790 1.077800 0.822320
C84 C 0.109100 1.020780 0.406880
C85 C 0.073430 1.149840 0.449800
C86 C 0.195540 0.932700 0.840800
C87 C -0.065320 1.309370 0.442510
C88 C 0.218900 1.038250 1.018320
C89 C -0.167010 1.337140 0.393420
C90 C 0.155250 1.063160 0.952970
C91 C -0.129350 1.207270 0.350480
C92 C 0.248060 0.932940 0.903210
C93 C 0.010490 1.047200 0.356940
C94 C 0.585920 0.442280 0.665800
C95 C 0.271330 0.671650 0.375130
C96 C 0.118380 0.660680 0.385970
C97 C 0.703090 0.451920 0.047500
C98 C 0.109240 0.532790 0.354980
C99 C 0.723640 0.593000 0.054170
C100 C 0.252890 0.414810 0.315500
C101 C 0.630490 0.707060 0.105110
C102 C 0.404540 0.427530 0.304830
C103 C 0.518710 0.680060 0.150430
C104 C 0.414080 0.557720 0.334200
C105 C 0.497360 0.538830 0.144570
C106 C 0.589600 0.427480 0.092860
C107 C 0.890760 0.467210 0.645020
C108 C 0.220760 0.420950 0.117700
C109 C 0.522020 0.174990 0.597870
C110 C 0.410050 0.214350 0.548280
C111 C 0.462590 0.258580 0.482110
C112 C 0.064560 0.436970 0.148370
C113 C 0.063160 0.308190 0.185520
C114 C 0.219550 0.164710 0.194110
C115 C 0.496590 0.120310 0.661830
C116 C 0.346250 0.086390 0.681060
C117 C 0.377630 0.148170 0.164690
C118 C 0.376570 0.275470 0.126160
C119 C 0.971210 -0.077800 0.177680
C120 C 0.890900 -0.020780 0.593120
C121 C 0.926570 -0.149840 0.550200
C122 C 0.804460 0.067300 0.159200
C123 C 1.065320 -0.309370 0.557490
C124 C 0.781100 -0.038250 -0.018320
C125 C 1.167010 -0.337140 0.606580
C126 C 0.844750 -0.063160 0.047030
C127 C 1.129350 -0.207270 0.649520
C128 C 0.369510 0.292940 0.894890
C129 C 0.989510 -0.047200 0.643060
C130 C 0.751940 0.067060 0.096790
C131 C 0.728670 0.328350 0.624870
C132 C 0.881620 0.339320 0.614030
O133 O 0.024810 1.197500 0.943660
O134 O 0.400720 0.900720 0.299280
O135 O 0.731340 0.784850 0.441820
O136 O 0.268660 0.215150 0.558180
O137 O 0.285870 0.813330 0.802100
O138 O 0.599280 0.099280 0.700720
O139 O 0.975190 -0.197500 0.056340
O140 O 0.714130 0.186670 0.197900
S141 S 0.430060 0.754480 0.923229
S142 S 0.285570 0.820820 0.423634
S143 S 0.569940 0.245520 0.076771
S144 S 0.714430 0.179180 0.576366

#END
