./LAFVAS_from_POSCAR.cif_generated_by_CrystalShift
_symmetry_cell_setting triclinic
_symmetry_space_group_name_H-M 'P 1'
loop_
_symmetry_equiv_pos_site_id
_symmetry_equiv_pos_as_xyz
1 x,y,z
_cell_length_a 8.057900
_cell_length_b 9.553600
_cell_length_c 11.112300
_cell_angle_alpha 85.301000
_cell_angle_beta 87.020000
_cell_angle_gamma 81.260000
_cell_volume 841.992133
loop_
_atom_site_label
_atom_site_type_symbol
_atom_site_fract_x
_atom_site_fract_y
_atom_site_fract_z
H1 H 0.830600 0.476400 0.325700
H2 H 0.712400 0.622000 0.167700
H3 H 0.508000 0.811700 0.204000
H4 H 0.418700 0.853200 0.400200
H5 H -0.298200 1.045900 0.378900
H6 H -0.308800 1.189600 0.298800
H7 H -0.147300 1.132800 0.371200
H8 H 0.530700 0.706100 0.558300
H9 H 0.465200 0.728500 0.973900
H10 H -0.045900 0.899500 0.432200
H11 H 0.550200 0.530700 0.868200
H12 H 1.041300 0.124600 0.928700
H13 H 0.894200 0.238900 1.080400
H14 H 0.892100 0.396300 1.111500
H15 H 1.050500 0.315700 1.045400
H16 H 0.149100 0.249800 0.345300
H17 H 0.571800 0.935800 0.920700
H18 H 0.236600 0.052400 0.239400
H19 H 0.763400 0.947600 0.760600
H20 H 0.428200 0.064200 0.079300
H21 H 0.850900 0.750200 0.654700
H22 H 1.045900 0.100500 0.567800
H23 H 1.147300 -0.132800 0.628800
H24 H -0.050500 0.684300 -0.045400
H25 H 0.107900 0.603700 -0.111500
H26 H 0.105800 0.761100 -0.080400
H27 H 1.308800 -0.189600 0.701200
H28 H -0.041300 0.875400 0.071300
H29 H 1.298200 -0.045900 0.621100
H30 H 0.449800 0.469300 0.131800
H31 H 0.169400 0.523600 0.674300
H32 H 0.534800 0.271500 0.026100
H33 H 0.287600 0.378000 0.832300
H34 H 0.492000 0.188300 0.796000
H35 H 0.469300 0.293900 0.441700
H36 H 0.581300 0.146800 0.599800
C37 C 0.498600 0.223100 0.614870
C38 C 0.445400 0.247600 0.731950
C39 C 0.430500 0.310600 0.520250
C40 C 0.323100 0.360300 0.753330
C41 C 0.304100 0.423610 0.540000
C42 C 0.252500 0.447740 0.658580
C43 C 0.456900 0.267400 0.090600
C44 C 0.676900 0.639700 0.246670
C45 C 0.554600 0.752400 0.268050
C46 C -0.235400 1.106000 0.327000
C47 C 1.235400 -0.106000 0.673000
C48 C 0.405900 0.385900 0.153750
C49 C -0.009300 0.833720 0.146770
C50 C 0.069900 0.672000 -0.053520
C51 C 1.061300 0.094780 0.749720
C52 C 1.013300 0.148650 0.636600
C53 C 0.088800 0.701920 0.155480
C54 C 0.912600 0.280090 0.632180
C55 C 0.860800 0.358250 0.730420
C56 C 0.771800 0.492330 0.681810
C57 C 0.710500 0.618620 0.750110
C58 C 0.773000 0.745190 0.719040
C59 C 0.229700 0.516180 0.439470
C60 C 0.721000 0.863500 0.782400
C61 C 0.393500 0.143600 0.122400
C62 C 0.606500 0.856400 0.877600
C63 C 0.279000 0.136500 0.217600
C64 C 0.770300 0.483820 0.560530
C65 C 0.911200 0.298080 0.844520
C66 C 0.930100 0.328000 1.053520
C67 C 0.227000 0.254810 0.280960
C68 C 0.289500 0.381380 0.249890
C69 C 0.228200 0.507670 0.318190
C70 C 1.009300 0.166280 0.853230
C71 C 0.139200 0.641750 0.269580
C72 C 0.594100 0.614100 0.846250
C73 C 0.087400 0.719910 0.367820
C74 C 0.543100 0.732600 0.909400
C75 C -0.013300 0.851350 0.363400
C76 C 0.695900 0.576390 0.460000
C77 C 0.569500 0.689400 0.479750
C78 C -0.061300 0.905220 0.250280
C79 C 0.501400 0.776900 0.385130
C80 C 0.747500 0.552260 0.341420
O81 O 0.138980 0.622700 0.060140
O82 O 1.164230 -0.031590 0.773070
O83 O 0.142530 0.645770 0.472320
O84 O 0.857470 0.354230 0.527680
O85 O 0.861020 0.377300 0.939860
O86 O -0.164230 1.031590 0.226930

#END
