
#######################################################################
#
#                 Cambridge Crystallographic Data Centre
#                                CCDC 
#
#######################################################################
#
# If this CIF has been generated from an entry in the Cambridge 
# Structural Database, then it will include bibliographic, chemical, 
# crystal, experimental, refinement or atomic coordinate data resulting 
# from the CCDC's data processing and validation procedures.
#
#######################################################################

data_LAFVEW
_symmetry_cell_setting           orthorhombic
_symmetry_space_group_name_H-M   'P 21 21 21'
_symmetry_Int_Tables_number      19
_space_group_name_Hall           'P 2ac 2ab'
loop_
_symmetry_equiv_pos_site_id
_symmetry_equiv_pos_as_xyz
1 x,y,z
2 1/2+x,1/2-y,-z
3 -x,1/2+y,1/2-z
4 1/2-x,-y,1/2+z
_cell_length_a                   3.9329(11)
_cell_length_b                   21.721(7)
_cell_length_c                   27.730(8)
_cell_angle_alpha                90
_cell_angle_beta                 90
_cell_angle_gamma                90
_cell_volume                     2368.88
loop_
_atom_site_label
_atom_site_type_symbol
_atom_site_fract_x
_atom_site_fract_y
_atom_site_fract_z
O1 O 0.5886(11) 0.56987(16) 0.84107(12)
O2 O 0.3164(11) 0.57010(18) 0.76744(13)
O3 O 0.4782(10) 0.34972(18) 0.75182(12)
C1 C 1.1956(18) 0.2286(3) 0.9322(2)
H1 H 1.2895 0.2036 0.9560
C2 C 1.1606(17) 0.2916(3) 0.9399(2)
H2 H 1.2351 0.3088 0.9687
C3 C 1.0189(13) 0.3283(3) 0.90571(18)
H3 H 0.9983 0.3703 0.9115
C4 C 0.9022(14) 0.3040(3) 0.86161(18)
C5 C 0.7466(13) 0.3395(2) 0.82478(18)
C6 C 0.6565(14) 0.4038(2) 0.81806(17)
C7 C 0.7030(14) 0.4586(2) 0.84422(18)
H4 H 0.8105 0.4594 0.8741
C8 C 0.5799(14) 0.5102(2) 0.82282(18)
C9 C 0.4882(17) 0.6083(3) 0.80154(19)
H5 H 0.3383 0.6407 0.8127
H6 H 0.6864 0.6271 0.7868
C10 C 0.4209(14) 0.5109(3) 0.77841(19)
C11 C 0.4967(14) 0.4068(3) 0.77362(18)
C12 C 0.6345(16) 0.3101(3) 0.78390(19)
C13 C 1.0919(17) 0.2037(3) 0.8897(2)
H7 H 1.1223 0.1618 0.8844
C14 C 0.9390(15) 0.2400(3) 0.8536(2)
C15 C 0.8236(17) 0.2130(3) 0.8098(2)
H8 H 0.8534 0.1709 0.8049
C16 C 0.6705(17) 0.2473(3) 0.7748(2)
H9 H 0.5937 0.2296 0.7463
C17 C 0.3665(14) 0.4594(3) 0.75198(18)
H10 H 0.2539 0.4593 0.7225
O1 O 0.0886(11) -0.06987(16) 0.15893(12)
O2 O -0.1836(11) -0.07010(18) 0.23256(13)
O3 O -0.0218(10) 0.15028(18) 0.24818(12)
C1 C 0.6956(18) 0.2714(3) 0.0678(2)
H1 H 0.7895 0.2964 0.0440
C2 C 0.6606(17) 0.2084(3) 0.0601(2)
H2 H 0.7351 0.1912 0.0313
C3 C 0.5189(13) 0.1717(3) 0.09429(18)
H3 H 0.4983 0.1297 0.0885
C4 C 0.4022(14) 0.1960(3) 0.13839(18)
C5 C 0.2466(13) 0.1605(2) 0.17522(18)
C6 C 0.1565(14) 0.0962(2) 0.18194(17)
C7 C 0.2030(14) 0.0414(2) 0.15578(18)
H4 H 0.3105 0.0406 0.1259
C8 C 0.0799(14) -0.0102(2) 0.17718(18)
C9 C -0.0118(17) -0.1083(3) 0.19846(19)
H5 H -0.1617 -0.1407 0.1873
H6 H 0.1864 -0.1271 0.2132
C10 C -0.0791(14) -0.0109(3) 0.22159(19)
C11 C -0.0033(14) 0.0932(3) 0.22638(18)
C12 C 0.1345(16) 0.1899(3) 0.21610(19)
C13 C 0.5919(17) 0.2963(3) 0.1103(2)
H7 H 0.6223 0.3382 0.1156
C14 C 0.4390(15) 0.2600(3) 0.1464(2)
C15 C 0.3236(17) 0.2870(3) 0.1902(2)
H8 H 0.3534 0.3291 0.1951
C16 C 0.1705(17) 0.2527(3) 0.2252(2)
H9 H 0.0937 0.2704 0.2537
C17 C -0.1335(14) 0.0406(3) 0.24802(18)
H10 H -0.2461 0.0407 0.2775
O1 O 0.4114(11) 1.06987(16) 0.65893(12)
O2 O 0.6836(11) 1.07010(18) 0.73256(13)
O3 O 0.5218(10) 0.84972(18) 0.74818(12)
C1 C -0.1956(18) 0.7286(3) 0.5678(2)
H1 H -0.2895 0.7036 0.5440
C2 C -0.1606(17) 0.7916(3) 0.5601(2)
H2 H -0.2351 0.8088 0.5313
C3 C -0.0189(13) 0.8283(3) 0.59429(18)
H3 H 0.0017 0.8703 0.5885
C4 C 0.0978(14) 0.8040(3) 0.63839(18)
C5 C 0.2534(13) 0.8395(2) 0.67522(18)
C6 C 0.3435(14) 0.9038(2) 0.68194(17)
C7 C 0.2970(14) 0.9586(2) 0.65578(18)
H4 H 0.1895 0.9594 0.6259
C8 C 0.4201(14) 1.0102(2) 0.67718(18)
C9 C 0.5118(17) 1.1083(3) 0.69846(19)
H5 H 0.6617 1.1407 0.6873
H6 H 0.3136 1.1271 0.7132
C10 C 0.5791(14) 1.0109(3) 0.72159(19)
C11 C 0.5033(14) 0.9068(3) 0.72638(18)
C12 C 0.3655(16) 0.8101(3) 0.71610(19)
C13 C -0.0919(17) 0.7037(3) 0.6103(2)
H7 H -0.1223 0.6618 0.6156
C14 C 0.0610(15) 0.7400(3) 0.6464(2)
C15 C 0.1764(17) 0.7130(3) 0.6902(2)
H8 H 0.1466 0.6709 0.6951
C16 C 0.3295(17) 0.7473(3) 0.7252(2)
H9 H 0.4063 0.7296 0.7537
C17 C 0.6335(14) 0.9594(3) 0.74802(18)
H10 H 0.7461 0.9593 0.7775
O1 O 0.9114(11) 0.43013(16) 0.34107(12)
O2 O 1.1836(11) 0.42990(18) 0.26744(13)
O3 O 1.0218(10) 0.65028(18) 0.25182(12)
C1 C 0.3044(18) 0.7714(3) 0.4322(2)
H1 H 0.2105 0.7964 0.4560
C2 C 0.3394(17) 0.7084(3) 0.4399(2)
H2 H 0.2649 0.6912 0.4687
C3 C 0.4811(13) 0.6717(3) 0.40571(18)
H3 H 0.5017 0.6297 0.4115
C4 C 0.5978(14) 0.6960(3) 0.36161(18)
C5 C 0.7534(13) 0.6605(2) 0.32478(18)
C6 C 0.8435(14) 0.5962(2) 0.31806(17)
C7 C 0.7970(14) 0.5414(2) 0.34422(18)
H4 H 0.6895 0.5406 0.3741
C8 C 0.9201(14) 0.4898(2) 0.32282(18)
C9 C 1.0118(17) 0.3917(3) 0.30154(19)
H5 H 1.1617 0.3593 0.3127
H6 H 0.8136 0.3729 0.2868
C10 C 1.0791(14) 0.4891(3) 0.27841(19)
C11 C 1.0033(14) 0.5932(3) 0.27362(18)
C12 C 0.8655(16) 0.6899(3) 0.28390(19)
C13 C 0.4081(17) 0.7963(3) 0.3897(2)
H7 H 0.3777 0.8382 0.3844
C14 C 0.5610(15) 0.7600(3) 0.3536(2)
C15 C 0.6764(17) 0.7870(3) 0.3098(2)
H8 H 0.6466 0.8291 0.3049
C16 C 0.8295(17) 0.7527(3) 0.2748(2)
H9 H 0.9063 0.7704 0.2463
C17 C 1.1335(14) 0.5406(3) 0.25198(18)
H10 H 1.2461 0.5407 0.2225
O4 O 0.1207(12) 0.70370(17) 0.94161(12)
O5 O -0.1166(11) 0.70180(17) 0.86524(13)
O6 O 0.1624(10) 0.91776(16) 0.84205(11)
C18 C -0.0655(16) 0.6675(3) 0.90811(19)
H11 H 0.0591 0.6300 0.9009
H12 H -0.2833 0.6561 0.9219
C19 C 0.1463(15) 0.7619(3) 0.92093(18)
C20 C 0.2893(14) 0.8129(2) 0.94086(17)
H13 H 0.3815 0.8128 0.9717
C21 C 0.2885(13) 0.8659(2) 0.91164(17)
C22 C 0.4062(13) 0.9286(2) 0.91618(18)
C23 C 0.5704(14) 0.9637(2) 0.95304(18)
C24 C 0.6400(15) 1.0268(3) 0.94307(19)
C25 C 0.7985(15) 1.0626(3) 0.9789(2)
H14 H 0.8461 1.1038 0.9727
C26 C 0.8828(16) 1.0384(3) 1.0220(2)
H15 H 0.9819 1.0632 1.0454
C27 C 0.0066(15) 0.7603(2) 0.87515(19)
C28 C -0.0025(14) 0.8101(3) 0.84571(17)
H16 H -0.0969 0.8094 0.8150
C29 C 0.1414(15) 0.8619(2) 0.86576(18)
C30 C 0.3253(15) 0.9572(3) 0.87381(18)
C31 C 0.5471(15) 1.0522(3) 0.8979(2)
H17 H 0.5970 1.0933 0.8919
C32 C 0.3885(15) 1.0190(2) 0.8632(2)
H18 H 0.3252 1.0364 0.8339
C33 C 0.8225(16) 0.9762(3) 1.0318(2)
H19 H 0.8872 0.9596 1.0613
C34 C 0.6691(14) 0.9401(2) 0.99818(18)
H20 H 0.6286 0.8989 1.0052
O4 O 0.6207(12) 0.79630(17) 0.05839(12)
O5 O 0.3834(11) 0.79820(17) 0.13476(13)
O6 O 0.6624(10) 0.58224(16) 0.15795(11)
C18 C 0.4345(16) 0.8325(3) 0.09189(19)
H11 H 0.5591 0.8700 0.0991
H12 H 0.2167 0.8439 0.0781
C19 C 0.6463(15) 0.7381(3) 0.07907(18)
C20 C 0.7893(14) 0.6871(2) 0.05914(17)
H13 H 0.8815 0.6872 0.0283
C21 C 0.7885(13) 0.6341(2) 0.08836(17)
C22 C 0.9062(13) 0.5714(2) 0.08382(18)
C23 C 1.0704(14) 0.5363(2) 0.04696(18)
C24 C 1.1400(15) 0.4732(3) 0.05693(19)
C25 C 1.2985(15) 0.4374(3) 0.0211(2)
H14 H 1.3461 0.3962 0.0273
C26 C 1.3828(16) 0.4616(3) -0.0220(2)
H15 H 1.4819 0.4368 -0.0454
C27 C 0.5066(15) 0.7397(2) 0.12485(19)
C28 C 0.4975(14) 0.6899(3) 0.15429(17)
H16 H 0.4031 0.6906 0.1850
C29 C 0.6414(15) 0.6381(2) 0.13424(18)
C30 C 0.8253(15) 0.5428(3) 0.12619(18)
C31 C 1.0471(15) 0.4478(3) 0.1021(2)
H17 H 1.0970 0.4067 0.1081
C32 C 0.8885(15) 0.4810(2) 0.1368(2)
H18 H 0.8252 0.4636 0.1661
C33 C 1.3225(16) 0.5238(3) -0.0318(2)
H19 H 1.3872 0.5404 -0.0613
C34 C 1.1691(14) 0.5599(2) 0.00182(18)
H20 H 1.1286 0.6011 -0.0052
O4 O 0.8793(12) 0.20370(17) 0.55839(12)
O5 O 1.1166(11) 0.20180(17) 0.63476(13)
O6 O 0.8376(10) 0.41776(16) 0.65795(11)
C18 C 1.0655(16) 0.1675(3) 0.59189(19)
H11 H 0.9409 0.1300 0.5991
H12 H 1.2833 0.1561 0.5781
C19 C 0.8537(15) 0.2619(3) 0.57907(18)
C20 C 0.7107(14) 0.3129(2) 0.55914(17)
H13 H 0.6185 0.3128 0.5283
C21 C 0.7115(13) 0.3659(2) 0.58836(17)
C22 C 0.5938(13) 0.4286(2) 0.58382(18)
C23 C 0.4296(14) 0.4637(2) 0.54696(18)
C24 C 0.3600(15) 0.5268(3) 0.55693(19)
C25 C 0.2015(15) 0.5626(3) 0.5211(2)
H14 H 0.1539 0.6038 0.5273
C26 C 0.1172(16) 0.5384(3) 0.4780(2)
H15 H 0.0181 0.5632 0.4546
C27 C 0.9934(15) 0.2603(2) 0.62485(19)
C28 C 1.0025(14) 0.3101(3) 0.65429(17)
H16 H 1.0969 0.3094 0.6850
C29 C 0.8586(15) 0.3619(2) 0.63424(18)
C30 C 0.6747(15) 0.4572(3) 0.62619(18)
C31 C 0.4529(15) 0.5522(3) 0.6021(2)
H17 H 0.4030 0.5933 0.6081
C32 C 0.6115(15) 0.5190(2) 0.6368(2)
H18 H 0.6748 0.5364 0.6661
C33 C 0.1775(16) 0.4762(3) 0.4682(2)
H19 H 0.1128 0.4596 0.4387
C34 C 0.3309(14) 0.4401(2) 0.50182(18)
H20 H 0.3714 0.3989 0.4948
O4 O 0.3793(12) 0.29630(17) 0.44161(12)
O5 O 0.6166(11) 0.29820(17) 0.36524(13)
O6 O 0.3376(10) 0.08224(16) 0.34205(11)
C18 C 0.5655(16) 0.3325(3) 0.40811(19)
H11 H 0.4409 0.3700 0.4009
H12 H 0.7833 0.3439 0.4219
C19 C 0.3537(15) 0.2381(3) 0.42093(18)
C20 C 0.2107(14) 0.1871(2) 0.44086(17)
H13 H 0.1185 0.1872 0.4717
C21 C 0.2115(13) 0.1341(2) 0.41164(17)
C22 C 0.0938(13) 0.0714(2) 0.41618(18)
C23 C -0.0704(14) 0.0363(2) 0.45304(18)
C24 C -0.1400(15) -0.0268(3) 0.44307(19)
C25 C -0.2985(15) -0.0626(3) 0.4789(2)
H14 H -0.3461 -0.1038 0.4727
C26 C -0.3828(16) -0.0384(3) 0.5220(2)
H15 H -0.4819 -0.0632 0.5454
C27 C 0.4934(15) 0.2397(2) 0.37515(19)
C28 C 0.5025(14) 0.1899(3) 0.34571(17)
H16 H 0.5969 0.1906 0.3150
C29 C 0.3586(15) 0.1381(2) 0.36576(18)
C30 C 0.1747(15) 0.0428(3) 0.37381(18)
C31 C -0.0471(15) -0.0522(3) 0.3979(2)
H17 H -0.0970 -0.0933 0.3919
C32 C 0.1115(15) -0.0190(2) 0.3632(2)
H18 H 0.1748 -0.0364 0.3339
C33 C -0.3225(16) 0.0238(3) 0.5318(2)
H19 H -0.3872 0.0404 0.5613
C34 C -0.1691(14) 0.0599(2) 0.49818(18)
H20 H -0.1286 0.1011 0.5052

#END
