./LAFVIA_from_POSCAR.cif_generated_by_CrystalShift
_symmetry_cell_setting triclinic
_symmetry_space_group_name_H-M 'P 1'
loop_
_symmetry_equiv_pos_site_id
_symmetry_equiv_pos_as_xyz
1 x,y,z
_cell_length_a 23.874000
_cell_length_b 4.007100
_cell_length_c 17.265000
_cell_angle_alpha 90.000000
_cell_angle_beta 108.838000
_cell_angle_gamma 90.000000
_cell_volume 1563.194042
loop_
_atom_site_label
_atom_site_type_symbol
_atom_site_fract_x
_atom_site_fract_y
_atom_site_fract_z
H1 H -0.003200 0.852500 0.579900
H2 H 0.848000 -0.171700 0.516200
H3 H 0.457500 0.439200 0.295600
H4 H 0.748000 -0.259600 0.481700
H5 H 0.684600 -0.093500 0.356900
H6 H 0.544400 0.216500 0.100400
H7 H 0.302500 0.788800 0.065200
H8 H 0.598300 0.711700 -0.065000
H9 H 0.694300 0.721700 0.022600
H10 H 0.792500 0.719200 0.100800
H11 H 0.207000 0.704000 0.049900
H12 H 0.891000 0.827600 0.136400
H13 H 0.105900 0.753900 -0.011400
H14 H 0.919500 0.348000 0.347500
H15 H 1.010000 0.288800 0.330000
H16 H 0.079800 0.258300 0.175600
H17 H 0.467400 0.923700 0.475300
H18 H 0.423200 0.652700 0.424900
H19 H 0.455700 0.599600 0.518600
H20 H 0.114800 0.028200 0.288000
H21 H 1.008500 0.379700 0.877500
H22 H 0.155000 -0.229500 0.412400
H23 H 1.053900 0.420200 0.829800
H24 H 0.256000 -0.264700 0.472600
H25 H 1.010000 0.711200 0.830000
H26 H 0.317400 -0.045000 0.408400
H27 H 0.919500 0.652000 0.847500
H28 H 0.886700 0.908100 0.927300
H29 H 0.848000 1.171700 1.016200
H30 H 0.537100 0.758400 0.304000
H31 H 0.577800 0.759300 0.248700
H32 H 0.544800 0.431900 0.258400
H33 H 0.748000 1.259600 0.981700
H34 H -0.003200 0.147500 0.079900
H35 H -0.054300 0.380800 0.028100
H36 H -0.015100 0.488400 0.116300
H37 H 0.684600 1.093500 0.856900
H38 H 0.400500 0.896100 0.078600
H39 H 0.467400 0.076300 -0.024700
H40 H 0.423200 0.347300 -0.075100
H41 H 0.455700 0.400400 0.018600
H42 H 0.544400 0.783500 0.600400
H43 H 0.598300 0.288300 0.435000
H44 H 0.457500 0.560800 0.795600
H45 H 0.694300 0.278300 0.522600
H46 H 0.792500 0.280800 0.600800
H47 H 0.891000 0.172400 0.636400
H48 H 0.302500 0.211200 0.565200
H49 H 1.053900 0.579800 0.329800
H50 H 1.008500 0.620300 0.377500
H51 H 0.400500 0.103900 0.578600
H52 H 0.207000 0.296000 0.549900
H53 H -0.015100 0.511600 0.616300
H54 H 0.105900 0.246100 0.488600
H55 H -0.054300 0.619200 0.528100
H56 H 0.886700 0.091900 0.427300
H57 H 0.079800 0.741700 0.675600
H58 H 0.544800 0.568100 0.758400
H59 H 0.577800 0.240700 0.748700
H60 H 0.537100 0.241600 0.804000
H61 H 0.114800 0.971800 0.788000
H62 H 0.317400 1.045000 0.908400
H63 H 0.155000 1.229500 0.912400
H64 H 0.256000 1.264700 0.972600
C65 C 0.240200 1.160000 0.922100
C66 C 0.276600 1.029000 0.883900
C67 C 0.179900 1.138900 0.886000
C68 C 0.253900 0.870200 0.808700
C69 C 0.288200 0.723900 0.765900
C70 C 0.542200 0.329000 0.755000
C71 C 0.155700 0.984800 0.811200
C72 C 0.192000 0.846500 0.769200
C73 C 0.167400 0.684000 0.690800
C74 C -0.015200 0.625000 0.567200
C75 C 0.105900 0.654200 0.650900
C76 C 0.084000 0.502000 0.577700
C77 C 0.121400 0.356600 0.538300
C78 C 0.391600 0.219600 0.619800
C79 C 0.181700 0.383800 0.575900
C80 C 0.459400 0.311000 -0.031100
C81 C 0.206200 0.540500 0.652400
C82 C 0.268500 0.562600 0.691700
C83 C 0.914100 0.416100 0.744200
C84 C 0.876300 0.294900 0.671300
C85 C 0.332700 0.281700 0.611400
C86 C 0.817500 0.355900 0.651100
C87 C 0.320100 0.450800 0.673400
C88 C 0.793000 0.529100 0.703300
C89 C 0.731500 0.598500 0.683500
C90 C 0.679000 0.532000 0.614600
C91 C 0.665000 0.382500 0.538500
C92 C 0.368000 0.555000 0.739400
C93 C 0.607300 0.388100 0.486200
C94 C 0.427100 0.492000 0.749400
C95 C 0.562600 0.539900 0.508700
C96 C 0.574100 0.686700 0.583800
C97 C 0.437800 0.324500 0.687900
C98 C 0.632800 0.682100 0.633800
C99 C 0.711600 0.771600 0.738200
C100 C 0.748300 0.882400 0.816500
C101 C 0.725000 1.051700 0.871000
C102 C 0.391600 0.780400 0.119800
C103 C 0.762900 1.152500 0.944800
C104 C -0.015200 0.375000 0.067200
C105 C 0.822900 1.099200 0.965700
C106 C 0.542200 0.671000 0.255000
C107 C 0.846000 0.939500 0.912500
C108 C 0.288200 0.276100 0.265900
C109 C 0.809600 0.822500 0.836300
C110 C 0.832100 0.642400 0.779200
C111 C 0.893300 0.579800 0.797900
C112 C 0.253900 0.129800 0.308700
C113 C 1.014700 0.473000 0.829700
C114 C 0.276600 -0.029000 0.383900
C115 C 0.240200 -0.160000 0.422100
C116 C 0.179900 -0.138900 0.386000
C117 C 0.459400 0.689000 0.468900
C118 C 0.155700 0.015200 0.311200
C119 C 0.192000 0.153500 0.269200
C120 C 0.167400 0.316000 0.190800
C121 C 0.105900 0.345800 0.150900
C122 C 1.014700 0.527000 0.329700
C123 C 0.084000 0.498000 0.077700
C124 C 0.914100 0.583900 0.244200
C125 C 0.876300 0.705100 0.171300
C126 C 0.121400 0.643400 0.038300
C127 C 0.817500 0.644100 0.151100
C128 C 0.181700 0.616200 0.075900
C129 C 0.793000 0.470900 0.203300
C130 C 0.731500 0.401500 0.183500
C131 C 0.679000 0.468000 0.114600
C132 C 0.665000 0.617500 0.038500
C133 C 0.206200 0.459500 0.152400
C134 C 0.607300 0.611900 -0.013800
C135 C 0.268500 0.437400 0.191700
C136 C 0.562600 0.460100 0.008700
C137 C 0.574100 0.313300 0.083800
C138 C 0.332700 0.718300 0.111400
C139 C 0.632800 0.317900 0.133800
C140 C 0.711600 0.228400 0.238200
C141 C 0.748300 0.117600 0.316500
C142 C 0.725000 -0.051700 0.371000
C143 C 0.320100 0.549200 0.173400
C144 C 0.762900 -0.152500 0.444800
C145 C 0.368000 0.445000 0.239400
C146 C 0.822900 -0.099200 0.465700
C147 C 0.427100 0.508000 0.249400
C148 C 0.846000 0.060500 0.412500
C149 C 0.437800 0.675500 0.187900
C150 C 0.809600 0.177500 0.336300
C151 C 0.832100 0.357600 0.279200
C152 C 0.893300 0.420200 0.297900
O153 O 0.507200 0.524100 0.450700
O154 O 0.651600 0.825200 0.711100
O155 O 0.972500 0.337800 0.758400
O156 O 0.025000 0.462900 0.533700
O157 O 0.350300 0.722300 0.797700
O158 O 0.493200 0.236400 0.686600
O159 O 0.025000 0.537100 0.033700
O160 O 0.350300 0.277700 0.297700
O161 O 0.493200 0.763600 0.186600
O162 O 0.972500 0.662200 0.258400
O163 O 0.651600 0.174800 0.211100
O164 O 0.507200 0.475900 -0.049300

#END
