./LAFWIZ01_from_POSCAR.cif_generated_by_CrystalShift
_symmetry_cell_setting triclinic
_symmetry_space_group_name_H-M 'P 1'
loop_
_symmetry_equiv_pos_site_id
_symmetry_equiv_pos_as_xyz
1 x,y,z
_cell_length_a 6.077000
_cell_length_b 17.720000
_cell_length_c 17.275000
_cell_angle_alpha 90.000000
_cell_angle_beta 106.270000
_cell_angle_gamma 90.000000
_cell_volume 1785.749679
loop_
_atom_site_label
_atom_site_type_symbol
_atom_site_fract_x
_atom_site_fract_y
_atom_site_fract_z
H1 H 0.321900 0.042300 0.765700
H2 H 0.096800 0.111500 0.823300
H3 H 0.833700 0.542700 0.329600
H4 H 0.099800 0.240300 0.816000
H5 H 0.859300 0.511400 0.152100
H6 H 0.337900 0.299500 0.752600
H7 H 0.558000 0.230300 0.692000
H8 H 0.862900 0.066200 0.473800
H9 H 0.762800 0.667900 0.398900
H10 H 0.836500 0.597000 0.454800
H11 H 0.543600 0.117800 0.386700
H12 H 1.046300 0.740200 0.482200
H13 H 0.907100 0.702400 0.535900
H14 H 0.253200 0.159300 0.433800
H15 H 1.302600 0.692700 0.596700
H16 H 1.188800 0.612500 0.580600
H17 H 0.278900 0.144500 0.569200
H18 H 1.517200 0.612600 0.540100
H19 H 1.430600 0.682600 0.484300
H20 H 1.104000 -0.165000 0.863400
H21 H 1.369000 0.573600 0.405800
H22 H 1.226300 0.538000 0.459600
H23 H 1.226300 -0.038000 0.959600
H24 H 1.104000 0.665000 0.363400
H25 H 1.369000 -0.073600 0.905800
H26 H 1.430600 -0.182600 0.984300
H27 H 1.517200 -0.112600 1.040100
H28 H 1.188800 -0.112500 1.080600
H29 H 0.278900 0.355500 0.069200
H30 H 1.302600 -0.192700 1.096700
H31 H 0.253200 0.340700 -0.066200
H32 H 0.907100 -0.202400 1.035900
H33 H 0.543600 0.382200 -0.113300
H34 H 1.046300 -0.240200 0.982200
H35 H 0.862900 0.433800 -0.026200
H36 H 0.836500 -0.097000 0.954800
H37 H 0.762800 -0.167900 0.898900
H38 H 0.558000 0.269700 0.192000
H39 H 0.859300 -0.011400 0.652100
H40 H 0.337900 0.200500 0.252600
H41 H 0.833700 -0.042700 0.829600
H42 H 0.099800 0.259700 0.316000
H43 H 0.678100 0.542300 0.734300
H44 H 0.096800 0.388500 0.323300
H45 H 0.903200 0.611500 0.676700
H46 H 0.321900 0.457700 0.265700
H47 H 0.900200 0.740300 0.684000
H48 H 0.662100 0.799500 0.747400
H49 H 0.166300 1.042700 0.170400
H50 H 0.442000 0.730300 0.808000
H51 H 0.140700 1.011400 0.347900
H52 H 0.137100 0.566200 1.026200
H53 H 0.456400 0.617800 1.113300
H54 H 0.746800 0.659300 1.066200
H55 H 0.237200 1.167900 0.101100
H56 H 0.163500 1.097000 0.045200
H57 H 0.721100 0.644500 0.930800
H58 H -0.046300 1.240200 0.017800
H59 H 0.092900 1.202400 -0.035900
H60 H -0.104000 0.335000 0.636600
H61 H -0.302600 1.192700 -0.096700
H62 H -0.188800 1.112500 -0.080600
H63 H -0.226300 0.462000 0.540400
H64 H -0.517200 1.112600 -0.040100
H65 H -0.430600 1.182600 0.015700
H66 H -0.369000 0.426400 0.594200
H67 H -0.369000 1.073600 0.094200
H68 H -0.226300 1.038000 0.040400
H69 H -0.430600 0.317400 0.515700
H70 H -0.104000 1.165000 0.136600
H71 H -0.517200 0.387400 0.459900
H72 H -0.188800 0.387500 0.419400
H73 H -0.302600 0.307300 0.403300
H74 H 0.092900 0.297600 0.464100
H75 H 0.721100 0.855500 0.430800
H76 H -0.046300 0.259800 0.517800
H77 H 0.746800 0.840700 0.566200
H78 H 0.163500 0.403000 0.545200
H79 H 0.456400 0.882200 0.613300
H80 H 0.237200 0.332100 0.601100
H81 H 0.137100 0.933800 0.526200
H82 H 0.140700 0.488600 0.847900
H83 H 0.166300 0.457300 0.670400
H84 H 0.442000 0.769700 0.308000
H85 H 0.678100 0.957700 0.234300
H86 H 0.662100 0.700500 0.247400
H87 H 0.903200 0.888500 0.176700
H88 H 0.900200 0.759700 0.184000
C89 C 0.809500 0.864400 0.203300
C90 C 0.807000 0.788100 0.207400
C91 C 0.676400 0.905400 0.238000
C92 C 0.666800 0.752900 0.245800
C93 C 0.190500 0.135600 0.796700
C94 C 0.193000 0.211900 0.792600
C95 C 0.535200 0.794100 0.281400
C96 C 0.333200 0.247100 0.754200
C97 C 0.537400 0.871570 0.278820
C98 C 0.464800 0.205900 0.718600
C99 C 0.462600 0.128430 0.721180
C100 C 0.107200 0.358200 0.565700
C101 C 0.258200 0.919000 0.506600
C102 C 0.447600 0.887000 0.558900
C103 C -0.010200 0.307600 0.496800
C104 C 0.618200 0.863100 0.531500
C105 C 0.603200 0.871600 0.451500
C106 C -0.226300 0.342600 0.445200
C107 C 0.410000 0.904400 0.402400
C108 C 0.396600 0.917600 0.316790
C109 C -0.381900 0.362900 0.493900
C110 C 0.013500 1.065520 0.247980
C111 C -0.059600 1.119200 0.112900
C112 C -0.265000 0.415000 0.562300
C113 C -0.265000 1.085000 0.062300
C114 C -0.381900 1.137100 -0.006100
C115 C -0.059600 0.380800 0.612900
C116 C -0.226300 1.157400 -0.054800
C117 C 0.013500 0.434480 0.747980
C118 C 0.396600 0.582400 0.816790
C119 C 0.410000 0.595600 0.902400
C120 C 0.603200 0.628400 0.951500
C121 C -0.010200 1.192400 -0.003200
C122 C 0.618200 0.636900 1.031500
C123 C 0.107200 1.141800 0.065700
C124 C 0.447600 0.613000 1.058900
C125 C 0.892800 0.641800 0.434300
C126 C 0.258200 0.581000 1.006600
C127 C 0.741800 0.081000 0.493400
C128 C 0.537400 0.628430 0.778820
C129 C 0.535200 0.705900 0.781400
C130 C 1.010200 0.692400 0.503200
C131 C 0.666800 0.747100 0.745800
C132 C 0.552400 0.113000 0.441100
C133 C 0.807000 0.711900 0.707400
C134 C 1.226300 0.657400 0.554800
C135 C 0.809500 0.635600 0.703300
C136 C 0.323600 0.405400 0.262000
C137 C 0.676400 0.594600 0.738000
C138 C 0.190500 0.364400 0.296700
C139 C 0.381800 0.136900 0.468500
C140 C 1.381900 0.637100 0.506100
C141 C 0.193000 0.288100 0.292600
C142 C 0.396800 0.128400 0.548500
C143 C 0.333200 0.252900 0.254200
C144 C 0.590000 0.095600 0.597600
C145 C 0.603400 0.082400 0.683210
C146 C 0.892800 -0.141800 0.934300
C147 C 0.464800 0.294100 0.218600
C148 C 0.462600 0.371570 0.221180
C149 C 1.010200 -0.192400 1.003200
C150 C 0.741800 0.419000 -0.006600
C151 C 0.552400 0.387000 -0.058900
C152 C 1.226300 -0.157400 1.054800
C153 C 0.381800 0.363100 -0.031500
C154 C 0.396800 0.371600 0.048500
C155 C 1.381900 -0.137100 1.006100
C156 C 0.590000 0.404400 0.097600
C157 C 0.603400 0.417600 0.183210
C158 C 1.265000 -0.085000 0.937700
C159 C 0.986500 0.565520 0.252020
C160 C 1.059600 0.619200 0.387100
C161 C 1.059600 -0.119200 0.887100
C162 C 1.265000 0.585000 0.437700
C163 C 0.986500 -0.065520 0.752020
C164 C 0.323600 0.094600 0.762000
N165 N 0.721500 0.032060 0.729040
N166 N 0.857300 -0.014240 0.701610
N167 N 0.942500 -0.070380 0.822430
N168 N 0.942500 0.570380 0.322430
N169 N 0.857300 0.514240 0.201610
N170 N 0.057500 1.070380 0.177570
N171 N 0.142700 1.014240 0.298390
N172 N 0.278500 0.967940 0.270960
N173 N 0.241100 0.929400 0.429700
N174 N 0.241100 0.570600 0.929700
N175 N 0.278500 0.532060 0.770960
N176 N 0.758900 0.429400 0.070300
N177 N 0.142700 0.485760 0.798390
N178 N 0.721500 0.467940 0.229040
N179 N 0.057500 0.429620 0.677570
N180 N 0.758900 0.070600 0.570300
S181 S 1.170110 -0.117190 0.721510
S182 S -0.170110 0.382810 0.778490
S183 S -0.170110 1.117190 0.278490
S184 S 1.170110 0.617190 0.221510

#END
